MODEL 1
REMARK VINA RESULT:      -4.8      0.000      0.000
REMARK  3 active torsions:
REMARK  status: ('A' for Active; 'I' for Inactive)
REMARK    1  A    between atoms: O_9  and  C_1 
REMARK    2  A    between atoms: C_13  and  O_9 
REMARK    3  A    between atoms: C_16  and  C_11 
ROOT
ATOM      1  C   UNL d   1      58.360  -0.393  29.925  0.00  0.00     0.161 A 
ATOM      2  C   UNL d   1      57.546  -0.375  31.098  0.00  0.00     0.064 A 
ATOM      3  C   UNL d   1      57.751  -0.726  30.391  0.00  0.00     0.222 A 
ATOM      4  C   UNL d   1      57.927   0.303  31.364  0.00  0.00     0.106 A 
ATOM      5  C   UNL d   1      58.749   0.298  30.196  0.00  0.00     0.126 A 
ATOM      6  O   UNL d   1      58.514   0.630  30.924  0.00  0.00    -0.305 OA
ATOM      7  C   UNL d   1      56.941  -0.722  31.540  0.00  0.00     0.008 A 
ATOM      8  C   UNL d   1      57.704   0.635  32.073  0.00  0.00     0.067 A 
ATOM      9  C   UNL d   1      57.109   0.307  32.526  0.00  0.00     0.198 A 
ATOM     10  C   UNL d   1      56.720  -0.384  32.254  0.00  0.00     0.039 A 
ATOM     11  O   UNL d   1      57.369  -1.405  30.124  0.00  0.00    -0.284 OA
ATOM     12  O   UNL d   1      56.901   0.673  33.254  0.00  0.00    -0.286 OA
ATOM     13  C   UNL d   1      59.367   0.661  29.754  0.00  0.00     0.029 C 
ENDROOT
BRANCH   1  14
ATOM     14  O   UNL d   1      58.568  -0.759  29.197  0.00  0.00    -0.302 OA
BRANCH  14  15
ATOM     15  C   UNL d   1      59.132  -1.372  29.190  0.00  0.00     0.100 A 
ATOM     16  C   UNL d   1      59.935  -1.190  29.213  0.00  0.00     0.025 A 
ATOM     17  C   UNL d   1      60.481  -1.792  29.206  0.00  0.00     0.002 A 
ATOM     18  C   UNL d   1      60.234  -2.597  29.176  0.00  0.00     0.000 A 
ATOM     19  C   UNL d   1      59.428  -2.763  29.153  0.00  0.00     0.002 A 
ATOM     20  C   UNL d   1      58.874  -2.147  29.160  0.00  0.00     0.025 A 
ENDBRANCH  14  15
ENDBRANCH   1  14
BRANCH  10  21
ATOM     21  C   UNL d   1      56.102  -0.746  32.696  0.00  0.00     0.003 C 
ATOM     22  C   UNL d   1      56.131  -1.566  32.872  0.00  0.00     0.000 C 
ENDBRANCH  10  21
TORSDOF 3
ENDMDL
MODEL 2
REMARK VINA RESULT:      -4.3      1.606      4.023
REMARK  3 active torsions:
REMARK  status: ('A' for Active; 'I' for Inactive)
REMARK    1  A    between atoms: O_9  and  C_1 
REMARK    2  A    between atoms: C_13  and  O_9 
REMARK    3  A    between atoms: C_16  and  C_11 
ROOT
ATOM      1  C   UNL d   1      57.269   0.633  31.999  0.00  0.00     0.161 A 
ATOM      2  C   UNL d   1      58.182   0.629  30.901  0.00  0.00     0.064 A 
ATOM      3  C   UNL d   1      57.415   0.615  31.175  0.00  0.00     0.222 A 
ATOM      4  C   UNL d   1      58.820   0.659  31.419  0.00  0.00     0.106 A 
ATOM      5  C   UNL d   1      57.919   0.664  32.527  0.00  0.00     0.126 A 
ATOM      6  O   UNL d   1      58.690   0.676  32.212  0.00  0.00    -0.305 OA
ATOM      7  C   UNL d   1      58.302   0.611  30.084  0.00  0.00     0.008 A 
ATOM      8  C   UNL d   1      59.577   0.672  31.121  0.00  0.00     0.067 A 
ATOM      9  C   UNL d   1      59.716   0.655  30.316  0.00  0.00     0.198 A 
ATOM     10  C   UNL d   1      59.066   0.624  29.788  0.00  0.00     0.039 A 
ATOM     11  O   UNL d   1      56.776   0.585  30.656  0.00  0.00    -0.284 OA
ATOM     12  O   UNL d   1      60.511   0.669  30.039  0.00  0.00    -0.286 OA
ATOM     13  C   UNL d   1      57.810   0.682  33.361  0.00  0.00     0.029 C 
ENDROOT
BRANCH   1  14
ATOM     14  O   UNL d   1      56.475   0.618  32.276  0.00  0.00    -0.302 OA
BRANCH  14  15
ATOM     15  C   UNL d   1      56.171  -0.077  32.620  0.00  0.00     0.100 A 
ATOM     16  C   UNL d   1      56.279  -0.801  32.244  0.00  0.00     0.025 A 
ATOM     17  C   UNL d   1      55.981  -1.476  32.584  0.00  0.00     0.002 A 
ATOM     18  C   UNL d   1      55.563  -1.442  33.316  0.00  0.00     0.000 A 
ATOM     19  C   UNL d   1      55.464  -0.709  33.679  0.00  0.00     0.002 A 
ATOM     20  C   UNL d   1      55.769  -0.023  33.330  0.00  0.00     0.025 A 
ENDBRANCH  14  15
ENDBRANCH   1  14
BRANCH  10  21
ATOM     21  C   UNL d   1      59.175   0.606  28.954  0.00  0.00     0.003 C 
ATOM     22  C   UNL d   1      58.798   0.018  28.490  0.00  0.00     0.000 C 
ENDBRANCH  10  21
TORSDOF 3
ENDMDL
MODEL 3
REMARK VINA RESULT:      -3.3      0.937      3.915
REMARK  3 active torsions:
REMARK  status: ('A' for Active; 'I' for Inactive)
REMARK    1  A    between atoms: O_9  and  C_1 
REMARK    2  A    between atoms: C_13  and  O_9 
REMARK    3  A    between atoms: C_16  and  C_11 
ROOT
ATOM      1  C   UNL d   1      57.935  -0.735  30.130  0.00  0.00     0.161 A 
ATOM      2  C   UNL d   1      58.856  -1.700  29.619  0.00  0.00     0.064 A 
ATOM      3  C   UNL d   1      58.134  -1.529  29.957  0.00  0.00     0.222 A 
ATOM      4  C   UNL d   1      59.395  -1.105  29.443  0.00  0.00     0.106 A 
ATOM      5  C   UNL d   1      58.485  -0.129  29.950  0.00  0.00     0.126 A 
ATOM      6  O   UNL d   1      59.214  -0.340  29.605  0.00  0.00    -0.305 OA
ATOM      7  C   UNL d   1      59.030  -2.491  29.458  0.00  0.00     0.008 A 
ATOM      8  C   UNL d   1      60.110  -1.301  29.105  0.00  0.00     0.067 A 
ATOM      9  C   UNL d   1      60.301  -2.077  28.938  0.00  0.00     0.198 A 
ATOM     10  C   UNL d   1      59.751  -2.683  29.118  0.00  0.00     0.039 A 
ATOM     11  O   UNL d   1      57.593  -2.124  30.134  0.00  0.00    -0.284 OA
ATOM     12  O   UNL d   1      61.047  -2.247  28.589  0.00  0.00    -0.286 OA
ATOM     13  C   UNL d   1      58.319   0.680  30.110  0.00  0.00     0.029 C 
ENDROOT
BRANCH   1  14
ATOM     14  O   UNL d   1      57.189  -0.565  30.479  0.00  0.00    -0.302 OA
BRANCH  14  15
ATOM     15  C   UNL d   1      57.128  -0.493  31.307  0.00  0.00     0.100 A 
ATOM     16  C   UNL d   1      57.499   0.133  31.692  0.00  0.00     0.025 A 
ATOM     17  C   UNL d   1      57.436   0.197  32.500  0.00  0.00     0.002 A 
ATOM     18  C   UNL d   1      56.996  -0.368  32.945  0.00  0.00     0.000 A 
ATOM     19  C   UNL d   1      56.631  -0.988  32.544  0.00  0.00     0.002 A 
ATOM     20  C   UNL d   1      56.697  -1.051  31.721  0.00  0.00     0.025 A 
ENDBRANCH  14  15
ENDBRANCH   1  14
BRANCH  10  21
ATOM     21  C   UNL d   1      59.917  -3.493  28.958  0.00  0.00     0.003 C 
ATOM     22  C   UNL d   1      59.368  -3.962  28.533  0.00  0.00     0.000 C 
ENDBRANCH  10  21
TORSDOF 3
ENDMDL
MODEL 4
REMARK VINA RESULT:      -2.9      1.120      2.082
REMARK  3 active torsions:
REMARK  status: ('A' for Active; 'I' for Inactive)
REMARK    1  A    between atoms: O_9  and  C_1 
REMARK    2  A    between atoms: C_13  and  O_9 
REMARK    3  A    between atoms: C_16  and  C_11 
ROOT
ATOM      1  C   UNL d   1      57.791  -0.599  30.432  0.00  0.00     0.161 A 
ATOM      2  C   UNL d   1      56.979  -0.516  31.604  0.00  0.00     0.064 A 
ATOM      3  C   UNL d   1      57.395  -0.143  31.011  0.00  0.00     0.222 A 
ATOM      4  C   UNL d   1      56.940  -1.336  31.646  0.00  0.00     0.106 A 
ATOM      5  C   UNL d   1      57.751  -1.435  30.474  0.00  0.00     0.126 A 
ATOM      6  O   UNL d   1      57.317  -1.784  31.095  0.00  0.00    -0.305 OA
ATOM      7  C   UNL d   1      56.597  -0.045  32.164  0.00  0.00     0.008 A 
ATOM      8  C   UNL d   1      56.519  -1.686  32.248  0.00  0.00     0.067 A 
ATOM      9  C   UNL d   1      56.134  -1.238  32.812  0.00  0.00     0.198 A 
ATOM     10  C   UNL d   1      56.174  -0.402  32.769  0.00  0.00     0.039 A 
ATOM     11  O   UNL d   1      57.434   0.678  30.969  0.00  0.00    -0.284 OA
ATOM     12  O   UNL d   1      55.706  -1.630  33.422  0.00  0.00    -0.286 OA
ATOM     13  C   UNL d   1      58.136  -1.925  29.910  0.00  0.00     0.029 C 
ENDROOT
BRANCH   1  14
ATOM     14  O   UNL d   1      58.218  -0.208  29.822  0.00  0.00    -0.302 OA
BRANCH  14  15
ATOM     15  C   UNL d   1      59.026  -0.036  29.930  0.00  0.00     0.100 A 
ATOM     16  C   UNL d   1      59.587  -0.377  29.433  0.00  0.00     0.025 A 
ATOM     17  C   UNL d   1      60.374  -0.207  29.543  0.00  0.00     0.002 A 
ATOM     18  C   UNL d   1      60.620   0.314  30.159  0.00  0.00     0.000 A 
ATOM     19  C   UNL d   1      60.046   0.647  30.647  0.00  0.00     0.002 A 
ATOM     20  C   UNL d   1      59.245   0.471  30.532  0.00  0.00     0.025 A 
ENDBRANCH  14  15
ENDBRANCH   1  14
BRANCH  10  21
ATOM     21  C   UNL d   1      55.789   0.088  33.334  0.00  0.00     0.003 C 
ATOM     22  C   UNL d   1      56.217   0.681  33.743  0.00  0.00     0.000 C 
ENDBRANCH  10  21
TORSDOF 3
ENDMDL
MODEL 5
REMARK VINA RESULT:      -2.1      1.521      4.676
REMARK  3 active torsions:
REMARK  status: ('A' for Active; 'I' for Inactive)
REMARK    1  A    between atoms: O_9  and  C_1 
REMARK    2  A    between atoms: C_13  and  O_9 
REMARK    3  A    between atoms: C_16  and  C_11 
ROOT
ATOM      1  C   UNL d   1      55.906  -0.583  32.502  0.00  0.00     0.161 A 
ATOM      2  C   UNL d   1      56.868  -0.476  31.452  0.00  0.00     0.064 A 
ATOM      3  C   UNL d   1      56.315  -0.122  31.936  0.00  0.00     0.222 A 
ATOM      4  C   UNL d   1      57.033  -1.279  31.510  0.00  0.00     0.106 A 
ATOM      5  C   UNL d   1      56.075  -1.401  32.561  0.00  0.00     0.126 A 
ATOM      6  O   UNL d   1      56.646  -1.730  32.051  0.00  0.00    -0.305 OA
ATOM      7  C   UNL d   1      57.259  -0.002  30.900  0.00  0.00     0.008 A 
ATOM      8  C   UNL d   1      57.589  -1.610  31.016  0.00  0.00     0.067 A 
ATOM      9  C   UNL d   1      57.987  -1.158  30.463  0.00  0.00     0.198 A 
ATOM     10  C   UNL d   1      57.818  -0.339  30.405  0.00  0.00     0.039 A 
ATOM     11  O   UNL d   1      56.149   0.682  31.878  0.00  0.00    -0.284 OA
ATOM     12  O   UNL d   1      58.556  -1.529  29.967  0.00  0.00    -0.286 OA
ATOM     13  C   UNL d   1      55.683  -1.894  33.119  0.00  0.00     0.029 C 
ENDROOT
BRANCH   1  14
ATOM     14  O   UNL d   1      55.337  -0.212  32.999  0.00  0.00    -0.302 OA
BRANCH  14  15
ATOM     15  C   UNL d   1      55.570   0.088  33.740  0.00  0.00     0.100 A 
ATOM     16  C   UNL d   1      56.350   0.322  33.860  0.00  0.00     0.025 A 
ATOM     17  C   UNL d   1      56.572   0.614  34.586  0.00  0.00     0.002 A 
ATOM     18  C   UNL d   1      56.012   0.680  35.213  0.00  0.00     0.000 A 
ATOM     19  C   UNL d   1      55.236   0.441  35.076  0.00  0.00     0.002 A 
ATOM     20  C   UNL d   1      55.013   0.144  34.336  0.00  0.00     0.025 A 
ENDBRANCH  14  15
ENDBRANCH   1  14
BRANCH  10  21
ATOM     21  C   UNL d   1      58.210   0.154  29.846  0.00  0.00     0.003 C 
ATOM     22  C   UNL d   1      58.922   0.546  30.053  0.00  0.00     0.000 C 
ENDBRANCH  10  21
TORSDOF 3
ENDMDL
