MODEL 1
REMARK VINA RESULT:      -7.2      0.000      0.000
REMARK  6 active torsions:
REMARK  status: ('A' for Active; 'I' for Inactive)
REMARK    1  A    between atoms: C_2  and  S_1 
REMARK    2  A    between atoms: N_8  and  S_1 
REMARK    3  A    between atoms: O_15  and  C_3 
REMARK    4  A    between atoms: C_14  and  N_8 
REMARK    5  A    between atoms: N_10  and  C_17 
REMARK    6  A    between atoms: C_17  and  C_14 
ROOT
ATOM      1  S   UNL d   1      51.491  34.019  52.972  0.00  0.00     0.287 S 
ATOM      2  O   UNL d   1      51.886  34.495  52.417  0.00  0.00    -0.198 OA
ATOM      3  O   UNL d   1      51.102  33.547  53.524  0.00  0.00    -0.198 OA
ENDROOT
BRANCH   1   4
ATOM      4  C   UNL d   1      52.182  33.970  53.416  0.00  0.00     0.128 A 
ATOM      5  C   UNL d   1      52.683  33.312  53.337  0.00  0.00     0.118 A 
ATOM      6  C   UNL d   1      53.374  33.262  53.781  0.00  0.00     0.091 A 
ATOM      7 CL   UNL d   1      53.868  32.609  53.700  0.00  0.00    -0.079 Cl
ATOM      8  C   UNL d   1      53.572  33.867  54.306  0.00  0.00     0.070 A 
ATOM      9  C   UNL d   1      53.078  34.521  54.388  0.00  0.00     0.013 A 
ATOM     10 CL   UNL d   1      54.264  33.818  54.751  0.00  0.00    -0.081 Cl
ATOM     11  C   UNL d   1      52.380  34.574  53.941  0.00  0.00     0.016 A 
BRANCH   5  12
ATOM     12  O   UNL d   1      52.485  32.707  52.812  0.00  0.00    -0.327 OA
ATOM     13  C   UNL d   1      52.757  31.941  52.943  0.00  0.00     0.181 C 
ENDBRANCH   5  12
ENDBRANCH   1   4
BRANCH   1  14
ATOM     14  N   UNL d   1      50.797  34.070  52.525  0.00  0.00    -0.155 NA
BRANCH  14  15
ATOM     15  C   UNL d   1      50.189  34.573  52.763  0.00  0.00     0.131 C 
BRANCH  15  16
ATOM     16  C   UNL d   1      49.437  34.487  52.440  0.00  0.00     0.102 C 
BRANCH  16  17
ATOM     17  N   UNL d   1      48.881  35.088  52.533  0.00  0.00    -0.298 N 
ATOM     18  C   UNL d   1      48.395  35.309  51.894  0.00  0.00     0.107 A 
ATOM     19  C   UNL d   1      47.841  35.907  51.983  0.00  0.00     0.142 A 
ATOM     20  O   UNL d   1      47.762  36.292  52.709  0.00  0.00    -0.300 OA
ATOM     21  C   UNL d   1      48.246  36.072  53.345  0.00  0.00     0.142 A 
ATOM     22  C   UNL d   1      48.807  35.469  53.259  0.00  0.00     0.107 A 
ENDBRANCH  16  17
ENDBRANCH  15  16
ENDBRANCH  14  15
ENDBRANCH   1  14
TORSDOF 6
ENDMDL
MODEL 2
REMARK VINA RESULT:      -7.0      0.967      1.701
REMARK  6 active torsions:
REMARK  status: ('A' for Active; 'I' for Inactive)
REMARK    1  A    between atoms: C_2  and  S_1 
REMARK    2  A    between atoms: N_8  and  S_1 
REMARK    3  A    between atoms: O_15  and  C_3 
REMARK    4  A    between atoms: C_14  and  N_8 
REMARK    5  A    between atoms: N_10  and  C_17 
REMARK    6  A    between atoms: C_17  and  C_14 
ROOT
ATOM      1  S   UNL d   1      51.629  33.852  53.163  0.00  0.00     0.287 S 
ATOM      2  O   UNL d   1      52.125  34.235  52.619  0.00  0.00    -0.198 OA
ATOM      3  O   UNL d   1      51.139  33.470  53.704  0.00  0.00    -0.198 OA
ENDROOT
BRANCH   1   4
ATOM      4  C   UNL d   1      52.201  33.270  53.270  0.00  0.00     0.128 A 
ATOM      5  C   UNL d   1      52.827  33.393  53.802  0.00  0.00     0.118 A 
ATOM      6  C   UNL d   1      53.400  32.811  53.909  0.00  0.00     0.091 A 
ATOM      7 CL   UNL d   1      54.018  32.937  54.436  0.00  0.00    -0.079 Cl
ATOM      8  C   UNL d   1      53.353  32.103  53.488  0.00  0.00     0.070 A 
ATOM      9  C   UNL d   1      52.733  31.977  52.960  0.00  0.00     0.013 A 
ATOM     10 CL   UNL d   1      53.925  31.521  53.594  0.00  0.00    -0.081 Cl
ATOM     11  C   UNL d   1      52.154  32.562  52.849  0.00  0.00     0.016 A 
BRANCH   5  12
ATOM     12  O   UNL d   1      52.874  34.101  54.223  0.00  0.00    -0.327 OA
ATOM     13  C   UNL d   1      53.366  34.158  54.881  0.00  0.00     0.181 C 
ENDBRANCH   5  12
ENDBRANCH   1   4
BRANCH   1  14
ATOM     14  N   UNL d   1      51.054  34.437  53.055  0.00  0.00    -0.155 NA
BRANCH  14  15
ATOM     15  C   UNL d   1      50.410  34.296  52.561  0.00  0.00     0.131 C 
BRANCH  15  16
ATOM     16  C   UNL d   1      49.747  34.782  52.603  0.00  0.00     0.102 C 
BRANCH  16  17
ATOM     17  N   UNL d   1      49.191  34.771  51.995  0.00  0.00    -0.298 N 
ATOM     18  C   UNL d   1      48.445  35.124  52.105  0.00  0.00     0.107 A 
ATOM     19  C   UNL d   1      47.891  35.115  51.501  0.00  0.00     0.142 A 
ATOM     20  O   UNL d   1      48.070  34.753  50.781  0.00  0.00    -0.300 OA
ATOM     21  C   UNL d   1      48.813  34.401  50.672  0.00  0.00     0.142 A 
ATOM     22  C   UNL d   1      49.376  34.409  51.279  0.00  0.00     0.107 A 
ENDBRANCH  16  17
ENDBRANCH  15  16
ENDBRANCH  14  15
ENDBRANCH   1  14
TORSDOF 6
ENDMDL
MODEL 3
REMARK VINA RESULT:      -6.4      2.592      4.869
REMARK  6 active torsions:
REMARK  status: ('A' for Active; 'I' for Inactive)
REMARK    1  A    between atoms: C_2  and  S_1 
REMARK    2  A    between atoms: N_8  and  S_1 
REMARK    3  A    between atoms: O_15  and  C_3 
REMARK    4  A    between atoms: C_14  and  N_8 
REMARK    5  A    between atoms: N_10  and  C_17 
REMARK    6  A    between atoms: C_17  and  C_14 
ROOT
ATOM      1  S   UNL d   1      53.204  32.797  53.337  0.00  0.00     0.287 S 
ATOM      2  O   UNL d   1      53.924  33.024  52.990  0.00  0.00    -0.198 OA
ATOM      3  O   UNL d   1      52.490  32.576  53.682  0.00  0.00    -0.198 OA
ENDROOT
BRANCH   1   4
ATOM      4  C   UNL d   1      53.145  33.539  53.689  0.00  0.00     0.128 A 
ATOM      5  C   UNL d   1      52.643  34.116  53.365  0.00  0.00     0.118 A 
ATOM      6  C   UNL d   1      52.583  34.858  53.717  0.00  0.00     0.091 A 
ATOM      7 CL   UNL d   1      52.085  35.426  53.393  0.00  0.00    -0.079 Cl
ATOM      8  C   UNL d   1      53.022  35.030  54.394  0.00  0.00     0.070 A 
ATOM      9  C   UNL d   1      53.522  34.461  54.718  0.00  0.00     0.013 A 
ATOM     10 CL   UNL d   1      52.963  35.772  54.746  0.00  0.00    -0.081 Cl
ATOM     11  C   UNL d   1      53.584  33.711  54.366  0.00  0.00     0.016 A 
BRANCH   5  12
ATOM     12  O   UNL d   1      52.203  33.943  52.689  0.00  0.00    -0.327 OA
ATOM     13  C   UNL d   1      51.519  34.370  52.521  0.00  0.00     0.181 C 
ENDBRANCH   5  12
ENDBRANCH   1   4
BRANCH   1  14
ATOM     14  N   UNL d   1      53.265  32.052  52.982  0.00  0.00    -0.155 NA
BRANCH  14  15
ATOM     15  C   UNL d   1      53.283  31.374  53.450  0.00  0.00     0.131 C 
BRANCH  15  16
ATOM     16  C   UNL d   1      53.416  30.640  53.101  0.00  0.00     0.102 C 
BRANCH  16  17
ATOM     17  N   UNL d   1      53.269  29.951  53.529  0.00  0.00    -0.298 N 
ATOM     18  C   UNL d   1      53.784  29.722  54.142  0.00  0.00     0.107 A 
ATOM     19  C   UNL d   1      53.640  29.037  54.568  0.00  0.00     0.142 A 
ATOM     20  O   UNL d   1      52.983  28.571  54.391  0.00  0.00    -0.300 OA
ATOM     21  C   UNL d   1      52.470  28.799  53.781  0.00  0.00     0.142 A 
ATOM     22  C   UNL d   1      52.612  29.490  53.348  0.00  0.00     0.107 A 
ENDBRANCH  16  17
ENDBRANCH  15  16
ENDBRANCH  14  15
ENDBRANCH   1  14
TORSDOF 6
ENDMDL
