MODEL 1
REMARK VINA RESULT:      -8.6      0.000      0.000
REMARK  6 active torsions:
REMARK  status: ('A' for Active; 'I' for Inactive)
REMARK    1  A    between atoms: N_3  and  S_1 
REMARK    2  A    between atoms: C_9  and  S_1 
REMARK    3  A    between atoms: C_2  and  N_3 
REMARK    4  A    between atoms: N_5  and  C_10 
REMARK    5  A    between atoms: C_19  and  C_8 
REMARK    6  A    between atoms: O_20  and  C_19 
ROOT
ATOM      1  S   UNL d   1      52.923  32.526  53.021  0.00  0.00     0.287 S 
ATOM      2  O   UNL d   1      52.082  32.567  53.010  0.00  0.00    -0.198 OA
ATOM      3  O   UNL d   1      53.764  32.478  53.027  0.00  0.00    -0.198 OA
ENDROOT
BRANCH   1   4
ATOM      4  N   UNL d   1      52.879  31.813  52.559  0.00  0.00    -0.130 NA
BRANCH   4   5
ATOM      5  C   UNL d   1      52.826  31.086  52.938  0.00  0.00     0.227 A 
ATOM      6  S   UNL d   1      53.404  30.598  53.292  0.00  0.00    -0.023 SA
ATOM      7  C   UNL d   1      53.007  29.918  53.590  0.00  0.00     0.159 A 
ATOM      8  N   UNL d   1      52.215  29.996  53.419  0.00  0.00    -0.137 NA
ATOM      9  N   UNL d   1      52.106  30.720  53.016  0.00  0.00    -0.120 NA
BRANCH   7  10
ATOM     10  C   UNL d   1      53.370  29.282  53.988  0.00  0.00     0.144 C 
BRANCH  10  11
ATOM     11  O   UNL d   1      53.073  29.056  54.755  0.00  0.00    -0.324 OA
ATOM     12  C   UNL d   1      53.473  28.469  55.217  0.00  0.00     0.182 C 
ENDBRANCH  10  11
ENDBRANCH   7  10
ENDBRANCH   4   5
ENDBRANCH   1   4
BRANCH   1  13
ATOM     13  C   UNL d   1      52.969  33.235  53.479  0.00  0.00     0.105 A 
ATOM     14  C   UNL d   1      52.499  33.850  53.296  0.00  0.00     0.015 A 
ATOM     15  C   UNL d   1      52.529  34.551  53.732  0.00  0.00     0.024 A 
ATOM     16  C   UNL d   1      53.055  34.606  54.363  0.00  0.00     0.127 A 
ATOM     17  C   UNL d   1      53.550  33.968  54.561  0.00  0.00     0.024 A 
ATOM     18  C   UNL d   1      53.496  33.293  54.112  0.00  0.00     0.015 A 
BRANCH  16  19
ATOM     19  N   UNL d   1      53.101  35.316  54.822  0.00  0.00    -0.114 N 
ATOM     20  O   UNL d   1      53.229  35.276  55.628  0.00  0.00    -0.532 OA
ATOM     21  O   UNL d   1      53.017  36.056  54.465  0.00  0.00    -0.532 OA
ENDBRANCH  16  19
ENDBRANCH   1  13
TORSDOF 6
ENDMDL
MODEL 2
REMARK VINA RESULT:      -7.5      1.548      4.531
REMARK  6 active torsions:
REMARK  status: ('A' for Active; 'I' for Inactive)
REMARK    1  A    between atoms: N_3  and  S_1 
REMARK    2  A    between atoms: C_9  and  S_1 
REMARK    3  A    between atoms: C_2  and  N_3 
REMARK    4  A    between atoms: N_5  and  C_10 
REMARK    5  A    between atoms: C_19  and  C_8 
REMARK    6  A    between atoms: O_20  and  C_19 
ROOT
ATOM      1  S   UNL d   1      53.464  32.501  53.364  0.00  0.00     0.287 S 
ATOM      2  O   UNL d   1      53.648  32.618  54.177  0.00  0.00    -0.198 OA
ATOM      3  O   UNL d   1      53.280  32.392  52.548  0.00  0.00    -0.198 OA
ENDROOT
BRANCH   1   4
ATOM      4  N   UNL d   1      53.569  33.335  53.235  0.00  0.00    -0.130 NA
BRANCH   4   5
ATOM      5  C   UNL d   1      52.925  33.842  53.303  0.00  0.00     0.227 A 
ATOM      6  S   UNL d   1      52.229  33.922  52.850  0.00  0.00    -0.023 SA
ATOM      7  C   UNL d   1      51.778  34.543  53.196  0.00  0.00     0.159 A 
ATOM      8  N   UNL d   1      52.191  34.826  53.837  0.00  0.00    -0.137 NA
ATOM      9  N   UNL d   1      52.901  34.390  53.901  0.00  0.00    -0.120 NA
BRANCH   7  10
ATOM     10  C   UNL d   1      51.038  34.813  52.922  0.00  0.00     0.144 C 
BRANCH  10  11
ATOM     11  O   UNL d   1      50.379  34.271  52.920  0.00  0.00    -0.324 OA
ATOM     12  C   UNL d   1      49.633  34.500  52.590  0.00  0.00     0.182 C 
ENDBRANCH  10  11
ENDBRANCH   7  10
ENDBRANCH   4   5
ENDBRANCH   1   4
BRANCH   1  13
ATOM     13  C   UNL d   1      53.359  31.672  53.489  0.00  0.00     0.105 A 
ATOM     14  C   UNL d   1      53.673  31.331  54.136  0.00  0.00     0.015 A 
ATOM     15  C   UNL d   1      53.582  30.523  54.277  0.00  0.00     0.024 A 
ATOM     16  C   UNL d   1      53.158  30.069  53.736  0.00  0.00     0.127 A 
ATOM     17  C   UNL d   1      52.826  30.417  53.058  0.00  0.00     0.024 A 
ATOM     18  C   UNL d   1      52.934  31.215  52.949  0.00  0.00     0.015 A 
BRANCH  16  19
ATOM     19  N   UNL d   1      53.053  29.239  53.862  0.00  0.00    -0.114 N 
ATOM     20  O   UNL d   1      52.669  28.785  53.303  0.00  0.00    -0.532 OA
ATOM     21  O   UNL d   1      53.336  28.878  54.549  0.00  0.00    -0.532 OA
ENDBRANCH  16  19
ENDBRANCH   1  13
TORSDOF 6
ENDMDL
MODEL 3
REMARK VINA RESULT:      -7.4      1.937      2.386
REMARK  6 active torsions:
REMARK  status: ('A' for Active; 'I' for Inactive)
REMARK    1  A    between atoms: N_3  and  S_1 
REMARK    2  A    between atoms: C_9  and  S_1 
REMARK    3  A    between atoms: C_2  and  N_3 
REMARK    4  A    between atoms: N_5  and  C_10 
REMARK    5  A    between atoms: C_19  and  C_8 
REMARK    6  A    between atoms: O_20  and  C_19 
ROOT
ATOM      1  S   UNL d   1      52.672  33.250  53.024  0.00  0.00     0.287 S 
ATOM      2  O   UNL d   1      52.747  33.648  53.762  0.00  0.00    -0.198 OA
ATOM      3  O   UNL d   1      52.606  32.847  52.286  0.00  0.00    -0.198 OA
ENDROOT
BRANCH   1   4
ATOM      4  N   UNL d   1      53.437  32.898  53.154  0.00  0.00    -0.130 NA
BRANCH   4   5
ATOM      5  C   UNL d   1      53.489  32.154  53.498  0.00  0.00     0.227 A 
ATOM      6  S   UNL d   1      53.309  31.392  53.208  0.00  0.00    -0.023 SA
ATOM      7  C   UNL d   1      53.480  30.845  53.825  0.00  0.00     0.159 A 
ATOM      8  N   UNL d   1      53.754  31.266  54.464  0.00  0.00    -0.137 NA
ATOM      9  N   UNL d   1      53.759  32.076  54.259  0.00  0.00    -0.120 NA
BRANCH   7  10
ATOM     10  C   UNL d   1      53.383  30.018  53.778  0.00  0.00     0.144 C 
BRANCH  10  11
ATOM     11  O   UNL d   1      53.328  29.571  54.502  0.00  0.00    -0.324 OA
ATOM     12  C   UNL d   1      53.312  28.724  54.486  0.00  0.00     0.182 C 
ENDBRANCH  10  11
ENDBRANCH   7  10
ENDBRANCH   4   5
ENDBRANCH   1   4
BRANCH   1  13
ATOM     13  C   UNL d   1      51.914  33.597  52.893  0.00  0.00     0.105 A 
ATOM     14  C   UNL d   1      51.798  34.057  52.254  0.00  0.00     0.015 A 
ATOM     15  C   UNL d   1      51.065  34.405  52.108  0.00  0.00     0.024 A 
ATOM     16  C   UNL d   1      50.447  34.271  52.637  0.00  0.00     0.127 A 
ATOM     17  C   UNL d   1      50.558  33.793  53.307  0.00  0.00     0.024 A 
ATOM     18  C   UNL d   1      51.293  33.464  53.421  0.00  0.00     0.015 A 
BRANCH  16  19
ATOM     19  N   UNL d   1      49.687  34.620  52.505  0.00  0.00    -0.114 N 
ATOM     20  O   UNL d   1      49.348  35.092  53.079  0.00  0.00    -0.532 OA
ATOM     21  O   UNL d   1      49.279  34.488  51.799  0.00  0.00    -0.532 OA
ENDBRANCH  16  19
ENDBRANCH   1  13
TORSDOF 6
ENDMDL
