MODEL 1
REMARK VINA RESULT:      -2.6      0.000      0.000
REMARK  4 active torsions:
REMARK  status: ('A' for Active; 'I' for Inactive)
REMARK    1  A    between atoms: C_8  and  C_1 
REMARK    2  A    between atoms: C_14  and  C_5 
REMARK    3  A    between atoms: O_16  and  C_8 
REMARK    4  A    between atoms: C_21  and  O_16 
ROOT
ATOM      1  C   UNL d   1      31.529  17.601 -24.456  0.00  0.00     0.106 A 
ATOM      2  C   UNL d   1      30.906  18.075 -24.714  0.00  0.00     0.208 A 
ATOM      3  C   UNL d   1      30.589  16.637 -23.955  0.00  0.00     0.061 A 
ATOM      4  C   UNL d   1      29.965  17.111 -24.213  0.00  0.00     0.101 A 
ATOM      5  C   UNL d   1      31.370  16.871 -24.070  0.00  0.00     0.014 A 
ATOM      6  O   UNL d   1      30.119  17.821 -24.589  0.00  0.00    -0.288 OA
ATOM      7  C   UNL d   1      30.449  15.927 -23.579  0.00  0.00     0.194 A 
ATOM      8  C   UNL d   1      29.198  16.877 -24.098  0.00  0.00     0.002 A 
ATOM      9  C   UNL d   1      29.048  16.170 -23.725  0.00  0.00     0.042 A 
ATOM     10  C   UNL d   1      29.672  15.696 -23.466  0.00  0.00     0.019 A 
ATOM     11  O   UNL d   1      31.069  15.455 -23.322  0.00  0.00    -0.287 OA
ATOM     12  N   UNL d   1      31.073  18.800 -25.097  0.00  0.00    -0.121 N 
ATOM     13  C   UNL d   1      28.659  15.525 -23.387  0.00  0.00     0.009 C 
ATOM     14  C   UNL d   1      28.222  16.307 -23.807  0.00  0.00     0.009 C 
ENDROOT
BRANCH   5  15
ATOM     15  C   UNL d   1      31.990  16.400 -23.813  0.00  0.00     0.000 A 
ATOM     16  C   UNL d   1      32.393  15.919 -24.342  0.00  0.00     0.000 A 
ATOM     17  C   UNL d   1      33.017  15.453 -24.054  0.00  0.00     0.000 A 
ATOM     18  C   UNL d   1      33.239  15.456 -23.274  0.00  0.00     0.000 A 
ATOM     19  C   UNL d   1      32.839  15.934 -22.744  0.00  0.00     0.000 A 
ATOM     20  C   UNL d   1      32.212  16.410 -23.004  0.00  0.00     0.000 A 
ENDBRANCH   5  15
BRANCH   1  21
ATOM     21  C   UNL d   1      32.324  17.849 -24.578  0.00  0.00     0.304 C 
ATOM     22  O   UNL d   1      32.785  17.461 -25.096  0.00  0.00    -0.259 OA
BRANCH  21  23
ATOM     23  O   UNL d   1      32.612  18.491 -24.158  0.00  0.00    -0.271 OA
BRANCH  23  24
ATOM     24  C   UNL d   1      33.093  18.836 -24.407  0.00  0.00     0.126 C 
ATOM     25  C   UNL d   1      33.227  19.643 -24.186  0.00  0.00     0.029 C 
ENDBRANCH  23  24
ENDBRANCH  21  23
ENDBRANCH   1  21
TORSDOF 4
ENDMDL
MODEL 2
REMARK VINA RESULT:      -1.4      0.884      3.198
REMARK  4 active torsions:
REMARK  status: ('A' for Active; 'I' for Inactive)
REMARK    1  A    between atoms: C_8  and  C_1 
REMARK    2  A    between atoms: C_14  and  C_5 
REMARK    3  A    between atoms: O_16  and  C_8 
REMARK    4  A    between atoms: C_21  and  O_16 
ROOT
ATOM      1  C   UNL d   1      30.871  17.025 -24.586  0.00  0.00     0.106 A 
ATOM      2  C   UNL d   1      30.374  17.610 -24.888  0.00  0.00     0.208 A 
ATOM      3  C   UNL d   1      31.959  17.964 -24.560  0.00  0.00     0.061 A 
ATOM      4  C   UNL d   1      31.461  18.549 -24.862  0.00  0.00     0.101 A 
ATOM      5  C   UNL d   1      31.676  17.204 -24.419  0.00  0.00     0.014 A 
ATOM      6  O   UNL d   1      30.678  18.377 -25.025  0.00  0.00    -0.288 OA
ATOM      7  C   UNL d   1      32.741  18.124 -24.394  0.00  0.00     0.194 A 
ATOM      8  C   UNL d   1      31.742  19.297 -24.999  0.00  0.00     0.002 A 
ATOM      9  C   UNL d   1      32.521  19.465 -24.837  0.00  0.00     0.042 A 
ATOM     10  C   UNL d   1      33.019  18.881 -24.535  0.00  0.00     0.019 A 
ATOM     11  O   UNL d   1      33.236  17.543 -24.094  0.00  0.00    -0.287 OA
ATOM     12  N   UNL d   1      29.575  17.424 -25.051  0.00  0.00    -0.121 N 
ATOM     13  C   UNL d   1      33.241  19.862 -24.755  0.00  0.00     0.009 C 
ATOM     14  C   UNL d   1      32.399  20.257 -25.096  0.00  0.00     0.009 C 
ENDROOT
BRANCH   5  15
ATOM     15  C   UNL d   1      32.171  16.623 -24.120  0.00  0.00     0.000 A 
ATOM     16  C   UNL d   1      32.562  16.109 -24.626  0.00  0.00     0.000 A 
ATOM     17  C   UNL d   1      33.057  15.530 -24.295  0.00  0.00     0.000 A 
ATOM     18  C   UNL d   1      33.166  15.457 -23.495  0.00  0.00     0.000 A 
ATOM     19  C   UNL d   1      32.778  15.968 -22.987  0.00  0.00     0.000 A 
ATOM     20  C   UNL d   1      32.277  16.556 -23.290  0.00  0.00     0.000 A 
ENDBRANCH   5  15
BRANCH   1  21
ATOM     21  C   UNL d   1      30.573  16.251 -24.446  0.00  0.00     0.304 C 
ATOM     22  O   UNL d   1      30.816  15.644 -24.898  0.00  0.00    -0.259 OA
BRANCH  21  23
ATOM     23  O   UNL d   1      30.034  16.134 -23.841  0.00  0.00    -0.271 OA
BRANCH  23  24
ATOM     24  C   UNL d   1      29.744  15.564 -23.787  0.00  0.00     0.126 C 
ATOM     25  C   UNL d   1      29.028  15.464 -23.346  0.00  0.00     0.029 C 
ENDBRANCH  23  24
ENDBRANCH  21  23
ENDBRANCH   1  21
TORSDOF 4
ENDMDL
