MODEL 1
REMARK VINA RESULT:      78.2      0.000      0.000
REMARK  2 active torsions:
REMARK  status: ('A' for Active; 'I' for Inactive)
REMARK       I    between atoms: N_3  and  C_1 
REMARK       I    between atoms: N_4  and  C_1 
REMARK       I    between atoms: C_2  and  N_5 
REMARK       I    between atoms: N_6  and  C_2 
REMARK    1  A    between atoms: C_13  and  N_4 
REMARK    2  A    between atoms: C_14  and  N_4 
ROOT
ATOM      1  C   UNL d   1     -51.988  25.858  33.444  0.00  0.00     0.339 C 
ATOM      2  C   UNL d   1     -49.425  27.934  33.512  0.00  0.00     0.340 C 
ATOM      3  N   UNL d   1     -51.338  26.386  33.461  0.00  0.00    -0.254 N 
ATOM      4  N   UNL d   1     -51.860  25.046  33.397  0.00  0.00    -0.260 N 
ATOM      5  N   UNL d   1     -50.067  27.418  33.495  0.00  0.00    -0.254 N 
ATOM      6  N   UNL d   1     -49.550  28.748  33.559  0.00  0.00    -0.253 N 
ATOM      7  O   UNL d   1     -52.763  26.156  33.475  0.00  0.00    -0.245 OA
ATOM      8  O   UNL d   1     -48.661  27.637  33.482  0.00  0.00    -0.245 OA
ATOM      9  C   UNL d   1     -51.487  27.208  33.509  0.00  0.00     0.104 A 
ATOM     10  C   UNL d   1     -50.581  26.095  33.431  0.00  0.00     0.104 A 
ATOM     11  C   UNL d   1     -49.944  26.612  33.448  0.00  0.00     0.104 A 
ATOM     12  C   UNL d   1     -50.849  27.725  33.526  0.00  0.00     0.104 A 
ATOM     13  O   UNL d   1     -49.798  30.380  33.654  0.00  0.00    -0.300 OA
ATOM     14  C   UNL d   1     -48.905  29.262  33.576  0.00  0.00     0.111 A 
ATOM     15  C   UNL d   1     -50.322  29.044  33.590  0.00  0.00     0.111 A 
ATOM     16  C   UNL d   1     -50.441  29.863  33.637  0.00  0.00     0.142 A 
ATOM     17  C   UNL d   1     -49.024  30.076  33.623  0.00  0.00     0.142 A 
ENDROOT
BRANCH   4  18
ATOM     18  C   UNL d   1     -52.506  24.521  33.380  0.00  0.00     0.068 A 
ATOM     19  C   UNL d   1     -53.281  24.823  33.327  0.00  0.00     0.018 A 
ATOM     20  C   UNL d   1     -53.922  24.303  33.310  0.00  0.00     0.002 A 
ATOM     21  C   UNL d   1     -53.792  23.488  33.345  0.00  0.00     0.000 A 
ATOM     22  C   UNL d   1     -53.019  23.188  33.397  0.00  0.00     0.002 A 
ATOM     23  C   UNL d   1     -52.379  23.708  33.414  0.00  0.00     0.018 A 
ENDBRANCH   4  18
BRANCH   4  24
ATOM     24  C   UNL d   1     -51.097  24.749  33.366  0.00  0.00     0.068 A 
ATOM     25  C   UNL d   1     -50.966  23.936  33.342  0.00  0.00     0.018 A 
ATOM     26  C   UNL d   1     -50.203  23.651  33.312  0.00  0.00     0.002 A 
ATOM     27  C   UNL d   1     -49.558  24.165  33.306  0.00  0.00     0.000 A 
ATOM     28  C   UNL d   1     -49.693  24.985  33.331  0.00  0.00     0.002 A 
ATOM     29  C   UNL d   1     -50.462  25.276  33.361  0.00  0.00     0.018 A 
ENDBRANCH   4  24
TORSDOF 2
ENDMDL
