MODEL 1
REMARK VINA RESULT:      36.1      0.000      0.000
REMARK  7 active torsions:
REMARK  status: ('A' for Active; 'I' for Inactive)
REMARK    1  A    between atoms: C_6  and  C_1 
REMARK    2  A    between atoms: O_18  and  C_6 
REMARK    3  A    between atoms: C_7  and  C_11 
REMARK    4  A    between atoms: O_19  and  C_7 
REMARK    5  A    between atoms: O_10  and  C_12 
REMARK    6  A    between atoms: C_11  and  O_10 
REMARK    7  A    between atoms: C_21  and  O_18 
ROOT
ATOM      1  C   UNL d   1      13.477  12.682  -3.240  0.00  0.00     0.081 A 
ATOM      2  C   UNL d   1      13.123  12.495  -3.963  0.00  0.00     0.069 A 
ATOM      3  N   UNL d   1      13.188  13.152  -4.450  0.00  0.00    -0.304 N 
ATOM      4  C   UNL d   1      13.758  13.449  -3.283  0.00  0.00     0.025 A 
ATOM      5  C   UNL d   1      13.579  13.739  -4.032  0.00  0.00     0.064 A 
ATOM      6  C   UNL d   1      13.795  14.505  -4.239  0.00  0.00     0.020 A 
ATOM      7  C   UNL d   1      14.152  13.923  -2.742  0.00  0.00     0.026 A 
ATOM      8  C   UNL d   1      14.370  14.698  -2.953  0.00  0.00     0.100 A 
ATOM      9  C   UNL d   1      14.193  14.986  -3.695  0.00  0.00     0.026 A 
ATOM     10  C   UNL d   1      12.769  11.779  -4.161  0.00  0.00     0.019 C 
ATOM     11  C   UNL d   1      12.906  13.207  -5.230  0.00  0.00     0.099 C 
ENDROOT
BRANCH   8  12
ATOM     12  O   UNL d   1      14.769  15.173  -2.404  0.00  0.00    -0.302 OA
BRANCH  12  13
ATOM     13  C   UNL d   1      14.608  15.981  -2.381  0.00  0.00     0.163 C 
ATOM     14  C   UNL d   1      14.081  16.317  -2.925  0.00  0.00     0.032 C 
BRANCH  13  15
ATOM     15  C   UNL d   1      14.973  16.459  -1.815  0.00  0.00     0.319 C 
ATOM     16  O   UNL d   1      15.368  17.150  -2.041  0.00  0.00    -0.257 OA
BRANCH  15  17
ATOM     17  O   UNL d   1      14.948  16.254  -1.019  0.00  0.00    -0.294 OA
ATOM     18  C   UNL d   1      15.495  16.578  -0.493  0.00  0.00     0.185 C 
ENDBRANCH  15  17
ENDBRANCH  13  15
ENDBRANCH  12  13
ENDBRANCH   8  12
BRANCH   1  19
ATOM     19  C   UNL d   1      13.538  12.181  -2.585  0.00  0.00     0.302 C 
ATOM     20  O   UNL d   1      12.858  11.820  -2.284  0.00  0.00    -0.259 OA
BRANCH  19  21
ATOM     21  O   UNL d   1      14.267  12.041  -2.236  0.00  0.00    -0.271 OA
BRANCH  21  22
ATOM     22  C   UNL d   1      14.307  11.820  -1.443  0.00  0.00     0.126 C 
ATOM     23  C   UNL d   1      15.038  11.779  -1.064  0.00  0.00     0.029 C 
ENDBRANCH  21  22
ENDBRANCH  19  21
ENDBRANCH   1  19
TORSDOF 7
ENDMDL
MODEL 2
REMARK VINA RESULT:      36.7      0.944      3.281
REMARK  7 active torsions:
REMARK  status: ('A' for Active; 'I' for Inactive)
REMARK    1  A    between atoms: C_6  and  C_1 
REMARK    2  A    between atoms: O_18  and  C_6 
REMARK    3  A    between atoms: C_7  and  C_11 
REMARK    4  A    between atoms: O_19  and  C_7 
REMARK    5  A    between atoms: O_10  and  C_12 
REMARK    6  A    between atoms: C_11  and  O_10 
REMARK    7  A    between atoms: C_21  and  O_18 
ROOT
ATOM      1  C   UNL d   1      13.891  14.589  -3.532  0.00  0.00     0.081 A 
ATOM      2  C   UNL d   1      13.497  14.725  -4.246  0.00  0.00     0.069 A 
ATOM      3  N   UNL d   1      13.203  14.006  -4.510  0.00  0.00    -0.304 N 
ATOM      4  C   UNL d   1      13.840  13.792  -3.360  0.00  0.00     0.025 A 
ATOM      5  C   UNL d   1      13.415  13.432  -3.965  0.00  0.00     0.064 A 
ATOM      6  C   UNL d   1      13.273  12.622  -3.943  0.00  0.00     0.020 A 
ATOM      7  C   UNL d   1      14.124  13.344  -2.733  0.00  0.00     0.026 A 
ATOM      8  C   UNL d   1      13.979  12.525  -2.713  0.00  0.00     0.100 A 
ATOM      9  C   UNL d   1      13.558  12.168  -3.312  0.00  0.00     0.026 A 
ATOM     10  C   UNL d   1      13.412  15.451  -4.625  0.00  0.00     0.019 C 
ATOM     11  C   UNL d   1      12.769  13.887  -5.208  0.00  0.00     0.099 C 
ENDROOT
BRANCH   8  12
ATOM     12  O   UNL d   1      14.267  12.076  -2.078  0.00  0.00    -0.302 OA
BRANCH  12  13
ATOM     13  C   UNL d   1      13.807  12.002  -1.398  0.00  0.00     0.163 C 
ATOM     14  C   UNL d   1      13.011  11.781  -1.456  0.00  0.00     0.032 C 
BRANCH  13  15
ATOM     15  C   UNL d   1      14.140  12.147  -0.656  0.00  0.00     0.319 C 
ATOM     16  O   UNL d   1      13.662  12.375  -0.020  0.00  0.00    -0.257 OA
BRANCH  15  17
ATOM     17  O   UNL d   1      14.950  12.067  -0.541  0.00  0.00    -0.294 OA
ATOM     18  C   UNL d   1      15.376  12.675  -0.182  0.00  0.00     0.185 C 
ENDBRANCH  15  17
ENDBRANCH  13  15
ENDBRANCH  12  13
ENDBRANCH   8  12
BRANCH   1  19
ATOM     19  C   UNL d   1      14.272  15.161  -3.072  0.00  0.00     0.302 C 
ATOM     20  O   UNL d   1      14.668  15.785  -3.442  0.00  0.00    -0.259 OA
BRANCH  19  21
ATOM     21  O   UNL d   1      14.258  15.111  -2.253  0.00  0.00    -0.271 OA
BRANCH  21  22
ATOM     22  C   UNL d   1      14.906  15.369  -1.814  0.00  0.00     0.126 C 
ATOM     23  C   UNL d   1      14.820  15.997  -1.287  0.00  0.00     0.029 C 
ENDBRANCH  21  22
ENDBRANCH  19  21
ENDBRANCH   1  19
TORSDOF 7
ENDMDL
MODEL 3
REMARK VINA RESULT:      36.7      1.448      2.797
REMARK  7 active torsions:
REMARK  status: ('A' for Active; 'I' for Inactive)
REMARK    1  A    between atoms: C_6  and  C_1 
REMARK    2  A    between atoms: O_18  and  C_6 
REMARK    3  A    between atoms: C_7  and  C_11 
REMARK    4  A    between atoms: O_19  and  C_7 
REMARK    5  A    between atoms: O_10  and  C_12 
REMARK    6  A    between atoms: C_11  and  O_10 
REMARK    7  A    between atoms: C_21  and  O_18 
ROOT
ATOM      1  C   UNL d   1      14.242  13.241  -1.903  0.00  0.00     0.081 A 
ATOM      2  C   UNL d   1      14.405  12.464  -1.670  0.00  0.00     0.069 A 
ATOM      3  N   UNL d   1      14.796  12.498  -0.949  0.00  0.00    -0.304 N 
ATOM      4  C   UNL d   1      14.531  13.746  -1.330  0.00  0.00     0.025 A 
ATOM      5  C   UNL d   1      14.874  13.286  -0.740  0.00  0.00     0.064 A 
ATOM      6  C   UNL d   1      15.215  13.645  -0.084  0.00  0.00     0.020 A 
ATOM      7  C   UNL d   1      14.530  14.565  -1.265  0.00  0.00     0.026 A 
ATOM      8  C   UNL d   1      14.876  14.926  -0.600  0.00  0.00     0.100 A 
ATOM      9  C   UNL d   1      15.215  14.471  -0.015  0.00  0.00     0.026 A 
ATOM     10  C   UNL d   1      14.210  11.780  -2.084  0.00  0.00     0.019 C 
ATOM     11  C   UNL d   1      15.063  11.843  -0.513  0.00  0.00     0.099 C 
ENDROOT
BRANCH   8  12
ATOM     12  O   UNL d   1      14.872  15.753  -0.538  0.00  0.00    -0.302 OA
BRANCH  12  13
ATOM     13  C   UNL d   1      15.438  16.188  -0.950  0.00  0.00     0.163 C 
ATOM     14  C   UNL d   1      16.244  16.026  -0.849  0.00  0.00     0.032 C 
BRANCH  13  15
ATOM     15  C   UNL d   1      15.202  16.788  -1.465  0.00  0.00     0.319 C 
ATOM     16  O   UNL d   1      14.585  17.299  -1.258  0.00  0.00    -0.257 OA
BRANCH  15  17
ATOM     17  O   UNL d   1      15.576  16.886  -2.190  0.00  0.00    -0.294 OA
ATOM     18  C   UNL d   1      15.129  17.016  -2.871  0.00  0.00     0.185 C 
ENDBRANCH  15  17
ENDBRANCH  13  15
ENDBRANCH  12  13
ENDBRANCH   8  12
BRANCH   1  19
ATOM     19  C   UNL d   1      13.854  13.467  -2.598  0.00  0.00     0.302 C 
ATOM     20  O   UNL d   1      13.439  14.182  -2.618  0.00  0.00    -0.259 OA
BRANCH  19  21
ATOM     21  O   UNL d   1      13.880  12.987  -3.262  0.00  0.00    -0.271 OA
BRANCH  21  22
ATOM     22  C   UNL d   1      13.365  13.128  -3.891  0.00  0.00     0.126 C 
ATOM     23  C   UNL d   1      13.296  12.573  -4.497  0.00  0.00     0.029 C 
ENDBRANCH  21  22
ENDBRANCH  19  21
ENDBRANCH   1  19
TORSDOF 7
ENDMDL
MODEL 4
REMARK VINA RESULT:      38.8      1.484      2.701
REMARK  7 active torsions:
REMARK  status: ('A' for Active; 'I' for Inactive)
REMARK    1  A    between atoms: C_6  and  C_1 
REMARK    2  A    between atoms: O_18  and  C_6 
REMARK    3  A    between atoms: C_7  and  C_11 
REMARK    4  A    between atoms: O_19  and  C_7 
REMARK    5  A    between atoms: O_10  and  C_12 
REMARK    6  A    between atoms: C_11  and  O_10 
REMARK    7  A    between atoms: C_21  and  O_18 
ROOT
ATOM      1  C   UNL d   1      14.206  12.821  -1.789  0.00  0.00     0.081 A 
ATOM      2  C   UNL d   1      14.549  12.548  -1.088  0.00  0.00     0.069 A 
ATOM      3  N   UNL d   1      14.930  13.182  -0.734  0.00  0.00    -0.304 N 
ATOM      4  C   UNL d   1      14.377  13.616  -1.865  0.00  0.00     0.025 A 
ATOM      5  C   UNL d   1      14.825  13.840  -1.212  0.00  0.00     0.064 A 
ATOM      6  C   UNL d   1      15.081  14.617  -1.134  0.00  0.00     0.020 A 
ATOM      7  C   UNL d   1      14.185  14.169  -2.440  0.00  0.00     0.026 A 
ATOM      8  C   UNL d   1      14.445  14.956  -2.360  0.00  0.00     0.100 A 
ATOM      9  C   UNL d   1      14.889  15.177  -1.713  0.00  0.00     0.026 A 
ATOM     10  C   UNL d   1      14.514  11.779  -0.796  0.00  0.00     0.019 C 
ATOM     11  C   UNL d   1      15.349  13.156  -0.017  0.00  0.00     0.099 C 
ENDROOT
BRANCH   8  12
ATOM     12  O   UNL d   1      14.249  15.510  -2.944  0.00  0.00    -0.302 OA
BRANCH  12  13
ATOM     13  C   UNL d   1      14.727  16.175  -3.042  0.00  0.00     0.163 C 
ATOM     14  C   UNL d   1      15.033  16.570  -2.381  0.00  0.00     0.032 C 
BRANCH  13  15
ATOM     15  C   UNL d   1      14.902  16.448  -3.801  0.00  0.00     0.319 C 
ATOM     16  O   UNL d   1      14.741  15.978  -4.463  0.00  0.00    -0.257 OA
BRANCH  15  17
ATOM     17  O   UNL d   1      15.239  17.190  -3.909  0.00  0.00    -0.294 OA
ATOM     18  C   UNL d   1      15.245  17.535  -4.659  0.00  0.00     0.185 C 
ENDBRANCH  15  17
ENDBRANCH  13  15
ENDBRANCH  12  13
ENDBRANCH   8  12
BRANCH   1  19
ATOM     19  C   UNL d   1      13.767  12.367  -2.323  0.00  0.00     0.302 C 
ATOM     20  O   UNL d   1      13.210  11.827  -2.037  0.00  0.00    -0.259 OA
BRANCH  19  21
ATOM     21  O   UNL d   1      13.882  12.450  -3.131  0.00  0.00    -0.271 OA
BRANCH  21  22
ATOM     22  C   UNL d   1      13.295  12.206  -3.657  0.00  0.00     0.126 C 
ATOM     23  C   UNL d   1      13.500  11.779  -4.331  0.00  0.00     0.029 C 
ENDBRANCH  21  22
ENDBRANCH  19  21
ENDBRANCH   1  19
TORSDOF 7
ENDMDL
MODEL 5
REMARK VINA RESULT:      38.9      1.730      4.500
REMARK  7 active torsions:
REMARK  status: ('A' for Active; 'I' for Inactive)
REMARK    1  A    between atoms: C_6  and  C_1 
REMARK    2  A    between atoms: O_18  and  C_6 
REMARK    3  A    between atoms: C_7  and  C_11 
REMARK    4  A    between atoms: O_19  and  C_7 
REMARK    5  A    between atoms: O_10  and  C_12 
REMARK    6  A    between atoms: C_11  and  O_10 
REMARK    7  A    between atoms: C_21  and  O_18 
ROOT
ATOM      1  C   UNL d   1      14.806  15.737  -1.855  0.00  0.00     0.081 A 
ATOM      2  C   UNL d   1      15.207  16.391  -1.545  0.00  0.00     0.069 A 
ATOM      3  N   UNL d   1      15.492  16.181  -0.805  0.00  0.00    -0.304 N 
ATOM      4  C   UNL d   1      14.845  15.131  -1.308  0.00  0.00     0.025 A 
ATOM      5  C   UNL d   1      15.270  15.406  -0.659  0.00  0.00     0.064 A 
ATOM      6  C   UNL d   1      15.401  14.913  -0.014  0.00  0.00     0.020 A 
ATOM      7  C   UNL d   1      14.551  14.364  -1.313  0.00  0.00     0.026 A 
ATOM      8  C   UNL d   1      14.685  13.867  -0.659  0.00  0.00     0.100 A 
ATOM      9  C   UNL d   1      15.106  14.139  -0.016  0.00  0.00     0.026 A 
ATOM     10  C   UNL d   1      15.303  17.121  -1.912  0.00  0.00     0.019 C 
ATOM     11  C   UNL d   1      15.929  16.672  -0.298  0.00  0.00     0.099 C 
ENDROOT
BRANCH   8  12
ATOM     12  O   UNL d   1      14.387  13.094  -0.668  0.00  0.00    -0.302 OA
BRANCH  12  13
ATOM     13  C   UNL d   1      14.652  12.569  -1.246  0.00  0.00     0.163 C 
ATOM     14  C   UNL d   1      15.449  12.564  -1.472  0.00  0.00     0.032 C 
BRANCH  13  15
ATOM     15  C   UNL d   1      14.122  12.044  -1.601  0.00  0.00     0.319 C 
ATOM     16  O   UNL d   1      13.455  11.779  -1.189  0.00  0.00    -0.257 OA
BRANCH  15  17
ATOM     17  O   UNL d   1      14.250  11.779  -2.368  0.00  0.00    -0.294 OA
ATOM     18  C   UNL d   1      13.641  11.813  -2.923  0.00  0.00     0.185 C 
ENDBRANCH  15  17
ENDBRANCH  13  15
ENDBRANCH  12  13
ENDBRANCH   8  12
BRANCH   1  19
ATOM     19  C   UNL d   1      14.430  15.702  -2.590  0.00  0.00     0.302 C 
ATOM     20  O   UNL d   1      13.683  15.353  -2.650  0.00  0.00    -0.259 OA
BRANCH  19  21
ATOM     21  O   UNL d   1      14.794  16.012  -3.257  0.00  0.00    -0.271 OA
BRANCH  21  22
ATOM     22  C   UNL d   1      14.429  15.945  -3.994  0.00  0.00     0.126 C 
ATOM     23  C   UNL d   1      14.865  16.076  -4.681  0.00  0.00     0.029 C 
ENDBRANCH  21  22
ENDBRANCH  19  21
ENDBRANCH   1  19
TORSDOF 7
ENDMDL
