MODEL 1
REMARK VINA RESULT:      -3.9      0.000      0.000
REMARK  2 active torsions:
REMARK  status: ('A' for Active; 'I' for Inactive)
REMARK    1  A    between atoms: O_3  and  C_1 
REMARK    2  A    between atoms: C_2  and  O_3 
REMARK       I    between atoms: N_7  and  C_2 
ROOT
ATOM      1  C   UNL d   1      58.669   0.681  30.258  0.00  0.00     0.129 A 
ATOM      2  C   UNL d   1      59.465   0.681  30.475  0.00  0.00     0.105 A 
ATOM      3  C   UNL d   1      60.057   0.681  29.912  0.00  0.00     0.026 A 
ATOM      4  C   UNL d   1      58.483   0.682  29.445  0.00  0.00     0.059 A 
ATOM      5  C   UNL d   1      59.866   0.682  29.117  0.00  0.00     0.037 A 
ATOM      6  C   UNL d   1      59.066   0.682  28.889  0.00  0.00     0.015 A 
ATOM      7  N   UNL d   1      59.656   0.681  31.284  0.00  0.00    -0.242 NA
ATOM      8 BR   UNL d   1      57.704   0.682  29.187  0.00  0.00    -0.047 Br
ATOM      9 BR   UNL d   1      60.474   0.682  28.537  0.00  0.00    -0.049 Br
ATOM     10  C   UNL d   1      60.842   0.681  30.141  0.00  0.00     0.004 A 
ATOM     11  C   UNL d   1      60.448   0.681  31.517  0.00  0.00     0.099 A 
ATOM     12  C   UNL d   1      61.045   0.681  30.948  0.00  0.00     0.021 A 
ENDROOT
BRANCH   1  13
ATOM     13  O   UNL d   1      58.070   0.681  30.828  0.00  0.00    -0.257 OA
BRANCH  13  14
ATOM     14  C   UNL d   1      57.693   0.002  30.988  0.00  0.00     0.378 C 
ATOM     15  N   UNL d   1      57.147  -0.024  31.653  0.00  0.00    -0.252 N 
ATOM     16  C   UNL d   1      57.021   0.630  32.108  0.00  0.00     0.085 A 
ATOM     17  C   UNL d   1      56.745  -0.738  31.827  0.00  0.00     0.085 A 
ATOM     18  C   UNL d   1      56.492   0.605  32.752  0.00  0.00     0.019 A 
ATOM     19  C   UNL d   1      56.092  -0.075  32.938  0.00  0.00     0.003 A 
ATOM     20  C   UNL d   1      56.229  -0.763  32.456  0.00  0.00     0.019 A 
ATOM     21  O   UNL d   1      57.815  -0.655  30.537  0.00  0.00    -0.237 OA
ENDBRANCH  13  14
ENDBRANCH   1  13
TORSDOF 2
ENDMDL
MODEL 2
REMARK VINA RESULT:      -3.4      1.093      1.803
REMARK  2 active torsions:
REMARK  status: ('A' for Active; 'I' for Inactive)
REMARK    1  A    between atoms: O_3  and  C_1 
REMARK    2  A    between atoms: C_2  and  O_3 
REMARK       I    between atoms: N_7  and  C_2 
ROOT
ATOM      1  C   UNL d   1      58.399   0.676  30.982  0.00  0.00     0.129 A 
ATOM      2  C   UNL d   1      58.415   0.675  30.156  0.00  0.00     0.105 A 
ATOM      3  C   UNL d   1      59.123   0.677  29.749  0.00  0.00     0.026 A 
ATOM      4  C   UNL d   1      59.126   0.679  31.390  0.00  0.00     0.059 A 
ATOM      5  C   UNL d   1      59.831   0.680  30.157  0.00  0.00     0.037 A 
ATOM      6  C   UNL d   1      59.824   0.681  30.988  0.00  0.00     0.015 A 
ATOM      7  N   UNL d   1      57.693   0.672  29.744  0.00  0.00    -0.242 NA
ATOM      8 BR   UNL d   1      59.152   0.681  32.210  0.00  0.00    -0.047 Br
ATOM      9 BR   UNL d   1      60.560   0.682  29.737  0.00  0.00    -0.049 Br
ATOM     10  C   UNL d   1      59.125   0.676  28.930  0.00  0.00     0.004 A 
ATOM     11  C   UNL d   1      57.694   0.671  28.919  0.00  0.00     0.099 A 
ATOM     12  C   UNL d   1      58.409   0.673  28.508  0.00  0.00     0.021 A 
ENDROOT
BRANCH   1  13
ATOM     13  O   UNL d   1      57.682   0.675  31.394  0.00  0.00    -0.257 OA
BRANCH  13  14
ATOM     14  C   UNL d   1      57.377  -0.018  31.630  0.00  0.00     0.378 C 
ATOM     15  N   UNL d   1      56.710  -0.016  32.175  0.00  0.00    -0.252 N 
ATOM     16  C   UNL d   1      56.399   0.679  32.442  0.00  0.00     0.085 A 
ATOM     17  C   UNL d   1      56.383  -0.744  32.428  0.00  0.00     0.085 A 
ATOM     18  C   UNL d   1      55.754   0.682  32.969  0.00  0.00     0.019 A 
ATOM     19  C   UNL d   1      55.422  -0.011  33.227  0.00  0.00     0.003 A 
ATOM     20  C   UNL d   1      55.752  -0.742  32.943  0.00  0.00     0.019 A 
ATOM     21  O   UNL d   1      57.683  -0.716  31.367  0.00  0.00    -0.237 OA
ENDBRANCH  13  14
ENDBRANCH   1  13
TORSDOF 2
ENDMDL
MODEL 3
REMARK VINA RESULT:      -2.6      1.530      2.089
REMARK  2 active torsions:
REMARK  status: ('A' for Active; 'I' for Inactive)
REMARK    1  A    between atoms: O_3  and  C_1 
REMARK    2  A    between atoms: C_2  and  O_3 
REMARK       I    between atoms: N_7  and  C_2 
ROOT
ATOM      1  C   UNL d   1      58.548  -0.558  30.344  0.00  0.00     0.129 A 
ATOM      2  C   UNL d   1      58.609  -1.111  29.734  0.00  0.00     0.105 A 
ATOM      3  C   UNL d   1      59.147  -1.010  29.127  0.00  0.00     0.026 A 
ATOM      4  C   UNL d   1      59.051   0.107  30.326  0.00  0.00     0.059 A 
ATOM      5  C   UNL d   1      59.636  -0.355  29.116  0.00  0.00     0.037 A 
ATOM      6  C   UNL d   1      59.581   0.206  29.727  0.00  0.00     0.015 A 
ATOM      7  N   UNL d   1      58.111  -1.776  29.748  0.00  0.00    -0.242 NA
ATOM      8 BR   UNL d   1      59.021   0.679  30.914  0.00  0.00    -0.047 Br
ATOM      9 BR   UNL d   1      60.189  -0.252  28.491  0.00  0.00    -0.049 Br
ATOM     10  C   UNL d   1      59.197  -1.565  28.528  0.00  0.00     0.004 A 
ATOM     11  C   UNL d   1      58.161  -2.336  29.145  0.00  0.00     0.099 A 
ATOM     12  C   UNL d   1      58.703  -2.235  28.532  0.00  0.00     0.021 A 
ENDROOT
BRANCH   1  13
ATOM     13  O   UNL d   1      58.004  -0.660  30.959  0.00  0.00    -0.257 OA
BRANCH  13  14
ATOM     14  C   UNL d   1      57.420  -0.131  31.046  0.00  0.00     0.378 C 
ATOM     15  N   UNL d   1      56.867  -0.224  31.699  0.00  0.00    -0.252 N 
ATOM     16  C   UNL d   1      56.940  -0.840  32.215  0.00  0.00     0.085 A 
ATOM     17  C   UNL d   1      56.247   0.331  31.796  0.00  0.00     0.085 A 
ATOM     18  C   UNL d   1      56.405  -0.931  32.847  0.00  0.00     0.019 A 
ATOM     19  C   UNL d   1      55.798  -0.405  32.960  0.00  0.00     0.003 A 
ATOM     20  C   UNL d   1      55.724   0.243  32.413  0.00  0.00     0.019 A 
ATOM     21  O   UNL d   1      57.342   0.487  30.533  0.00  0.00    -0.237 OA
ENDBRANCH  13  14
ENDBRANCH   1  13
TORSDOF 2
ENDMDL
MODEL 4
REMARK VINA RESULT:      -2.3      2.592      5.110
REMARK  2 active torsions:
REMARK  status: ('A' for Active; 'I' for Inactive)
REMARK    1  A    between atoms: O_3  and  C_1 
REMARK    2  A    between atoms: C_2  and  O_3 
REMARK       I    between atoms: N_7  and  C_2 
ROOT
ATOM      1  C   UNL d   1      56.426   0.675  33.738  0.00  0.00     0.129 A 
ATOM      2  C   UNL d   1      55.619   0.676  33.911  0.00  0.00     0.105 A 
ATOM      3  C   UNL d   1      55.354   0.678  34.684  0.00  0.00     0.026 A 
ATOM      4  C   UNL d   1      56.966   0.676  34.373  0.00  0.00     0.059 A 
ATOM      5  C   UNL d   1      55.889   0.680  35.301  0.00  0.00     0.037 A 
ATOM      6  C   UNL d   1      56.704   0.678  35.136  0.00  0.00     0.015 A 
ATOM      7  N   UNL d   1      55.077   0.675  33.281  0.00  0.00    -0.242 NA
ATOM      8 BR   UNL d   1      57.776   0.675  34.243  0.00  0.00    -0.047 Br
ATOM      9 BR   UNL d   1      55.616   0.682  36.097  0.00  0.00    -0.049 Br
ATOM     10  C   UNL d   1      54.551   0.680  34.842  0.00  0.00     0.004 A 
ATOM     11  C   UNL d   1      54.267   0.676  33.439  0.00  0.00     0.099 A 
ATOM     12  C   UNL d   1      53.999   0.679  34.219  0.00  0.00     0.021 A 
ENDROOT
BRANCH   1  13
ATOM     13  O   UNL d   1      56.694   0.673  32.956  0.00  0.00    -0.257 OA
BRANCH  13  14
ATOM     14  C   UNL d   1      56.844  -0.022  32.603  0.00  0.00     0.378 C 
ATOM     15  N   UNL d   1      57.193  -0.023  31.816  0.00  0.00    -0.252 N 
ATOM     16  C   UNL d   1      57.365   0.670  31.442  0.00  0.00     0.085 A 
ATOM     17  C   UNL d   1      57.353  -0.754  31.439  0.00  0.00     0.085 A 
ATOM     18  C   UNL d   1      57.702   0.669  30.680  0.00  0.00     0.019 A 
ATOM     19  C   UNL d   1      57.866  -0.026  30.295  0.00  0.00     0.003 A 
ATOM     20  C   UNL d   1      57.683  -0.755  30.694  0.00  0.00     0.019 A 
ATOM     21  O   UNL d   1      56.674  -0.718  32.973  0.00  0.00    -0.237 OA
ENDBRANCH  13  14
ENDBRANCH   1  13
TORSDOF 2
ENDMDL
MODEL 5
REMARK VINA RESULT:      -1.3      9.187     10.178
REMARK  2 active torsions:
REMARK  status: ('A' for Active; 'I' for Inactive)
REMARK    1  A    between atoms: O_3  and  C_1 
REMARK    2  A    between atoms: C_2  and  O_3 
REMARK       I    between atoms: N_7  and  C_2 
ROOT
ATOM      1  C   UNL d   1      59.680  -8.790  34.687  0.00  0.00     0.129 A 
ATOM      2  C   UNL d   1      59.445  -8.074  35.022  0.00  0.00     0.105 A 
ATOM      3  C   UNL d   1      59.921  -7.684  35.560  0.00  0.00     0.026 A 
ATOM      4  C   UNL d   1      60.418  -9.108  34.911  0.00  0.00     0.059 A 
ATOM      5  C   UNL d   1      60.643  -8.001  35.774  0.00  0.00     0.037 A 
ATOM      6  C   UNL d   1      60.887  -8.723  35.441  0.00  0.00     0.015 A 
ATOM      7  N   UNL d   1      58.710  -7.754  34.802  0.00  0.00    -0.242 NA
ATOM      8 BR   UNL d   1      60.688  -9.817  34.600  0.00  0.00    -0.047 Br
ATOM      9 BR   UNL d   1      61.133  -7.600  36.327  0.00  0.00    -0.049 Br
ATOM     10  C   UNL d   1      59.676  -6.974  35.885  0.00  0.00     0.004 A 
ATOM     11  C   UNL d   1      58.462  -7.038  35.129  0.00  0.00     0.099 A 
ATOM     12  C   UNL d   1      58.943  -6.644  35.672  0.00  0.00     0.021 A 
ENDROOT
BRANCH   1  13
ATOM     13  O   UNL d   1      59.198  -9.185  34.143  0.00  0.00    -0.257 OA
BRANCH  13  14
ATOM     14  C   UNL d   1      59.459  -9.286  33.401  0.00  0.00     0.378 C 
ATOM     15  N   UNL d   1      58.891  -9.467  32.780  0.00  0.00    -0.252 N 
ATOM     16  C   UNL d   1      58.105  -9.534  32.949  0.00  0.00     0.085 A 
ATOM     17  C   UNL d   1      59.161  -9.575  31.994  0.00  0.00     0.085 A 
ATOM     18  C   UNL d   1      57.556  -9.710  32.348  0.00  0.00     0.019 A 
ATOM     19  C   UNL d   1      57.794  -9.818  31.580  0.00  0.00     0.003 A 
ATOM     20  C   UNL d   1      58.624  -9.746  31.407  0.00  0.00     0.019 A 
ATOM     21  O   UNL d   1      60.244  -9.220  33.226  0.00  0.00    -0.237 OA
ENDBRANCH  13  14
ENDBRANCH   1  13
TORSDOF 2
ENDMDL
MODEL 6
REMARK VINA RESULT:      -1.3      2.286      4.495
REMARK  2 active torsions:
REMARK  status: ('A' for Active; 'I' for Inactive)
REMARK    1  A    between atoms: O_3  and  C_1 
REMARK    2  A    between atoms: C_2  and  O_3 
REMARK       I    between atoms: N_7  and  C_2 
ROOT
ATOM      1  C   UNL d   1      56.365   0.663  33.151  0.00  0.00     0.129 A 
ATOM      2  C   UNL d   1      56.676   0.669  33.915  0.00  0.00     0.105 A 
ATOM      3  C   UNL d   1      56.186   0.675  34.569  0.00  0.00     0.026 A 
ATOM      4  C   UNL d   1      55.536   0.663  33.062  0.00  0.00     0.059 A 
ATOM      5  C   UNL d   1      55.375   0.675  34.474  0.00  0.00     0.037 A 
ATOM      6  C   UNL d   1      55.053   0.669  33.707  0.00  0.00     0.015 A 
ATOM      7  N   UNL d   1      57.501   0.669  34.008  0.00  0.00    -0.242 NA
ATOM      8 BR   UNL d   1      55.187   0.656  32.319  0.00  0.00    -0.047 Br
ATOM      9 BR   UNL d   1      54.871   0.681  35.147  0.00  0.00    -0.049 Br
ATOM     10  C   UNL d   1      56.507   0.682  35.322  0.00  0.00     0.004 A 
ATOM     11  C   UNL d   1      57.827   0.676  34.767  0.00  0.00     0.099 A 
ATOM     12  C   UNL d   1      57.333   0.682  35.427  0.00  0.00     0.021 A 
ENDROOT
BRANCH   1  13
ATOM     13  O   UNL d   1      56.860   0.657  32.488  0.00  0.00    -0.257 OA
BRANCH  13  14
ATOM     14  C   UNL d   1      56.917  -0.007  32.057  0.00  0.00     0.378 C 
ATOM     15  N   UNL d   1      57.437  -0.015  31.372  0.00  0.00    -0.252 N 
ATOM     16  C   UNL d   1      57.862   0.640  31.170  0.00  0.00     0.085 A 
ATOM     17  C   UNL d   1      57.501  -0.713  30.912  0.00  0.00     0.085 A 
ATOM     18  C   UNL d   1      58.366   0.632  30.507  0.00  0.00     0.019 A 
ATOM     19  C   UNL d   1      58.444  -0.032  30.048  0.00  0.00     0.003 A 
ATOM     20  C   UNL d   1      57.993  -0.721  30.264  0.00  0.00     0.019 A 
ATOM     21  O   UNL d   1      56.494  -0.665  32.254  0.00  0.00    -0.237 OA
ENDBRANCH  13  14
ENDBRANCH   1  13
TORSDOF 2
ENDMDL
