MODEL 1
REMARK VINA RESULT:      -3.6      0.000      0.000
REMARK  4 active torsions:
REMARK  status: ('A' for Active; 'I' for Inactive)
REMARK    1  A    between atoms: C_2  and  C_1 
REMARK       I    between atoms: N_9  and  C_2 
REMARK    2  A    between atoms: C_16  and  N_9 
REMARK    3  A    between atoms: C_13  and  C_16 
REMARK    4  A    between atoms: O_17  and  C_13 
ROOT
ATOM      1  C   UNL d   1      30.636  17.086 -24.338  0.00  0.00     0.073 A 
ATOM      2  C   UNL d   1      30.558  15.925 -23.604  0.00  0.00     0.001 A 
ATOM      3  C   UNL d   1      29.424  16.974 -24.505  0.00  0.00     0.001 A 
ATOM      4  C   UNL d   1      29.426  16.457 -24.170  0.00  0.00     0.001 A 
ATOM      5  C   UNL d   1      29.777  17.484 -24.765  0.00  0.00     0.009 A 
ATOM      6  C   UNL d   1      30.989  16.523 -23.905  0.00  0.00     0.009 A 
ATOM      7  C   UNL d   1      29.851  17.055 -24.473  0.00  0.00     0.009 A 
ATOM      8  C   UNL d   1      28.696  16.760 -24.511  0.00  0.00     0.000 A 
ATOM      9  C   UNL d   1      29.892  16.227 -23.930  0.00  0.00     0.000 A 
ATOM     10  C   UNL d   1      29.779  15.894 -23.737  0.00  0.00     0.000 A 
ATOM     11  C   UNL d   1      29.306  15.754 -23.741  0.00  0.00     0.000 C 
ATOM     12  C   UNL d   1      29.293  17.649 -24.966  0.00  0.00     0.000 C 
ATOM     13  C   UNL d   1      31.108  15.453 -23.190  0.00  0.00     0.000 C 
ENDROOT
BRANCH   1  14
ATOM     14  C   UNL d   1      31.452  17.215 -24.260  0.00  0.00     0.255 C 
ATOM     15  N   UNL d   1      31.731  17.916 -23.900  0.00  0.00    -0.205 NA
ATOM     16  O   UNL d   1      31.994  16.656 -24.537  0.00  0.00    -0.270 OA
BRANCH  15  17
ATOM     17  C   UNL d   1      32.543  18.043 -23.823  0.00  0.00     0.170 C 
BRANCH  17  18
ATOM     18  C   UNL d   1      32.825  18.748 -23.501  0.00  0.00     0.316 C 
ATOM     19  O   UNL d   1      32.932  19.412 -23.980  0.00  0.00    -0.257 OA
BRANCH  18  20
ATOM     20  O   UNL d   1      33.001  18.787 -22.690  0.00  0.00    -0.295 OA
ATOM     21  C   UNL d   1      33.241  19.501 -22.352  0.00  0.00     0.185 C 
ENDBRANCH  18  20
ENDBRANCH  17  18
ENDBRANCH  15  17
ENDBRANCH   1  14
TORSDOF 4
ENDMDL
MODEL 2
REMARK VINA RESULT:      -2.9      1.771      3.769
REMARK  4 active torsions:
REMARK  status: ('A' for Active; 'I' for Inactive)
REMARK    1  A    between atoms: C_2  and  C_1 
REMARK       I    between atoms: N_9  and  C_2 
REMARK    2  A    between atoms: C_16  and  N_9 
REMARK    3  A    between atoms: C_13  and  C_16 
REMARK    4  A    between atoms: O_17  and  C_13 
ROOT
ATOM      1  C   UNL d   1      31.405  16.494 -24.008  0.00  0.00     0.073 A 
ATOM      2  C   UNL d   1      31.423  17.727 -24.617  0.00  0.00     0.001 A 
ATOM      3  C   UNL d   1      32.526  16.769 -23.586  0.00  0.00     0.001 A 
ATOM      4  C   UNL d   1      32.500  17.314 -23.873  0.00  0.00     0.001 A 
ATOM      5  C   UNL d   1      32.222  16.186 -23.445  0.00  0.00     0.009 A 
ATOM      6  C   UNL d   1      31.051  17.042 -24.459  0.00  0.00     0.009 A 
ATOM      7  C   UNL d   1      32.133  16.628 -23.712  0.00  0.00     0.009 A 
ATOM      8  C   UNL d   1      33.193  17.089 -23.414  0.00  0.00     0.000 A 
ATOM      9  C   UNL d   1      32.056  17.495 -24.185  0.00  0.00     0.000 A 
ATOM     10  C   UNL d   1      32.146  17.861 -24.324  0.00  0.00     0.000 A 
ATOM     11  C   UNL d   1      32.579  18.069 -24.213  0.00  0.00     0.000 C 
ATOM     12  C   UNL d   1      32.680  16.075 -23.162  0.00  0.00     0.000 C 
ATOM     13  C   UNL d   1      30.890  18.154 -25.097  0.00  0.00     0.000 C 
ENDROOT
BRANCH   1  14
ATOM     14  C   UNL d   1      30.654  16.252 -24.261  0.00  0.00     0.255 C 
ATOM     15  N   UNL d   1      30.046  16.122 -23.702  0.00  0.00    -0.205 NA
ATOM     16  O   UNL d   1      30.497  16.138 -25.065  0.00  0.00    -0.270 OA
BRANCH  15  17
ATOM     17  C   UNL d   1      29.298  15.881 -23.955  0.00  0.00     0.170 C 
BRANCH  17  18
ATOM     18  C   UNL d   1      28.698  15.743 -23.408  0.00  0.00     0.316 C 
ATOM     19  O   UNL d   1      28.878  15.453 -22.656  0.00  0.00    -0.257 OA
BRANCH  18  20
ATOM     20  O   UNL d   1      27.909  15.899 -23.616  0.00  0.00    -0.295 OA
ATOM     21  C   UNL d   1      27.297  15.454 -23.284  0.00  0.00     0.185 C 
ENDBRANCH  18  20
ENDBRANCH  17  18
ENDBRANCH  15  17
ENDBRANCH   1  14
TORSDOF 4
ENDMDL
MODEL 3
REMARK VINA RESULT:      -2.7      2.578      5.859
REMARK  4 active torsions:
REMARK  status: ('A' for Active; 'I' for Inactive)
REMARK    1  A    between atoms: C_2  and  C_1 
REMARK       I    between atoms: N_9  and  C_2 
REMARK    2  A    between atoms: C_16  and  N_9 
REMARK    3  A    between atoms: C_13  and  C_16 
REMARK    4  A    between atoms: O_17  and  C_13 
ROOT
ATOM      1  C   UNL d   1      32.828  21.318 -21.750  0.00  0.00     0.073 A 
ATOM      2  C   UNL d   1      33.008  22.511 -22.409  0.00  0.00     0.001 A 
ATOM      3  C   UNL d   1      32.525  21.990 -20.768  0.00  0.00     0.001 A 
ATOM      4  C   UNL d   1      32.615  22.506 -21.094  0.00  0.00     0.001 A 
ATOM      5  C   UNL d   1      32.531  21.318 -20.755  0.00  0.00     0.009 A 
ATOM      6  C   UNL d   1      33.019  21.716 -22.409  0.00  0.00     0.009 A 
ATOM      7  C   UNL d   1      32.625  21.712 -21.088  0.00  0.00     0.009 A 
ATOM      8  C   UNL d   1      32.369  22.541 -20.269  0.00  0.00     0.000 A 
ATOM      9  C   UNL d   1      32.779  22.519 -21.642  0.00  0.00     0.000 A 
ATOM     10  C   UNL d   1      32.806  22.904 -21.752  0.00  0.00     0.000 A 
ATOM     11  C   UNL d   1      32.705  23.262 -21.429  0.00  0.00     0.000 C 
ATOM     12  C   UNL d   1      32.374  21.378 -20.232  0.00  0.00     0.000 C 
ATOM     13  C   UNL d   1      33.235  22.728 -23.183  0.00  0.00     0.000 C 
ENDROOT
BRANCH   1  14
ATOM     14  C   UNL d   1      33.022  20.811 -22.377  0.00  0.00     0.255 C 
ATOM     15  N   UNL d   1      32.998  19.983 -22.268  0.00  0.00    -0.205 NA
ATOM     16  O   UNL d   1      33.241  21.117 -23.114  0.00  0.00    -0.270 OA
BRANCH  15  17
ATOM     17  C   UNL d   1      33.191  19.479 -22.893  0.00  0.00     0.170 C 
BRANCH  17  18
ATOM     18  C   UNL d   1      32.992  18.680 -22.860  0.00  0.00     0.316 C 
ATOM     19  O   UNL d   1      33.241  18.214 -22.226  0.00  0.00    -0.257 OA
BRANCH  18  20
ATOM     20  O   UNL d   1      32.539  18.345 -23.471  0.00  0.00    -0.295 OA
ATOM     21  C   UNL d   1      32.471  17.524 -23.534  0.00  0.00     0.185 C 
ENDBRANCH  18  20
ENDBRANCH  17  18
ENDBRANCH  15  17
ENDBRANCH   1  14
TORSDOF 4
ENDMDL
MODEL 4
REMARK VINA RESULT:      -2.5      1.614      2.160
REMARK  4 active torsions:
REMARK  status: ('A' for Active; 'I' for Inactive)
REMARK    1  A    between atoms: C_2  and  C_1 
REMARK       I    between atoms: N_9  and  C_2 
REMARK    2  A    between atoms: C_16  and  N_9 
REMARK    3  A    between atoms: C_13  and  C_16 
REMARK    4  A    between atoms: O_17  and  C_13 
ROOT
ATOM      1  C   UNL d   1      32.259  17.815 -23.551  0.00  0.00     0.073 A 
ATOM      2  C   UNL d   1      32.685  16.519 -23.375  0.00  0.00     0.001 A 
ATOM      3  C   UNL d   1      31.508  17.372 -24.417  0.00  0.00     0.001 A 
ATOM      4  C   UNL d   1      31.723  16.804 -24.312  0.00  0.00     0.001 A 
ATOM      5  C   UNL d   1      31.530  18.026 -24.261  0.00  0.00     0.009 A 
ATOM      6  C   UNL d   1      32.722  17.289 -23.180  0.00  0.00     0.009 A 
ATOM      7  C   UNL d   1      31.756  17.574 -24.121  0.00  0.00     0.009 A 
ATOM      8  C   UNL d   1      31.118  16.945 -24.909  0.00  0.00     0.000 A 
ATOM      9  C   UNL d   1      32.123  16.675 -23.924  0.00  0.00     0.000 A 
ATOM     10  C   UNL d   1      32.186  16.279 -23.940  0.00  0.00     0.000 A 
ATOM     11  C   UNL d   1      31.932  16.000 -24.259  0.00  0.00     0.000 C 
ATOM     12  C   UNL d   1      31.145  18.079 -24.649  0.00  0.00     0.000 C 
ATOM     13  C   UNL d   1      33.241  16.145 -22.877  0.00  0.00     0.000 C 
ENDROOT
BRANCH   1  14
ATOM     14  C   UNL d   1      32.741  18.172 -22.979  0.00  0.00     0.255 C 
ATOM     15  N   UNL d   1      32.760  19.005 -22.910  0.00  0.00    -0.205 NA
ATOM     16  O   UNL d   1      33.207  17.712 -22.474  0.00  0.00    -0.270 OA
BRANCH  15  17
ATOM     17  C   UNL d   1      33.241  19.360 -22.340  0.00  0.00     0.170 C 
BRANCH  17  18
ATOM     18  C   UNL d   1      33.199  20.173 -22.208  0.00  0.00     0.316 C 
ATOM     19  O   UNL d   1      33.234  20.700 -22.842  0.00  0.00    -0.257 OA
BRANCH  18  20
ATOM     20  O   UNL d   1      33.122  20.459 -21.432  0.00  0.00    -0.295 OA
ATOM     21  C   UNL d   1      33.083  21.271 -21.292  0.00  0.00     0.185 C 
ENDBRANCH  18  20
ENDBRANCH  17  18
ENDBRANCH  15  17
ENDBRANCH   1  14
TORSDOF 4
ENDMDL
MODEL 5
REMARK VINA RESULT:      -1.3      3.401      4.287
REMARK  4 active torsions:
REMARK  status: ('A' for Active; 'I' for Inactive)
REMARK    1  A    between atoms: C_2  and  C_1 
REMARK       I    between atoms: N_9  and  C_2 
REMARK    2  A    between atoms: C_16  and  N_9 
REMARK    3  A    between atoms: C_13  and  C_16 
REMARK    4  A    between atoms: O_17  and  C_13 
ROOT
ATOM      1  C   UNL d   1      33.191  19.894 -22.910  0.00  0.00     0.073 A 
ATOM      2  C   UNL d   1      33.225  18.607 -22.425  0.00  0.00     0.001 A 
ATOM      3  C   UNL d   1      33.204  19.394 -24.032  0.00  0.00     0.001 A 
ATOM      4  C   UNL d   1      33.219  18.831 -23.780  0.00  0.00     0.001 A 
ATOM      5  C   UNL d   1      33.187  20.059 -23.935  0.00  0.00     0.009 A 
ATOM      6  C   UNL d   1      33.205  19.392 -22.296  0.00  0.00     0.009 A 
ATOM      7  C   UNL d   1      33.199  19.615 -23.656  0.00  0.00     0.009 A 
ATOM      8  C   UNL d   1      33.217  18.933 -24.635  0.00  0.00     0.000 A 
ATOM      9  C   UNL d   1      33.222  18.727 -23.218  0.00  0.00     0.000 A 
ATOM     10  C   UNL d   1      33.233  18.329 -23.167  0.00  0.00     0.000 A 
ATOM     11  C   UNL d   1      33.241  18.029 -23.558  0.00  0.00     0.000 C 
ATOM     12  C   UNL d   1      33.186  20.087 -24.484  0.00  0.00     0.000 C 
ATOM     13  C   UNL d   1      33.235  18.265 -21.664  0.00  0.00     0.000 C 
ENDROOT
BRANCH   1  14
ATOM     14  C   UNL d   1      33.181  20.289 -22.181  0.00  0.00     0.255 C 
ATOM     15  N   UNL d   1      33.109  21.122 -22.159  0.00  0.00    -0.205 NA
ATOM     16  O   UNL d   1      33.241  19.868 -21.472  0.00  0.00    -0.270 OA
BRANCH  15  17
ATOM     17  C   UNL d   1      33.098  21.515 -21.433  0.00  0.00     0.170 C 
BRANCH  17  18
ATOM     18  C   UNL d   1      32.886  22.310 -21.393  0.00  0.00     0.316 C 
ATOM     19  O   UNL d   1      32.374  22.634 -21.954  0.00  0.00    -0.257 OA
BRANCH  18  20
ATOM     20  O   UNL d   1      33.189  22.786 -20.783  0.00  0.00    -0.295 OA
ATOM     21  C   UNL d   1      32.866  23.532 -20.640  0.00  0.00     0.185 C 
ENDBRANCH  18  20
ENDBRANCH  17  18
ENDBRANCH  15  17
ENDBRANCH   1  14
TORSDOF 4
ENDMDL
