MODEL 1
REMARK VINA RESULT:       6.4      0.000      0.000
REMARK  1 active torsions:
REMARK  status: ('A' for Active; 'I' for Inactive)
REMARK    1  A    between atoms: C_7  and  C_1 
ROOT
ATOM      1  C   UNL d   1      45.405 -15.101  36.911  0.00  0.00     0.102 A 
ATOM      2  C   UNL d   1      44.975 -14.454  37.145  0.00  0.00     0.303 A 
ATOM      3  C   UNL d   1      45.015 -15.783  36.647  0.00  0.00     0.011 A 
ATOM      4  O   UNL d   1      44.147 -14.476  37.118  0.00  0.00    -0.273 OA
ATOM      5  C   UNL d   1      43.760 -15.156  36.855  0.00  0.00     0.106 A 
ATOM      6  C   UNL d   1      44.190 -15.804  36.621  0.00  0.00     0.023 A 
ATOM      7  C   UNL d   1      42.932 -15.179  36.829  0.00  0.00     0.067 A 
ATOM      8  O   UNL d   1      45.359 -13.776  37.407  0.00  0.00    -0.259 OA
ATOM      9  C   UNL d   1      43.801 -16.486  36.357  0.00  0.00     0.005 A 
ATOM     10  C   UNL d   1      42.542 -15.861  36.565  0.00  0.00     0.198 A 
ATOM     11  C   UNL d   1      42.972 -16.509  36.331  0.00  0.00     0.042 A 
ATOM     12  O   UNL d   1      41.724 -15.969  36.506  0.00  0.00    -0.286 OA
ENDROOT
BRANCH   1  13
ATOM     13  C   UNL d   1      46.227 -15.082  36.936  0.00  0.00     0.201 C 
ATOM     14  O   UNL d   1      46.632 -15.432  37.568  0.00  0.00    -0.286 OA
ATOM     15  C   UNL d   1      46.645 -14.723  36.346  0.00  0.00     0.045 C 
ENDBRANCH   1  13
TORSDOF 1
ENDMDL
MODEL 2
REMARK VINA RESULT:       7.1      0.825      1.386
REMARK  1 active torsions:
REMARK  status: ('A' for Active; 'I' for Inactive)
REMARK    1  A    between atoms: C_7  and  C_1 
ROOT
ATOM      1  C   UNL d   1      45.550 -14.875  37.072  0.00  0.00     0.102 A 
ATOM      2  C   UNL d   1      45.640 -15.515  36.580  0.00  0.00     0.303 A 
ATOM      3  C   UNL d   1      44.793 -14.650  37.322  0.00  0.00     0.011 A 
ATOM      4  O   UNL d   1      44.976 -15.941  36.331  0.00  0.00    -0.273 OA
ATOM      5  C   UNL d   1      44.222 -15.716  36.581  0.00  0.00     0.106 A 
ATOM      6  C   UNL d   1      44.131 -15.076  37.072  0.00  0.00     0.023 A 
ATOM      7  C   UNL d   1      43.557 -16.143  36.331  0.00  0.00     0.067 A 
ATOM      8  O   UNL d   1      46.391 -15.740  36.330  0.00  0.00    -0.259 OA
ATOM      9  C   UNL d   1      43.374 -14.852  37.323  0.00  0.00     0.005 A 
ATOM     10  C   UNL d   1      42.799 -15.918  36.581  0.00  0.00     0.198 A 
ATOM     11  C   UNL d   1      42.708 -15.278  37.073  0.00  0.00     0.042 A 
ATOM     12  O   UNL d   1      42.085 -16.285  36.382  0.00  0.00    -0.286 OA
ENDROOT
BRANCH   1  13
ATOM     13  C   UNL d   1      46.208 -14.449  37.322  0.00  0.00     0.201 C 
ATOM     14  O   UNL d   1      46.425 -13.752  36.931  0.00  0.00    -0.286 OA
ATOM     15  C   UNL d   1      46.647 -14.707  37.948  0.00  0.00     0.045 C 
ENDBRANCH   1  13
TORSDOF 1
ENDMDL
MODEL 3
REMARK VINA RESULT:       9.4      6.839      7.537
REMARK  1 active torsions:
REMARK  status: ('A' for Active; 'I' for Inactive)
REMARK    1  A    between atoms: C_7  and  C_1 
ROOT
ATOM      1  C   UNL d   1      46.308 -18.599  41.582  0.00  0.00     0.102 A 
ATOM      2  C   UNL d   1      46.520 -19.371  41.441  0.00  0.00     0.303 A 
ATOM      3  C   UNL d   1      46.206 -18.335  42.360  0.00  0.00     0.011 A 
ATOM      4  O   UNL d   1      46.634 -19.890  42.076  0.00  0.00    -0.273 OA
ATOM      5  C   UNL d   1      46.532 -19.625  42.852  0.00  0.00     0.106 A 
ATOM      6  C   UNL d   1      46.320 -18.854  42.992  0.00  0.00     0.023 A 
ATOM      7  C   UNL d   1      46.645 -20.144  43.487  0.00  0.00     0.067 A 
ATOM      8  O   UNL d   1      46.622 -19.637  40.670  0.00  0.00    -0.259 OA
ATOM      9  C   UNL d   1      46.218 -18.589  43.771  0.00  0.00     0.005 A 
ATOM     10  C   UNL d   1      46.543 -19.880  44.266  0.00  0.00     0.198 A 
ATOM     11  C   UNL d   1      46.332 -19.109  44.407  0.00  0.00     0.042 A 
ATOM     12  O   UNL d   1      46.636 -20.328  44.954  0.00  0.00    -0.286 OA
ENDROOT
BRANCH   1  13
ATOM     13  C   UNL d   1      46.195 -18.081  40.954  0.00  0.00     0.201 C 
ATOM     14  O   UNL d   1      46.596 -17.357  40.934  0.00  0.00    -0.286 OA
ATOM     15  C   UNL d   1      45.692 -18.272  40.352  0.00  0.00     0.045 C 
ENDBRANCH   1  13
TORSDOF 1
ENDMDL
