MODEL 1
REMARK VINA RESULT:      57.4      0.000      0.000
REMARK  3 active torsions:
REMARK  status: ('A' for Active; 'I' for Inactive)
REMARK    1  A    between atoms: S_4  and  C_1 
REMARK    2  A    between atoms: C_8  and  S_4 
REMARK    3  A    between atoms: C_10  and  C_8 
ROOT
ATOM      1  C   UNL d   1      60.421  49.046  51.075  0.00  0.00     0.114 A 
ATOM      2  C   UNL d   1      60.771  48.311  50.959  0.00  0.00     0.042 A 
ATOM      3  N   UNL d   1      60.896  49.704  51.226  0.00  0.00    -0.217 NA
ATOM      4  N   UNL d   1      62.066  48.885  51.143  0.00  0.00    -0.224 NA
ATOM      5  C   UNL d   1      61.718  49.623  51.260  0.00  0.00     0.200 A 
ATOM      6  C   UNL d   1      61.593  48.230  50.993  0.00  0.00     0.085 A 
ATOM      7  C   UNL d   1      60.296  47.652  50.808  0.00  0.00     0.004 A 
ATOM      8  C   UNL d   1      61.941  47.492  50.876  0.00  0.00     0.019 A 
ATOM      9  C   UNL d   1      60.645  46.914  50.691  0.00  0.00     0.000 A 
ATOM     10  C   UNL d   1      61.467  46.833  50.725  0.00  0.00     0.002 A 
ENDROOT
BRANCH   1  11
ATOM     11  S   UNL d   1      59.600  49.126  51.041  0.00  0.00    -0.067 SA
BRANCH  11  12
ATOM     12  C   UNL d   1      59.260  49.708  50.577  0.00  0.00     0.037 C 
BRANCH  12  13
ATOM     13  C   UNL d   1      58.459  49.686  50.408  0.00  0.00     0.007 A 
ATOM     14  C   UNL d   1      58.188  49.683  49.622  0.00  0.00     0.003 A 
ATOM     15  C   UNL d   1      57.387  49.661  49.464  0.00  0.00     0.030 A 
ATOM     16  C   UNL d   1      56.849  49.642  50.080  0.00  0.00     0.140 A 
ATOM     17  C   UNL d   1      57.107  49.644  50.856  0.00  0.00     0.030 A 
ATOM     18  F   UNL d   1      56.033  49.619  49.915  0.00  0.00    -0.204 F 
ATOM     19  C   UNL d   1      57.914  49.667  51.030  0.00  0.00     0.003 A 
ENDBRANCH  12  13
ENDBRANCH  11  12
ENDBRANCH   1  11
TORSDOF 3
ENDMDL
