MODEL 1
REMARK VINA RESULT:      -8.2      0.000      0.000
REMARK  7 active torsions:
REMARK  status: ('A' for Active; 'I' for Inactive)
REMARK    1  A    between atoms: C_6  and  C_1 
REMARK    2  A    between atoms: C_9  and  N_3 
REMARK    3  A    between atoms: C_11  and  C_4 
REMARK       I    between atoms: N_7  and  C_6 
REMARK    4  A    between atoms: C_15  and  N_7 
REMARK    5  A    between atoms: C_8  and  C_10 
REMARK    6  A    between atoms: O_18  and  C_8 
REMARK    7  A    between atoms: C_27  and  O_18 
ROOT
ATOM      1  C   UNL d   1      52.329  33.308  53.367  0.00  0.00     0.096 A 
ATOM      2  N   UNL d   1      53.572  33.091  54.032  0.00  0.00    -0.165 NA
ATOM      3  N   UNL d   1      52.896  32.001  53.419  0.00  0.00    -0.228 N 
ATOM      4  C   UNL d   1      52.973  33.602  53.796  0.00  0.00     0.108 A 
ATOM      5  C   UNL d   1      52.298  32.506  53.182  0.00  0.00     0.107 A 
ENDROOT
BRANCH   1   6
ATOM      6  C   UNL d   1      51.730  33.815  53.130  0.00  0.00     0.282 C 
ATOM      7  N   UNL d   1      50.915  33.639  53.321  0.00  0.00    -0.208 NA
ATOM      8  O   UNL d   1      51.912  34.495  52.708  0.00  0.00    -0.265 OA
BRANCH   7   9
ATOM      9  C   UNL d   1      50.300  34.164  53.075  0.00  0.00     0.085 A 
ATOM     10  C   UNL d   1      50.088  34.227  52.263  0.00  0.00     0.019 A 
ATOM     11  C   UNL d   1      49.473  34.752  52.019  0.00  0.00     0.007 A 
ATOM     12  C   UNL d   1      49.064  35.221  52.597  0.00  0.00     0.064 A 
ATOM     13  C   UNL d   1      49.280  35.155  53.409  0.00  0.00     0.007 A 
ATOM     14  C   UNL d   1      49.896  34.628  53.647  0.00  0.00     0.019 A 
BRANCH  12  15
ATOM     15  C   UNL d   1      48.444  35.752  52.357  0.00  0.00     0.300 C 
ATOM     16  O   UNL d   1      48.434  36.551  52.641  0.00  0.00    -0.259 OA
BRANCH  15  17
ATOM     17  O   UNL d   1      47.833  35.483  51.833  0.00  0.00    -0.271 OA
BRANCH  17  18
ATOM     18  C   UNL d   1      47.136  35.946  51.722  0.00  0.00     0.126 C 
ATOM     19  C   UNL d   1      46.464  35.609  51.353  0.00  0.00     0.029 C 
ENDBRANCH  17  18
ENDBRANCH  15  17
ENDBRANCH  12  15
ENDBRANCH   7   9
ENDBRANCH   1   6
BRANCH   4  20
ATOM     20  C   UNL d   1      53.012  34.389  53.983  0.00  0.00     0.023 A 
ATOM     21  C   UNL d   1      53.293  34.932  53.434  0.00  0.00     0.022 A 
ATOM     22  C   UNL d   1      53.335  35.730  53.618  0.00  0.00     0.099 A 
ATOM     23  N   UNL d   1      53.092  35.989  54.365  0.00  0.00    -0.242 NA
ATOM     24  C   UNL d   1      52.811  35.451  54.917  0.00  0.00     0.099 A 
ATOM     25  C   UNL d   1      52.772  34.651  54.726  0.00  0.00     0.022 A 
ENDBRANCH   4  20
BRANCH   3  26
ATOM     26  C   UNL d   1      53.044  31.198  53.336  0.00  0.00     0.083 A 
ATOM     27  C   UNL d   1      52.556  30.744  52.859  0.00  0.00     0.019 A 
ATOM     28  C   UNL d   1      52.707  29.942  52.778  0.00  0.00     0.002 A 
ATOM     29  C   UNL d   1      53.342  29.593  53.173  0.00  0.00     0.000 A 
ATOM     30  C   UNL d   1      53.831  30.055  53.652  0.00  0.00     0.002 A 
ATOM     31  C   UNL d   1      53.681  30.856  53.733  0.00  0.00     0.019 A 
ENDBRANCH   3  26
TORSDOF 7
ENDMDL
MODEL 2
REMARK VINA RESULT:      -7.1      1.741      5.366
REMARK  7 active torsions:
REMARK  status: ('A' for Active; 'I' for Inactive)
REMARK    1  A    between atoms: C_6  and  C_1 
REMARK    2  A    between atoms: C_9  and  N_3 
REMARK    3  A    between atoms: C_11  and  C_4 
REMARK       I    between atoms: N_7  and  C_6 
REMARK    4  A    between atoms: C_15  and  N_7 
REMARK    5  A    between atoms: C_8  and  C_10 
REMARK    6  A    between atoms: O_18  and  C_8 
REMARK    7  A    between atoms: C_27  and  O_18 
ROOT
ATOM      1  C   UNL d   1      51.280  33.894  53.029  0.00  0.00     0.096 A 
ATOM      2  N   UNL d   1      51.181  35.315  52.994  0.00  0.00    -0.165 NA
ATOM      3  N   UNL d   1      50.179  34.520  52.374  0.00  0.00    -0.228 N 
ATOM      4  C   UNL d   1      51.584  34.637  53.226  0.00  0.00     0.108 A 
ATOM      5  C   UNL d   1      50.577  33.843  52.603  0.00  0.00     0.107 A 
ENDROOT
BRANCH   1   6
ATOM      6  C   UNL d   1      51.679  33.215  53.259  0.00  0.00     0.282 C 
ATOM      7  N   UNL d   1      51.924  32.640  52.676  0.00  0.00    -0.208 NA
ATOM      8  O   UNL d   1      51.844  33.086  54.052  0.00  0.00    -0.265 OA
BRANCH   7   9
ATOM      9  C   UNL d   1      52.335  31.942  52.916  0.00  0.00     0.085 A 
ATOM     10  C   UNL d   1      53.176  31.905  52.883  0.00  0.00     0.019 A 
ATOM     11  C   UNL d   1      53.585  31.206  53.124  0.00  0.00     0.007 A 
ATOM     12  C   UNL d   1      53.145  30.535  53.402  0.00  0.00     0.064 A 
ATOM     13  C   UNL d   1      52.305  30.576  53.433  0.00  0.00     0.007 A 
ATOM     14  C   UNL d   1      51.901  31.278  53.191  0.00  0.00     0.019 A 
BRANCH  12  15
ATOM     15  C   UNL d   1      53.552  29.828  53.646  0.00  0.00     0.300 C 
ATOM     16  O   UNL d   1      54.328  29.659  53.347  0.00  0.00    -0.259 OA
BRANCH  15  17
ATOM     17  O   UNL d   1      53.183  29.290  54.188  0.00  0.00    -0.271 OA
BRANCH  17  18
ATOM     18  C   UNL d   1      53.655  28.770  54.656  0.00  0.00     0.126 C 
ATOM     19  C   UNL d   1      53.325  28.401  55.332  0.00  0.00     0.029 C 
ENDBRANCH  17  18
ENDBRANCH  15  17
ENDBRANCH  12  15
ENDBRANCH   7   9
ENDBRANCH   1   6
BRANCH   4  20
ATOM     20  C   UNL d   1      52.275  34.698  53.644  0.00  0.00     0.023 A 
ATOM     21  C   UNL d   1      52.272  34.630  54.462  0.00  0.00     0.022 A 
ATOM     22  C   UNL d   1      52.968  34.690  54.890  0.00  0.00     0.099 A 
ATOM     23  N   UNL d   1      53.681  34.820  54.492  0.00  0.00    -0.242 NA
ATOM     24  C   UNL d   1      53.690  34.889  53.675  0.00  0.00     0.099 A 
ATOM     25  C   UNL d   1      52.987  34.827  53.251  0.00  0.00     0.022 A 
ENDBRANCH   4  20
BRANCH   3  26
ATOM     26  C   UNL d   1      49.488  34.675  51.960  0.00  0.00     0.083 A 
ATOM     27  C   UNL d   1      48.880  35.083  52.328  0.00  0.00     0.019 A 
ATOM     28  C   UNL d   1      48.191  35.238  51.911  0.00  0.00     0.002 A 
ATOM     29  C   UNL d   1      48.108  34.986  51.129  0.00  0.00     0.000 A 
ATOM     30  C   UNL d   1      48.724  34.576  50.764  0.00  0.00     0.002 A 
ATOM     31  C   UNL d   1      49.413  34.421  51.179  0.00  0.00     0.019 A 
ENDBRANCH   3  26
TORSDOF 7
ENDMDL
