MODEL 1
REMARK VINA RESULT:     -10.7      0.000      0.000
REMARK  3 active torsions:
REMARK  status: ('A' for Active; 'I' for Inactive)
REMARK    1  A    between atoms: S_2  and  N_1 
REMARK    2  A    between atoms: C_8  and  S_2 
REMARK       I    between atoms: C_14  and  N_15 
REMARK    3  A    between atoms: N_15  and  C_19 
ROOT
ATOM      1  S   UNL d   1      52.427  32.433  53.002  0.00  0.00     0.273 S 
ATOM      2  O   UNL d   1      53.066  32.097  52.601  0.00  0.00    -0.200 OA
ATOM      3  O   UNL d   1      51.999  31.984  53.541  0.00  0.00    -0.200 OA
ENDROOT
BRANCH   1   4
ATOM      4  N   UNL d   1      52.215  33.216  52.867  0.00  0.00    -0.212 N 
ATOM      5  C   UNL d   1      52.500  33.818  53.354  0.00  0.00     0.094 A 
ATOM      6  C   UNL d   1      52.282  34.603  53.212  0.00  0.00     0.100 A 
ATOM      7  C   UNL d   1      53.006  33.638  53.986  0.00  0.00     0.020 A 
ATOM      8  C   UNL d   1      52.568  35.213  53.702  0.00  0.00     0.021 A 
ATOM      9  N   UNL d   1      51.490  34.188  52.092  0.00  0.00    -0.223 NA
ATOM     10  C   UNL d   1      53.078  35.027  54.339  0.00  0.00     0.002 A 
ATOM     11  C   UNL d   1      53.291  34.240  54.474  0.00  0.00     0.002 A 
ATOM     12  C   UNL d   1      53.363  35.623  54.824  0.00  0.00     0.000 C 
ATOM     13  C   UNL d   1      53.792  34.049  55.098  0.00  0.00     0.000 C 
ATOM     14  C   UNL d   1      51.709  33.399  52.234  0.00  0.00     0.193 A 
ENDBRANCH   1   4
BRANCH   1  15
ATOM     15  C   UNL d   1      52.628  31.648  53.148  0.00  0.00     0.104 A 
ATOM     16  C   UNL d   1      53.415  31.424  53.196  0.00  0.00     0.014 A 
ATOM     17  C   UNL d   1      53.611  30.638  53.342  0.00  0.00     0.020 A 
ATOM     18  C   UNL d   1      53.014  30.074  53.439  0.00  0.00     0.085 A 
ATOM     19  C   UNL d   1      52.225  30.307  53.389  0.00  0.00     0.020 A 
ATOM     20  C   UNL d   1      52.026  31.087  53.245  0.00  0.00     0.014 A 
BRANCH  18  21
ATOM     21  N   UNL d   1      53.218  29.295  53.584  0.00  0.00    -0.208 NA
ATOM     22  C   UNL d   1      53.294  29.034  54.362  0.00  0.00     0.279 C 
ATOM     23  O   UNL d   1      53.499  28.252  54.520  0.00  0.00    -0.265 OA
ATOM     24  C   UNL d   1      53.165  29.552  54.990  0.00  0.00     0.068 C 
ENDBRANCH  18  21
ENDBRANCH   1  15
TORSDOF 3
ENDMDL
MODEL 2
REMARK VINA RESULT:     -10.7      1.861      4.100
REMARK  3 active torsions:
REMARK  status: ('A' for Active; 'I' for Inactive)
REMARK    1  A    between atoms: S_2  and  N_1 
REMARK    2  A    between atoms: C_8  and  S_2 
REMARK       I    between atoms: C_14  and  N_15 
REMARK    3  A    between atoms: N_15  and  C_19 
ROOT
ATOM      1  S   UNL d   1      52.012  33.040  53.064  0.00  0.00     0.273 S 
ATOM      2  O   UNL d   1      51.327  33.005  53.522  0.00  0.00    -0.200 OA
ATOM      3  O   UNL d   1      52.049  33.546  52.418  0.00  0.00    -0.200 OA
ENDROOT
BRANCH   1   4
ATOM      4  N   UNL d   1      52.662  32.570  53.248  0.00  0.00    -0.212 N 
ATOM      5  C   UNL d   1      53.243  32.843  53.767  0.00  0.00     0.094 A 
ATOM      6  C   UNL d   1      53.893  32.365  53.947  0.00  0.00     0.100 A 
ATOM      7  C   UNL d   1      53.178  33.596  54.107  0.00  0.00     0.020 A 
ATOM      8  C   UNL d   1      54.482  32.636  54.470  0.00  0.00     0.021 A 
ATOM      9  N   UNL d   1      53.384  31.334  53.090  0.00  0.00    -0.223 NA
ATOM     10  C   UNL d   1      54.412  33.397  54.812  0.00  0.00     0.002 A 
ATOM     11  C   UNL d   1      53.759  33.869  54.626  0.00  0.00     0.002 A 
ATOM     12  C   UNL d   1      54.988  33.671  55.326  0.00  0.00     0.000 C 
ATOM     13  C   UNL d   1      53.683  34.618  54.957  0.00  0.00     0.000 C 
ATOM     14  C   UNL d   1      52.731  31.815  52.908  0.00  0.00     0.193 A 
ENDBRANCH   1   4
BRANCH   1  15
ATOM     15  C   UNL d   1      51.370  33.516  52.867  0.00  0.00     0.104 A 
ATOM     16  C   UNL d   1      50.689  33.500  53.321  0.00  0.00     0.014 A 
ATOM     17  C   UNL d   1      50.049  33.978  53.121  0.00  0.00     0.020 A 
ATOM     18  C   UNL d   1      50.095  34.474  52.460  0.00  0.00     0.085 A 
ATOM     19  C   UNL d   1      50.784  34.484  52.008  0.00  0.00     0.020 A 
ATOM     20  C   UNL d   1      51.422  34.011  52.204  0.00  0.00     0.014 A 
BRANCH  18  21
ATOM     21  N   UNL d   1      49.454  34.946  52.268  0.00  0.00    -0.208 NA
ATOM     22  C   UNL d   1      49.006  34.768  51.600  0.00  0.00     0.279 C 
ATOM     23  O   UNL d   1      48.360  35.235  51.396  0.00  0.00    -0.265 OA
ATOM     24  C   UNL d   1      49.201  34.121  51.128  0.00  0.00     0.068 C 
ENDBRANCH  18  21
ENDBRANCH   1  15
TORSDOF 3
ENDMDL
MODEL 3
REMARK VINA RESULT:      -9.9      2.154      4.505
REMARK  3 active torsions:
REMARK  status: ('A' for Active; 'I' for Inactive)
REMARK    1  A    between atoms: S_2  and  N_1 
REMARK    2  A    between atoms: C_8  and  S_2 
REMARK       I    between atoms: C_14  and  N_15 
REMARK    3  A    between atoms: N_15  and  C_19 
ROOT
ATOM      1  S   UNL d   1      51.855  34.107  53.177  0.00  0.00     0.273 S 
ATOM      2  O   UNL d   1      51.898  34.431  52.419  0.00  0.00    -0.200 OA
ATOM      3  O   UNL d   1      51.128  33.876  53.483  0.00  0.00    -0.200 OA
ENDROOT
BRANCH   1   4
ATOM      4  N   UNL d   1      52.535  34.013  53.631  0.00  0.00    -0.212 N 
ATOM      5  C   UNL d   1      52.919  33.284  53.664  0.00  0.00     0.094 A 
ATOM      6  C   UNL d   1      53.602  33.197  54.122  0.00  0.00     0.100 A 
ATOM      7  C   UNL d   1      52.623  32.637  53.239  0.00  0.00     0.020 A 
ATOM      8  C   UNL d   1      53.993  32.463  54.158  0.00  0.00     0.021 A 
ATOM      9  N   UNL d   1      53.521  34.573  54.518  0.00  0.00    -0.223 NA
ATOM     10  C   UNL d   1      53.691  31.812  53.728  0.00  0.00     0.002 A 
ATOM     11  C   UNL d   1      53.008  31.907  53.272  0.00  0.00     0.002 A 
ATOM     12  C   UNL d   1      54.071  31.087  53.759  0.00  0.00     0.000 C 
ATOM     13  C   UNL d   1      52.704  31.273  52.846  0.00  0.00     0.000 C 
ATOM     14  C   UNL d   1      52.834  34.660  54.058  0.00  0.00     0.193 A 
ENDBRANCH   1   4
BRANCH   1  15
ATOM     15  C   UNL d   1      51.166  34.195  52.735  0.00  0.00     0.104 A 
ATOM     16  C   UNL d   1      51.205  34.280  51.921  0.00  0.00     0.014 A 
ATOM     17  C   UNL d   1      50.514  34.367  51.482  0.00  0.00     0.020 A 
ATOM     18  C   UNL d   1      49.780  34.369  51.864  0.00  0.00     0.085 A 
ATOM     19  C   UNL d   1      49.749  34.284  52.683  0.00  0.00     0.020 A 
ATOM     20  C   UNL d   1      50.434  34.197  53.122  0.00  0.00     0.014 A 
BRANCH  18  21
ATOM     21  N   UNL d   1      49.098  34.457  51.420  0.00  0.00    -0.208 NA
ATOM     22  C   UNL d   1      48.554  35.041  51.625  0.00  0.00     0.279 C 
ATOM     23  O   UNL d   1      47.864  35.139  51.187  0.00  0.00    -0.265 OA
ATOM     24  C   UNL d   1      48.694  35.533  52.271  0.00  0.00     0.068 C 
ENDBRANCH  18  21
ENDBRANCH   1  15
TORSDOF 3
ENDMDL
MODEL 4
REMARK VINA RESULT:      -9.0      1.041      1.794
REMARK  3 active torsions:
REMARK  status: ('A' for Active; 'I' for Inactive)
REMARK    1  A    between atoms: S_2  and  N_1 
REMARK    2  A    between atoms: C_8  and  S_2 
REMARK       I    between atoms: C_14  and  N_15 
REMARK    3  A    between atoms: N_15  and  C_19 
ROOT
ATOM      1  S   UNL d   1      53.136  32.525  53.372  0.00  0.00     0.273 S 
ATOM      2  O   UNL d   1      53.223  32.054  52.700  0.00  0.00    -0.200 OA
ATOM      3  O   UNL d   1      53.130  32.181  54.118  0.00  0.00    -0.200 OA
ENDROOT
BRANCH   1   4
ATOM      4  N   UNL d   1      53.056  33.342  53.301  0.00  0.00    -0.212 N 
ATOM      5  C   UNL d   1      52.310  33.682  53.202  0.00  0.00     0.094 A 
ATOM      6  C   UNL d   1      52.237  34.503  53.132  0.00  0.00     0.100 A 
ATOM      7  C   UNL d   1      51.634  33.204  53.172  0.00  0.00     0.020 A 
ATOM      8  C   UNL d   1      51.487  34.850  53.032  0.00  0.00     0.021 A 
ATOM      9  N   UNL d   1      53.658  34.648  53.261  0.00  0.00    -0.223 NA
ATOM     10  C   UNL d   1      50.807  34.364  53.003  0.00  0.00     0.002 A 
ATOM     11  C   UNL d   1      50.889  33.544  53.073  0.00  0.00     0.002 A 
ATOM     12  C   UNL d   1      50.066  34.700  52.904  0.00  0.00     0.000 C 
ATOM     13  C   UNL d   1      50.225  33.059  53.045  0.00  0.00     0.000 C 
ATOM     14  C   UNL d   1      53.732  33.823  53.331  0.00  0.00     0.193 A 
ENDBRANCH   1   4
BRANCH   1  15
ATOM     15  C   UNL d   1      53.216  31.711  53.458  0.00  0.00     0.104 A 
ATOM     16  C   UNL d   1      52.797  31.200  52.973  0.00  0.00     0.014 A 
ATOM     17  C   UNL d   1      52.879  30.386  53.062  0.00  0.00     0.020 A 
ATOM     18  C   UNL d   1      53.386  30.084  53.642  0.00  0.00     0.085 A 
ATOM     19  C   UNL d   1      53.804  30.603  54.126  0.00  0.00     0.020 A 
ATOM     20  C   UNL d   1      53.725  31.413  54.040  0.00  0.00     0.014 A 
BRANCH  18  21
ATOM     21  N   UNL d   1      53.462  29.273  53.724  0.00  0.00    -0.208 NA
ATOM     22  C   UNL d   1      53.297  28.922  54.451  0.00  0.00     0.279 C 
ATOM     23  O   UNL d   1      53.369  28.108  54.546  0.00  0.00    -0.265 OA
ATOM     24  C   UNL d   1      53.057  29.383  55.091  0.00  0.00     0.068 C 
ENDBRANCH  18  21
ENDBRANCH   1  15
TORSDOF 3
ENDMDL
MODEL 5
REMARK VINA RESULT:      -8.3      1.494      4.431
REMARK  3 active torsions:
REMARK  status: ('A' for Active; 'I' for Inactive)
REMARK    1  A    between atoms: S_2  and  N_1 
REMARK    2  A    between atoms: C_8  and  S_2 
REMARK       I    between atoms: C_14  and  N_15 
REMARK    3  A    between atoms: N_15  and  C_19 
ROOT
ATOM      1  S   UNL d   1      53.214  31.882  53.523  0.00  0.00     0.273 S 
ATOM      2  O   UNL d   1      53.948  32.233  53.660  0.00  0.00    -0.200 OA
ATOM      3  O   UNL d   1      52.525  32.281  53.728  0.00  0.00    -0.200 OA
ENDROOT
BRANCH   1   4
ATOM      4  N   UNL d   1      53.164  31.135  53.182  0.00  0.00    -0.212 N 
ATOM      5  C   UNL d   1      53.209  30.457  53.651  0.00  0.00     0.094 A 
ATOM      6  C   UNL d   1      53.159  29.709  53.301  0.00  0.00     0.100 A 
ATOM      7  C   UNL d   1      53.304  30.522  54.471  0.00  0.00     0.020 A 
ATOM      8  C   UNL d   1      53.203  29.022  53.770  0.00  0.00     0.021 A 
ATOM      9  N   UNL d   1      53.018  30.314  52.009  0.00  0.00    -0.223 NA
ATOM     10  C   UNL d   1      53.299  29.093  54.598  0.00  0.00     0.002 A 
ATOM     11  C   UNL d   1      53.349  29.845  54.940  0.00  0.00     0.002 A 
ATOM     12  C   UNL d   1      53.344  28.421  55.065  0.00  0.00     0.000 C 
ATOM     13  C   UNL d   1      53.444  29.922  55.753  0.00  0.00     0.000 C 
ATOM     14  C   UNL d   1      53.069  31.066  52.360  0.00  0.00     0.193 A 
ENDBRANCH   1   4
BRANCH   1  15
ATOM     15  C   UNL d   1      53.247  32.630  53.865  0.00  0.00     0.104 A 
ATOM     16  C   UNL d   1      53.962  32.934  54.127  0.00  0.00     0.014 A 
ATOM     17  C   UNL d   1      53.991  33.682  54.468  0.00  0.00     0.020 A 
ATOM     18  C   UNL d   1      53.299  34.128  54.546  0.00  0.00     0.085 A 
ATOM     19  C   UNL d   1      52.584  33.816  54.280  0.00  0.00     0.020 A 
ATOM     20  C   UNL d   1      52.551  33.073  53.940  0.00  0.00     0.014 A 
BRANCH  18  21
ATOM     21  N   UNL d   1      53.337  34.872  54.887  0.00  0.00    -0.208 NA
ATOM     22  C   UNL d   1      53.126  35.532  54.441  0.00  0.00     0.279 C 
ATOM     23  O   UNL d   1      53.160  36.285  54.772  0.00  0.00    -0.265 OA
ATOM     24  C   UNL d   1      52.878  35.447  53.660  0.00  0.00     0.068 C 
ENDBRANCH  18  21
ENDBRANCH   1  15
TORSDOF 3
ENDMDL
