MODEL 1
REMARK VINA RESULT:      -6.8      0.000      0.000
REMARK  5 active torsions:
REMARK  status: ('A' for Active; 'I' for Inactive)
REMARK    1  A    between atoms: C_5  and  N_1 
REMARK    2  A    between atoms: C_8  and  C_3 
REMARK    3  A    between atoms: C_7  and  C_4 
REMARK    4  A    between atoms: N_12  and  C_5 
REMARK    5  A    between atoms: N_11  and  C_10 
ROOT
ATOM      1  N   UNL d   1      52.289  33.615  53.217  0.00  0.00    -0.203 N 
ATOM      2  N   UNL d   1      52.814  32.994  53.347  0.00  0.00    -0.163 NA
ATOM      3  C   UNL d   1      52.444  32.308  53.270  0.00  0.00     0.103 A 
ATOM      4  C   UNL d   1      51.551  33.305  53.050  0.00  0.00     0.087 A 
ATOM      5  C   UNL d   1      51.632  32.472  53.079  0.00  0.00     0.040 A 
ENDROOT
BRANCH   4   6
ATOM      6  C   UNL d   1      50.894  33.799  52.891  0.00  0.00     0.018 A 
ATOM      7  C   UNL d   1      50.419  34.052  53.510  0.00  0.00     0.003 A 
ATOM      8  C   UNL d   1      49.783  34.528  53.371  0.00  0.00     0.018 A 
ATOM      9  C   UNL d   1      49.601  34.769  52.589  0.00  0.00     0.064 A 
ATOM     10  C   UNL d   1      50.076  34.516  51.970  0.00  0.00     0.018 A 
ATOM     11  C   UNL d   1      50.732  34.024  52.120  0.00  0.00     0.003 A 
BRANCH   9  12
ATOM     12  N   UNL d   1      48.923  35.271  52.477  0.00  0.00    -0.301 N 
ATOM     13  C   UNL d   1      48.521  35.247  51.738  0.00  0.00     0.100 C 
ATOM     14  C   UNL d   1      48.596  35.783  52.989  0.00  0.00     0.100 C 
ENDBRANCH   9  12
ENDBRANCH   4   6
BRANCH   1  15
ATOM     15  C   UNL d   1      52.478  34.443  53.251  0.00  0.00     0.222 C 
ATOM     16  S   UNL d   1      52.698  34.842  52.532  0.00  0.00    -0.037 SA
BRANCH  15  17
ATOM     17  N   UNL d   1      52.446  34.840  53.962  0.00  0.00    -0.214 NA
ATOM     18  C   UNL d   1      53.031  35.422  54.166  0.00  0.00     0.122 C 
ENDBRANCH  15  17
ENDBRANCH   1  15
BRANCH   3  19
ATOM     19  C   UNL d   1      52.805  31.573  53.363  0.00  0.00     0.019 A 
ATOM     20  C   UNL d   1      52.555  30.904  52.922  0.00  0.00     0.002 A 
ATOM     21  C   UNL d   1      52.916  30.170  53.015  0.00  0.00     0.007 A 
ATOM     22  C   UNL d   1      53.529  30.108  53.552  0.00  0.00     0.035 A 
ATOM     23  C   UNL d   1      53.791  30.760  53.999  0.00  0.00     0.007 A 
ATOM     24 BR   UNL d   1      53.903  29.335  53.644  0.00  0.00    -0.049 Br
ATOM     25  C   UNL d   1      53.426  31.490  53.900  0.00  0.00     0.002 A 
ENDBRANCH   3  19
TORSDOF 5
ENDMDL
MODEL 2
REMARK VINA RESULT:      -6.4      2.062      4.718
REMARK  5 active torsions:
REMARK  status: ('A' for Active; 'I' for Inactive)
REMARK    1  A    between atoms: C_5  and  N_1 
REMARK    2  A    between atoms: C_8  and  C_3 
REMARK    3  A    between atoms: C_7  and  C_4 
REMARK    4  A    between atoms: N_12  and  C_5 
REMARK    5  A    between atoms: N_11  and  C_10 
ROOT
ATOM      1  N   UNL d   1      51.450  34.427  53.178  0.00  0.00    -0.203 N 
ATOM      2  N   UNL d   1      50.826  34.952  53.062  0.00  0.00    -0.163 NA
ATOM      3  C   UNL d   1      50.192  34.567  52.810  0.00  0.00     0.103 A 
ATOM      4  C   UNL d   1      51.197  33.672  52.989  0.00  0.00     0.087 A 
ATOM      5  C   UNL d   1      50.397  33.744  52.752  0.00  0.00     0.040 A 
ENDROOT
BRANCH   4   6
ATOM      6  C   UNL d   1      51.706  33.011  53.049  0.00  0.00     0.018 A 
ATOM      7  C   UNL d   1      51.622  32.491  53.678  0.00  0.00     0.003 A 
ATOM      8  C   UNL d   1      52.106  31.850  53.748  0.00  0.00     0.018 A 
ATOM      9  C   UNL d   1      52.703  31.709  53.177  0.00  0.00     0.064 A 
ATOM     10  C   UNL d   1      52.788  32.228  52.548  0.00  0.00     0.018 A 
ATOM     11  C   UNL d   1      52.284  32.890  52.481  0.00  0.00     0.003 A 
BRANCH   9  12
ATOM     12  N   UNL d   1      53.196  31.024  53.281  0.00  0.00    -0.301 N 
ATOM     13  C   UNL d   1      53.956  31.124  53.629  0.00  0.00     0.100 C 
ATOM     14  C   UNL d   1      53.042  30.268  53.091  0.00  0.00     0.100 C 
ENDBRANCH   9  12
ENDBRANCH   4   6
BRANCH   1  15
ATOM     15  C   UNL d   1      52.229  34.629  53.449  0.00  0.00     0.222 C 
ATOM     16  S   UNL d   1      52.834  34.790  52.872  0.00  0.00    -0.037 SA
BRANCH  15  17
ATOM     17  N   UNL d   1      52.386  34.667  54.248  0.00  0.00    -0.214 NA
ATOM     18  C   UNL d   1      52.940  35.231  54.559  0.00  0.00     0.122 C 
ENDBRANCH  15  17
ENDBRANCH   1  15
BRANCH   3  19
ATOM     19  C   UNL d   1      49.470  34.924  52.639  0.00  0.00     0.019 A 
ATOM     20  C   UNL d   1      49.110  34.842  51.885  0.00  0.00     0.002 A 
ATOM     21  C   UNL d   1      48.388  35.199  51.714  0.00  0.00     0.007 A 
ATOM     22  C   UNL d   1      48.028  35.639  52.301  0.00  0.00     0.035 A 
ATOM     23  C   UNL d   1      48.370  35.731  53.055  0.00  0.00     0.007 A 
ATOM     24 BR   UNL d   1      47.270  36.010  52.114  0.00  0.00    -0.049 Br
ATOM     25  C   UNL d   1      49.090  35.372  53.218  0.00  0.00     0.002 A 
ENDBRANCH   3  19
TORSDOF 5
ENDMDL
MODEL 3
REMARK VINA RESULT:      -5.9      2.360      4.754
REMARK  5 active torsions:
REMARK  status: ('A' for Active; 'I' for Inactive)
REMARK    1  A    between atoms: C_5  and  N_1 
REMARK    2  A    between atoms: C_8  and  C_3 
REMARK    3  A    between atoms: C_7  and  C_4 
REMARK    4  A    between atoms: N_12  and  C_5 
REMARK    5  A    between atoms: N_11  and  C_10 
ROOT
ATOM      1  N   UNL d   1      51.890  32.937  53.055  0.00  0.00    -0.203 N 
ATOM      2  N   UNL d   1      51.174  33.088  52.676  0.00  0.00    -0.163 NA
ATOM      3  C   UNL d   1      50.999  33.851  52.725  0.00  0.00     0.103 A 
ATOM      4  C   UNL d   1      52.179  33.640  53.359  0.00  0.00     0.087 A 
ATOM      5  C   UNL d   1      51.623  34.232  53.157  0.00  0.00     0.040 A 
ENDROOT
BRANCH   4   6
ATOM      6  C   UNL d   1      52.903  33.670  53.779  0.00  0.00     0.018 A 
ATOM      7  C   UNL d   1      52.901  33.591  54.595  0.00  0.00     0.003 A 
ATOM      8  C   UNL d   1      53.591  33.619  55.011  0.00  0.00     0.018 A 
ATOM      9  C   UNL d   1      54.320  33.729  54.612  0.00  0.00     0.064 A 
ATOM     10  C   UNL d   1      54.322  33.808  53.796  0.00  0.00     0.018 A 
ATOM     11  C   UNL d   1      53.605  33.779  53.370  0.00  0.00     0.003 A 
BRANCH   9  12
ATOM     12  N   UNL d   1      55.029  33.753  55.082  0.00  0.00    -0.301 N 
ATOM     13  C   UNL d   1      55.766  33.869  54.692  0.00  0.00     0.100 C 
ATOM     14  C   UNL d   1      55.104  33.679  55.869  0.00  0.00     0.100 C 
ENDBRANCH   9  12
ENDBRANCH   4   6
BRANCH   1  15
ATOM     15  C   UNL d   1      52.269  32.180  53.123  0.00  0.00     0.222 C 
ATOM     16  S   UNL d   1      52.138  31.719  53.826  0.00  0.00    -0.037 SA
BRANCH  15  17
ATOM     17  N   UNL d   1      52.747  31.908  52.521  0.00  0.00    -0.214 NA
ATOM     18  C   UNL d   1      52.874  31.076  52.405  0.00  0.00     0.122 C 
ENDBRANCH  15  17
ENDBRANCH   1  15
BRANCH   3  19
ATOM     19  C   UNL d   1      50.321  34.191  52.404  0.00  0.00     0.019 A 
ATOM     20  C   UNL d   1      50.152  34.139  51.583  0.00  0.00     0.002 A 
ATOM     21  C   UNL d   1      49.474  34.479  51.263  0.00  0.00     0.007 A 
ATOM     22  C   UNL d   1      48.966  34.873  51.767  0.00  0.00     0.035 A 
ATOM     23  C   UNL d   1      49.117  34.936  52.584  0.00  0.00     0.007 A 
ATOM     24 BR   UNL d   1      48.257  35.228  51.424  0.00  0.00    -0.049 Br
ATOM     25  C   UNL d   1      49.795  34.593  52.897  0.00  0.00     0.002 A 
ENDBRANCH   3  19
TORSDOF 5
ENDMDL
MODEL 4
REMARK VINA RESULT:      -5.5      1.977      4.678
REMARK  5 active torsions:
REMARK  status: ('A' for Active; 'I' for Inactive)
REMARK    1  A    between atoms: C_5  and  N_1 
REMARK    2  A    between atoms: C_8  and  C_3 
REMARK    3  A    between atoms: C_7  and  C_4 
REMARK    4  A    between atoms: N_12  and  C_5 
REMARK    5  A    between atoms: N_11  and  C_10 
ROOT
ATOM      1  N   UNL d   1      52.041  33.818  53.391  0.00  0.00    -0.203 N 
ATOM      2  N   UNL d   1      51.454  34.375  53.240  0.00  0.00    -0.163 NA
ATOM      3  C   UNL d   1      50.844  34.034  52.884  0.00  0.00     0.103 A 
ATOM      4  C   UNL d   1      51.790  33.090  53.116  0.00  0.00     0.087 A 
ATOM      5  C   UNL d   1      51.029  33.210  52.789  0.00  0.00     0.040 A 
ENDROOT
BRANCH   4   6
ATOM      6  C   UNL d   1      52.268  32.406  53.188  0.00  0.00     0.018 A 
ATOM      7  C   UNL d   1      52.232  31.958  53.874  0.00  0.00     0.003 A 
ATOM      8  C   UNL d   1      52.687  31.297  53.956  0.00  0.00     0.018 A 
ATOM      9  C   UNL d   1      53.202  31.060  53.338  0.00  0.00     0.064 A 
ATOM     10  C   UNL d   1      53.237  31.508  52.652  0.00  0.00     0.018 A 
ATOM     11  C   UNL d   1      52.764  32.191  52.573  0.00  0.00     0.003 A 
BRANCH   9  12
ATOM     12  N   UNL d   1      53.667  30.358  53.458  0.00  0.00    -0.301 N 
ATOM     13  C   UNL d   1      53.286  29.669  53.755  0.00  0.00     0.100 C 
ATOM     14  C   UNL d   1      54.442  30.249  53.325  0.00  0.00     0.100 C 
ENDBRANCH   9  12
ENDBRANCH   4   6
BRANCH   1  15
ATOM     15  C   UNL d   1      52.787  33.969  53.769  0.00  0.00     0.222 C 
ATOM     16  S   UNL d   1      53.467  34.131  53.284  0.00  0.00    -0.037 SA
BRANCH  15  17
ATOM     17  N   UNL d   1      52.841  33.958  54.583  0.00  0.00    -0.214 NA
ATOM     18  C   UNL d   1      53.246  34.576  55.003  0.00  0.00     0.122 C 
ENDBRANCH  15  17
ENDBRANCH   1  15
BRANCH   3  19
ATOM     19  C   UNL d   1      50.161  34.432  52.654  0.00  0.00     0.019 A 
ATOM     20  C   UNL d   1      49.742  34.925  53.189  0.00  0.00     0.002 A 
ATOM     21  C   UNL d   1      49.058  35.322  52.959  0.00  0.00     0.007 A 
ATOM     22  C   UNL d   1      48.795  35.224  52.191  0.00  0.00     0.035 A 
ATOM     23  C   UNL d   1      49.197  34.739  51.647  0.00  0.00     0.007 A 
ATOM     24 BR   UNL d   1      48.077  35.644  51.957  0.00  0.00    -0.049 Br
ATOM     25  C   UNL d   1      49.879  34.345  51.883  0.00  0.00     0.002 A 
ENDBRANCH   3  19
TORSDOF 5
ENDMDL
