MODEL 1
REMARK VINA RESULT:      28.9      0.000      0.000
REMARK  4 active torsions:
REMARK  status: ('A' for Active; 'I' for Inactive)
REMARK    1  A    between atoms: C_7  and  N_2 
REMARK    2  A    between atoms: C_10  and  C_7 
REMARK    3  A    between atoms: O_8  and  C_10 
REMARK    4  A    between atoms: C_9  and  O_8 
ROOT
ATOM      1  C   UNL d   1      13.172  14.451  -4.107  0.00  0.00     0.296 A 
ATOM      2  N   UNL d   1      13.198  13.765  -3.653  0.00  0.00    -0.266 N 
ATOM      3  S   UNL d   1      13.024  14.224  -4.901  0.00  0.00    -0.025 SA
ATOM      4  C   UNL d   1      13.069  13.117  -4.154  0.00  0.00     0.074 A 
ATOM      5  C   UNL d   1      12.962  13.398  -4.918  0.00  0.00     0.050 A 
ATOM      6  O   UNL d   1      13.271  15.221  -3.838  0.00  0.00    -0.259 OA
ATOM      7  C   UNL d   1      13.036  12.306  -4.000  0.00  0.00     0.018 A 
ATOM      8  C   UNL d   1      12.820  12.874  -5.546  0.00  0.00     0.008 A 
ATOM      9  C   UNL d   1      12.896  11.779  -4.622  0.00  0.00     0.002 A 
ATOM     10  C   UNL d   1      12.789  12.060  -5.386  0.00  0.00     0.001 A 
ENDROOT
BRANCH   2  11
ATOM     11  C   UNL d   1      13.331  13.729  -2.839  0.00  0.00     0.110 C 
BRANCH  11  12
ATOM     12  C   UNL d   1      14.070  13.518  -2.547  0.00  0.00     0.142 C 
BRANCH  12  13
ATOM     13  O   UNL d   1      14.288  13.699  -1.769  0.00  0.00    -0.304 OA
BRANCH  13  14
ATOM     14  C   UNL d   1      14.623  13.121  -1.285  0.00  0.00     0.100 A 
ATOM     15  C   UNL d   1      14.732  12.355  -1.574  0.00  0.00     0.025 A 
ATOM     16  C   UNL d   1      15.065  11.780  -1.092  0.00  0.00     0.002 A 
ATOM     17  C   UNL d   1      15.290  11.972  -0.322  0.00  0.00     0.000 A 
ATOM     18  C   UNL d   1      15.180  12.741  -0.035  0.00  0.00     0.002 A 
ATOM     19  C   UNL d   1      14.844  13.311  -0.525  0.00  0.00     0.025 A 
ENDBRANCH  13  14
ENDBRANCH  12  13
ENDBRANCH  11  12
ENDBRANCH   2  11
TORSDOF 4
ENDMDL
