MODEL 1
REMARK VINA RESULT:      10.1      0.000      0.000
REMARK  5 active torsions:
REMARK  status: ('A' for Active; 'I' for Inactive)
REMARK    1  A    between atoms: N_5  and  C_1 
REMARK    2  A    between atoms: N_6  and  C_1 
REMARK       I    between atoms: C_2  and  N_3 
REMARK    3  A    between atoms: C_4  and  C_2 
REMARK    4  A    between atoms: N_3  and  N_5 
REMARK    5  A    between atoms: C_10  and  N_6 
ROOT
ATOM      1  C   UNL d   1      23.925  12.131  -2.505  0.00  0.00     0.272 C 
ATOM      2  N   UNL d   1      24.621  12.122  -2.940  0.00  0.00    -0.264 N 
ATOM      3  O   UNL d   1      23.219  11.894  -2.841  0.00  0.00    -0.266 OA
ATOM      4  H   UNL d   1      25.334  12.368  -2.582  0.00  0.00     0.190 HD
ENDROOT
BRANCH   2   5
ATOM      5  N   UNL d   1      24.618  11.875  -3.711  0.00  0.00    -0.274 N 
ATOM      6  H   UNL d   1      24.565  11.062  -3.889  0.00  0.00     0.189 HD
BRANCH   5   7
ATOM      7  C   UNL d   1      24.669  12.433  -4.318  0.00  0.00     0.187 C 
ATOM      8  S   UNL d   1      24.622  13.237  -4.149  0.00  0.00    -0.040 SA
BRANCH   7   9
ATOM      9  N   UNL d   1      24.768  12.174  -5.090  0.00  0.00    -0.354 N 
ATOM     10  H   UNL d   1      24.976  11.397  -5.235  0.00  0.00     0.162 HD
BRANCH   9  11
ATOM     11  C   UNL d   1      24.653  12.708  -5.710  0.00  0.00     0.063 C 
ATOM     12  C   UNL d   1      24.538  13.231  -6.337  0.00  0.00     0.022 C 
ATOM     13  C   UNL d   1      24.753  13.341  -5.203  0.00  0.00     0.022 C 
ATOM     14  C   UNL d   1      24.551  12.066  -6.236  0.00  0.00     0.022 C 
ENDBRANCH   9  11
ENDBRANCH   7   9
ENDBRANCH   5   7
ENDBRANCH   2   5
BRANCH   1  15
ATOM     15  C   UNL d   1      23.932  12.383  -1.720  0.00  0.00     0.058 A 
ATOM     16  C   UNL d   1      23.388  12.964  -1.466  0.00  0.00     0.011 A 
ATOM     17  C   UNL d   1      23.401  13.207  -0.692  0.00  0.00     0.035 A 
ATOM     18 BR   UNL d   1      22.876  13.768  -0.444  0.00  0.00    -0.049 Br
ATOM     19  C   UNL d   1      23.941  12.889  -0.158  0.00  0.00     0.007 A 
ATOM     20  C   UNL d   1      24.488  12.310  -0.397  0.00  0.00     0.001 A 
ATOM     21  C   UNL d   1      24.472  12.065  -1.186  0.00  0.00     0.005 A 
ENDBRANCH   1  15
TORSDOF 5
ENDMDL
