MODEL 1
REMARK VINA RESULT:      -1.4      0.000      0.000
REMARK  6 active torsions:
REMARK  status: ('A' for Active; 'I' for Inactive)
REMARK    1  A    between atoms: C_6  and  C_1 
REMARK    2  A    between atoms: N_4  and  C_2 
REMARK       I    between atoms: C_8  and  N_4 
REMARK    3  A    between atoms: C_11  and  C_8 
REMARK    4  A    between atoms: O_22  and  C_10 
REMARK    5  A    between atoms: O_24  and  C_12 
REMARK    6  A    between atoms: O_23  and  C_13 
ROOT
ATOM      1  C   UNL d   1     -46.988  12.748  22.898  0.00  0.00     0.080 A 
ATOM      2  C   UNL d   1     -47.457  12.169  23.253  0.00  0.00     0.188 A 
ATOM      3  C   UNL d   1     -46.176  12.623  22.810  0.00  0.00     0.201 A 
ATOM      4  O   UNL d   1     -47.115  11.465  23.518  0.00  0.00    -0.289 OA
ATOM      5  C   UNL d   1     -45.836  11.921  23.074  0.00  0.00     0.062 A 
ATOM      6  C   UNL d   1     -46.305  11.342  23.428  0.00  0.00     0.105 A 
ATOM      7  O   UNL d   1     -45.707  13.201  22.455  0.00  0.00    -0.286 OA
ATOM      8  C   UNL d   1     -45.027  11.797  22.985  0.00  0.00     0.005 A 
ATOM      9  C   UNL d   1     -45.966  10.640  23.693  0.00  0.00     0.025 A 
ATOM     10  C   UNL d   1     -44.681  11.091  23.251  0.00  0.00     0.000 A 
ATOM     11  C   UNL d   1     -45.150  10.513  23.605  0.00  0.00     0.002 A 
ENDROOT
BRANCH   1  12
ATOM     12  C   UNL d   1     -47.328  13.450  22.634  0.00  0.00     0.011 A 
ATOM     13  C   UNL d   1     -47.798  13.449  21.959  0.00  0.00     0.027 A 
ATOM     14  C   UNL d   1     -48.143  14.154  21.689  0.00  0.00     0.118 A 
ATOM     15  C   UNL d   1     -48.012  14.861  22.103  0.00  0.00     0.138 A 
ATOM     16  C   UNL d   1     -47.537  14.858  22.784  0.00  0.00     0.118 A 
ATOM     17  C   UNL d   1     -47.197  14.157  23.048  0.00  0.00     0.027 A 
BRANCH  14  18
ATOM     18  O   UNL d   1     -48.617  14.149  21.006  0.00  0.00    -0.326 OA
ATOM     19  C   UNL d   1     -49.148  13.526  20.869  0.00  0.00     0.181 C 
ENDBRANCH  14  18
BRANCH  15  20
ATOM     20  O   UNL d   1     -48.353  15.572  21.840  0.00  0.00    -0.324 OA
ATOM     21  C   UNL d   1     -49.043  15.863  22.197  0.00  0.00     0.182 C 
ENDBRANCH  15  20
BRANCH  16  22
ATOM     22  O   UNL d   1     -47.407  15.561  23.196  0.00  0.00    -0.326 OA
ATOM     23  C   UNL d   1     -46.662  15.912  23.188  0.00  0.00     0.181 C 
ENDBRANCH  16  22
ENDBRANCH   1  12
BRANCH   2  24
ATOM     24  N   UNL d   1     -48.278  12.292  23.345  0.00  0.00    -0.182 NA
ATOM     25  C   UNL d   1     -48.784  11.640  23.426  0.00  0.00     0.304 C 
ATOM     26  O   UNL d   1     -48.485  10.872  23.416  0.00  0.00    -0.263 OA
BRANCH  25  27
ATOM     27  C   UNL d   1     -49.599  11.768  23.517  0.00  0.00     0.158 A 
ATOM     28  O   UNL d   1     -50.049  12.453  23.542  0.00  0.00    -0.300 OA
ATOM     29  C   UNL d   1     -50.839  12.238  23.644  0.00  0.00     0.123 A 
ATOM     30  C   UNL d   1     -50.875  11.410  23.682  0.00  0.00     0.029 A 
ATOM     31  C   UNL d   1     -50.108  11.124  23.603  0.00  0.00     0.032 A 
ENDBRANCH  25  27
ENDBRANCH   2  24
TORSDOF 6
ENDMDL
