MODEL 1
REMARK VINA RESULT:      74.9      0.000      0.000
REMARK  10 active torsions:
REMARK  status: ('A' for Active; 'I' for Inactive)
REMARK    1  A    between atoms: C_5  and  C_1 
REMARK    2  A    between atoms: C_8  and  N_2 
REMARK    3  A    between atoms: C_9  and  C_5 
REMARK    4  A    between atoms: C_7  and  C_8 
REMARK       I    between atoms: N_13  and  C_7 
REMARK       I    between atoms: N_19  and  C_9 
REMARK    5  A    between atoms: N_11  and  C_21 
REMARK    6  A    between atoms: C_24  and  N_13 
REMARK    7  A    between atoms: C_25  and  N_13 
REMARK    8  A    between atoms: C_26  and  N_19 
REMARK    9  A    between atoms: C_21  and  C_23 
REMARK   10  A    between atoms: C_23  and  C_26 
ROOT
ATOM      1  C   UNL d   1      60.639  48.367  50.790  0.00  0.00     0.063 A 
ATOM      2  N   UNL d   1      59.618  49.226  50.915  0.00  0.00    -0.300 N 
ATOM      3  C   UNL d   1      59.968  48.683  50.402  0.00  0.00     0.084 A 
ATOM      4  C   UNL d   1      60.693  48.719  51.534  0.00  0.00     0.021 A 
ATOM      5  C   UNL d   1      60.055  49.254  51.609  0.00  0.00     0.064 A 
ATOM      6  C   UNL d   1      61.225  48.630  52.148  0.00  0.00     0.002 A 
ATOM      7  C   UNL d   1      59.971  49.688  52.306  0.00  0.00     0.018 A 
ATOM      8  C   UNL d   1      61.141  49.066  52.848  0.00  0.00     0.000 A 
ATOM      9  C   UNL d   1      60.510  49.595  52.921  0.00  0.00     0.002 A 
ENDROOT
BRANCH   1  10
ATOM     10  C   UNL d   1      61.151  47.805  50.478  0.00  0.00     0.254 C 
ATOM     11  O   UNL d   1      61.161  47.042  50.798  0.00  0.00    -0.281 OA
BRANCH  10  12
ATOM     12  C   UNL d   1      61.652  47.994  49.852  0.00  0.00     0.318 C 
ATOM     13  O   UNL d   1      61.873  48.778  49.734  0.00  0.00    -0.262 OA
ATOM     14  N   UNL d   1      61.925  47.398  49.351  0.00  0.00    -0.204 NA
BRANCH  14  15
ATOM     15  C   UNL d   1      61.699  46.621  49.476  0.00  0.00     0.104 C 
BRANCH  15  16
ATOM     16  C   UNL d   1      61.572  46.131  48.828  0.00  0.00     0.040 C 
BRANCH  16  17
ATOM     17  C   UNL d   1      61.232  45.381  48.941  0.00  0.00     0.083 C 
BRANCH  17  18
ATOM     18  N   UNL d   1      61.715  44.725  49.108  0.00  0.00    -0.285 N 
ATOM     19  C   UNL d   1      61.450  43.950  49.211  0.00  0.00     0.183 A 
ATOM     20  N   UNL d   1      62.123  43.482  49.366  0.00  0.00    -0.222 NA
ATOM     21  C   UNL d   1      62.798  43.974  49.357  0.00  0.00     0.120 A 
ATOM     22  C   UNL d   1      62.534  44.744  49.195  0.00  0.00     0.102 A 
ENDBRANCH  17  18
ENDBRANCH  16  17
ENDBRANCH  15  16
ENDBRANCH  14  15
ENDBRANCH  10  12
ENDBRANCH   1  10
BRANCH   2  23
ATOM     23  C   UNL d   1      58.940  49.668  50.755  0.00  0.00     0.142 C 
BRANCH  23  24
ATOM     24  C   UNL d   1      58.555  49.589  50.036  0.00  0.00     0.282 C 
ATOM     25  N   UNL d   1      57.741  49.459  50.012  0.00  0.00    -0.271 N 
ATOM     26  O   UNL d   1      58.986  49.638  49.331  0.00  0.00    -0.265 OA
BRANCH  25  27
ATOM     27  C   UNL d   1      57.311  49.410  50.713  0.00  0.00     0.083 C 
ATOM     28  C   UNL d   1      56.535  49.677  50.739  0.00  0.00     0.021 C 
ENDBRANCH  25  27
BRANCH  25  29
ATOM     29  C   UNL d   1      57.357  49.379  49.284  0.00  0.00     0.083 C 
ATOM     30  C   UNL d   1      56.570  49.615  49.206  0.00  0.00     0.021 C 
ENDBRANCH  25  29
ENDBRANCH  23  24
ENDBRANCH   2  23
TORSDOF 10
ENDMDL
