MODEL 1
REMARK VINA RESULT:      -6.1      0.000      0.000
REMARK  8 active torsions:
REMARK  status: ('A' for Active; 'I' for Inactive)
REMARK    1  A    between atoms: C_11  and  C_1 
REMARK    2  A    between atoms: C_10  and  C_2 
REMARK    3  A    between atoms: C_4  and  C_3 
REMARK    4  A    between atoms: C_14  and  C_9 
REMARK    5  A    between atoms: O_17  and  C_10 
REMARK    6  A    between atoms: O_18  and  C_11 
REMARK    7  A    between atoms: C_24  and  O_17 
REMARK    8  A    between atoms: C_23  and  O_18 
ROOT
ATOM      1  C   UNL d   1      53.584  33.603  54.315  0.00  0.00     0.083 A 
ATOM      2  C   UNL d   1      53.572  32.415  53.477  0.00  0.00     0.083 A 
ATOM      3  C   UNL d   1      53.196  33.057  53.833  0.00  0.00     0.036 A 
ATOM      4  C   UNL d   1      54.374  32.316  53.611  0.00  0.00     0.087 A 
ATOM      5  C   UNL d   1      54.434  33.485  54.449  0.00  0.00     0.087 A 
ATOM      6  N   UNL d   1      54.812  32.832  54.085  0.00  0.00    -0.245 NA
ATOM      7  C   UNL d   1      54.795  31.644  53.245  0.00  0.00     0.021 C 
ATOM      8  C   UNL d   1      54.866  34.001  54.921  0.00  0.00     0.021 C 
ENDROOT
BRANCH   3   9
ATOM      9  C   UNL d   1      52.382  33.178  53.711  0.00  0.00     0.100 A 
ATOM     10  O   UNL d   1      52.028  33.608  53.086  0.00  0.00    -0.307 OA
ATOM     11  C   UNL d   1      51.209  33.565  53.214  0.00  0.00     0.100 A 
ATOM     12  C   UNL d   1      51.084  33.120  53.896  0.00  0.00     0.027 A 
ATOM     13  C   UNL d   1      51.792  32.886  54.198  0.00  0.00     0.027 A 
BRANCH  11  14
ATOM     14  C   UNL d   1      50.760  33.966  52.642  0.00  0.00     0.023 A 
ATOM     15  C   UNL d   1      50.079  34.351  52.885  0.00  0.00     0.002 A 
ATOM     16  C   UNL d   1      49.620  34.750  52.350  0.00  0.00     0.000 A 
ATOM     17  C   UNL d   1      49.867  34.759  51.518  0.00  0.00     0.000 A 
ATOM     18  C   UNL d   1      50.552  34.366  51.295  0.00  0.00     0.000 A 
ATOM     19  C   UNL d   1      50.987  33.973  51.877  0.00  0.00     0.002 A 
ENDBRANCH  11  14
ENDBRANCH   3   9
BRANCH   2  20
ATOM     20  C   UNL d   1      53.178  31.869  52.993  0.00  0.00     0.302 C 
ATOM     21  O   UNL d   1      53.051  32.031  52.210  0.00  0.00    -0.259 OA
BRANCH  20  22
ATOM     22  O   UNL d   1      52.908  31.151  53.294  0.00  0.00    -0.271 OA
BRANCH  22  23
ATOM     23  C   UNL d   1      52.751  30.320  52.816  0.00  0.00     0.126 C 
ATOM     24  C   UNL d   1      52.495  29.706  53.297  0.00  0.00     0.029 C 
ENDBRANCH  22  23
ENDBRANCH  20  22
ENDBRANCH   2  20
BRANCH   1  25
ATOM     25  C   UNL d   1      53.200  34.271  54.688  0.00  0.00     0.302 C 
ATOM     26  O   UNL d   1      52.750  34.171  55.346  0.00  0.00    -0.259 OA
BRANCH  25  27
ATOM     27  O   UNL d   1      53.309  35.023  54.345  0.00  0.00    -0.271 OA
BRANCH  27  28
ATOM     28  C   UNL d   1      53.159  35.733  54.751  0.00  0.00     0.126 C 
ATOM     29  C   UNL d   1      53.303  36.320  54.137  0.00  0.00     0.029 C 
ENDBRANCH  27  28
ENDBRANCH  25  27
ENDBRANCH   1  25
TORSDOF 8
ENDMDL
MODEL 2
REMARK VINA RESULT:      -6.0      0.107      3.000
REMARK  8 active torsions:
REMARK  status: ('A' for Active; 'I' for Inactive)
REMARK    1  A    between atoms: C_11  and  C_1 
REMARK    2  A    between atoms: C_10  and  C_2 
REMARK    3  A    between atoms: C_4  and  C_3 
REMARK    4  A    between atoms: C_14  and  C_9 
REMARK    5  A    between atoms: O_17  and  C_10 
REMARK    6  A    between atoms: O_18  and  C_11 
REMARK    7  A    between atoms: C_24  and  O_17 
REMARK    8  A    between atoms: C_23  and  O_18 
ROOT
ATOM      1  C   UNL d   1      53.514  32.320  53.445  0.00  0.00     0.083 A 
ATOM      2  C   UNL d   1      53.593  33.499  54.293  0.00  0.00     0.083 A 
ATOM      3  C   UNL d   1      53.173  32.974  53.815  0.00  0.00     0.036 A 
ATOM      4  C   UNL d   1      54.393  33.362  54.405  0.00  0.00     0.087 A 
ATOM      5  C   UNL d   1      54.363  32.188  53.572  0.00  0.00     0.087 A 
ATOM      6  N   UNL d   1      54.787  32.723  54.058  0.00  0.00    -0.245 NA
ATOM      7  C   UNL d   1      54.859  33.903  54.906  0.00  0.00     0.021 C 
ATOM      8  C   UNL d   1      54.751  31.551  53.225  0.00  0.00     0.021 C 
ENDROOT
BRANCH   3   9
ATOM      9  C   UNL d   1      52.359  33.093  53.688  0.00  0.00     0.100 A 
ATOM     10  O   UNL d   1      52.010  33.553  53.081  0.00  0.00    -0.307 OA
ATOM     11  C   UNL d   1      51.190  33.494  53.193  0.00  0.00     0.100 A 
ATOM     12  C   UNL d   1      51.059  33.011  53.848  0.00  0.00     0.027 A 
ATOM     13  C   UNL d   1      51.765  32.768  54.148  0.00  0.00     0.027 A 
BRANCH  11  14
ATOM     14  C   UNL d   1      50.745  33.920  52.637  0.00  0.00     0.023 A 
ATOM     15  C   UNL d   1      50.071  34.307  52.896  0.00  0.00     0.002 A 
ATOM     16  C   UNL d   1      49.615  34.731  52.376  0.00  0.00     0.000 A 
ATOM     17  C   UNL d   1      49.860  34.764  51.544  0.00  0.00     0.000 A 
ATOM     18  C   UNL d   1      50.539  34.370  51.305  0.00  0.00     0.000 A 
ATOM     19  C   UNL d   1      50.970  33.950  51.872  0.00  0.00     0.002 A 
ENDBRANCH  11  14
ENDBRANCH   3   9
BRANCH   2  20
ATOM     20  C   UNL d   1      53.245  34.153  54.663  0.00  0.00     0.302 C 
ATOM     21  O   UNL d   1      52.850  34.067  55.365  0.00  0.00    -0.259 OA
BRANCH  20  22
ATOM     22  O   UNL d   1      53.291  34.906  54.329  0.00  0.00    -0.271 OA
BRANCH  22  23
ATOM     23  C   UNL d   1      53.110  35.762  54.750  0.00  0.00     0.126 C 
ATOM     24  C   UNL d   1      53.239  36.406  54.256  0.00  0.00     0.029 C 
ENDBRANCH  22  23
ENDBRANCH  20  22
ENDBRANCH   2  20
BRANCH   1  25
ATOM     25  C   UNL d   1      53.085  31.772  52.947  0.00  0.00     0.302 C 
ATOM     26  O   UNL d   1      52.882  31.972  52.196  0.00  0.00    -0.259 OA
BRANCH  25  27
ATOM     27  O   UNL d   1      52.886  31.029  53.270  0.00  0.00    -0.271 OA
BRANCH  27  28
ATOM     28  C   UNL d   1      52.737  30.357  52.803  0.00  0.00     0.126 C 
ATOM     29  C   UNL d   1      52.575  29.759  53.402  0.00  0.00     0.029 C 
ENDBRANCH  27  28
ENDBRANCH  25  27
ENDBRANCH   1  25
TORSDOF 8
ENDMDL
MODEL 3
REMARK VINA RESULT:      -5.9      1.203      3.573
REMARK  8 active torsions:
REMARK  status: ('A' for Active; 'I' for Inactive)
REMARK    1  A    between atoms: C_11  and  C_1 
REMARK    2  A    between atoms: C_10  and  C_2 
REMARK    3  A    between atoms: C_4  and  C_3 
REMARK    4  A    between atoms: C_14  and  C_9 
REMARK    5  A    between atoms: O_17  and  C_10 
REMARK    6  A    between atoms: O_18  and  C_11 
REMARK    7  A    between atoms: C_24  and  O_17 
REMARK    8  A    between atoms: C_23  and  O_18 
ROOT
ATOM      1  C   UNL d   1      53.082  34.332  54.054  0.00  0.00     0.083 A 
ATOM      2  C   UNL d   1      51.735  34.154  53.536  0.00  0.00     0.083 A 
ATOM      3  C   UNL d   1      52.516  33.905  53.633  0.00  0.00     0.036 A 
ATOM      4  C   UNL d   1      51.513  34.865  53.878  0.00  0.00     0.087 A 
ATOM      5  C   UNL d   1      52.832  35.083  54.411  0.00  0.00     0.087 A 
ATOM      6  N   UNL d   1      52.038  35.334  54.311  0.00  0.00    -0.245 NA
ATOM      7  C   UNL d   1      50.693  35.150  53.789  0.00  0.00     0.021 C 
ATOM      8  C   UNL d   1      53.358  35.547  54.841  0.00  0.00     0.021 C 
ENDROOT
BRANCH   3   9
ATOM      9  C   UNL d   1      52.765  33.187  53.295  0.00  0.00     0.100 A 
ATOM     10  O   UNL d   1      52.698  32.424  53.635  0.00  0.00    -0.307 OA
ATOM     11  C   UNL d   1      53.025  31.899  53.082  0.00  0.00     0.100 A 
ATOM     12  C   UNL d   1      53.278  32.340  52.434  0.00  0.00     0.027 A 
ATOM     13  C   UNL d   1      53.121  33.118  52.561  0.00  0.00     0.027 A 
BRANCH  11  14
ATOM     14  C   UNL d   1      53.008  31.105  53.325  0.00  0.00     0.023 A 
ATOM     15  C   UNL d   1      52.570  30.574  52.881  0.00  0.00     0.002 A 
ATOM     16  C   UNL d   1      52.534  29.792  53.093  0.00  0.00     0.000 A 
ATOM     17  C   UNL d   1      52.969  29.535  53.799  0.00  0.00     0.000 A 
ATOM     18  C   UNL d   1      53.401  30.083  54.230  0.00  0.00     0.000 A 
ATOM     19  C   UNL d   1      53.408  30.869  53.974  0.00  0.00     0.002 A 
ENDBRANCH  11  14
ENDBRANCH   3   9
BRANCH   2  20
ATOM     20  C   UNL d   1      51.170  33.722  53.112  0.00  0.00     0.302 C 
ATOM     21  O   UNL d   1      50.765  33.116  53.465  0.00  0.00    -0.259 OA
BRANCH  20  22
ATOM     22  O   UNL d   1      51.006  33.894  52.322  0.00  0.00    -0.271 OA
BRANCH  22  23
ATOM     23  C   UNL d   1      50.160  33.815  51.853  0.00  0.00     0.126 C 
ATOM     24  C   UNL d   1      50.159  34.168  51.112  0.00  0.00     0.029 C 
ENDBRANCH  22  23
ENDBRANCH  20  22
ENDBRANCH   2  20
BRANCH   1  25
ATOM     25  C   UNL d   1      53.893  34.080  54.159  0.00  0.00     0.302 C 
ATOM     26  O   UNL d   1      54.415  34.114  53.549  0.00  0.00    -0.259 OA
BRANCH  25  27
ATOM     27  O   UNL d   1      54.119  33.800  54.912  0.00  0.00    -0.271 OA
BRANCH  27  28
ATOM     28  C   UNL d   1      54.912  33.757  55.160  0.00  0.00     0.126 C 
ATOM     29  C   UNL d   1      54.834  33.373  55.928  0.00  0.00     0.029 C 
ENDBRANCH  27  28
ENDBRANCH  25  27
ENDBRANCH   1  25
TORSDOF 8
ENDMDL
MODEL 4
REMARK VINA RESULT:      -5.5      1.212      3.812
REMARK  8 active torsions:
REMARK  status: ('A' for Active; 'I' for Inactive)
REMARK    1  A    between atoms: C_11  and  C_1 
REMARK    2  A    between atoms: C_10  and  C_2 
REMARK    3  A    between atoms: C_4  and  C_3 
REMARK    4  A    between atoms: C_14  and  C_9 
REMARK    5  A    between atoms: O_17  and  C_10 
REMARK    6  A    between atoms: O_18  and  C_11 
REMARK    7  A    between atoms: C_24  and  O_17 
REMARK    8  A    between atoms: C_23  and  O_18 
ROOT
ATOM      1  C   UNL d   1      51.618  34.158  53.489  0.00  0.00     0.083 A 
ATOM      2  C   UNL d   1      52.951  34.430  54.001  0.00  0.00     0.083 A 
ATOM      3  C   UNL d   1      52.413  33.960  53.590  0.00  0.00     0.036 A 
ATOM      4  C   UNL d   1      52.681  35.132  54.325  0.00  0.00     0.087 A 
ATOM      5  C   UNL d   1      51.345  34.905  53.838  0.00  0.00     0.087 A 
ATOM      6  N   UNL d   1      51.895  35.380  54.255  0.00  0.00    -0.245 NA
ATOM      7  C   UNL d   1      53.231  35.647  54.765  0.00  0.00     0.021 C 
ATOM      8  C   UNL d   1      50.563  35.148  53.765  0.00  0.00     0.021 C 
ENDROOT
BRANCH   3   9
ATOM      9  C   UNL d   1      52.665  33.243  53.252  0.00  0.00     0.100 A 
ATOM     10  O   UNL d   1      52.646  32.486  53.611  0.00  0.00    -0.307 OA
ATOM     11  C   UNL d   1      52.955  31.959  53.050  0.00  0.00     0.100 A 
ATOM     12  C   UNL d   1      53.152  32.393  52.378  0.00  0.00     0.027 A 
ATOM     13  C   UNL d   1      52.977  33.169  52.499  0.00  0.00     0.027 A 
BRANCH  11  14
ATOM     14  C   UNL d   1      52.981  31.171  53.310  0.00  0.00     0.023 A 
ATOM     15  C   UNL d   1      52.556  30.611  52.889  0.00  0.00     0.002 A 
ATOM     16  C   UNL d   1      52.562  29.834  53.119  0.00  0.00     0.000 A 
ATOM     17  C   UNL d   1      53.027  29.612  53.818  0.00  0.00     0.000 A 
ATOM     18  C   UNL d   1      53.445  30.188  54.225  0.00  0.00     0.000 A 
ATOM     19  C   UNL d   1      53.409  30.968  53.953  0.00  0.00     0.002 A 
ENDBRANCH  11  14
ENDBRANCH   3   9
BRANCH   2  20
ATOM     20  C   UNL d   1      53.749  34.227  54.100  0.00  0.00     0.302 C 
ATOM     21  O   UNL d   1      54.276  34.319  53.492  0.00  0.00    -0.259 OA
BRANCH  20  22
ATOM     22  O   UNL d   1      54.025  33.926  54.816  0.00  0.00    -0.271 OA
BRANCH  22  23
ATOM     23  C   UNL d   1      54.944  33.859  55.125  0.00  0.00     0.126 C 
ATOM     24  C   UNL d   1      55.023  33.466  55.842  0.00  0.00     0.029 C 
ENDBRANCH  22  23
ENDBRANCH  20  22
ENDBRANCH   2  20
BRANCH   1  25
ATOM     25  C   UNL d   1      51.054  33.675  53.063  0.00  0.00     0.302 C 
ATOM     26  O   UNL d   1      50.725  33.029  53.409  0.00  0.00    -0.259 OA
BRANCH  25  27
ATOM     27  O   UNL d   1      50.860  33.899  52.284  0.00  0.00    -0.271 OA
BRANCH  27  28
ATOM     28  C   UNL d   1      50.109  33.775  51.950  0.00  0.00     0.126 C 
ATOM     29  C   UNL d   1      50.192  34.161  51.183  0.00  0.00     0.029 C 
ENDBRANCH  27  28
ENDBRANCH  25  27
ENDBRANCH   1  25
TORSDOF 8
ENDMDL
MODEL 5
REMARK VINA RESULT:      -3.9      1.624      4.440
REMARK  8 active torsions:
REMARK  status: ('A' for Active; 'I' for Inactive)
REMARK    1  A    between atoms: C_11  and  C_1 
REMARK    2  A    between atoms: C_10  and  C_2 
REMARK    3  A    between atoms: C_4  and  C_3 
REMARK    4  A    between atoms: C_14  and  C_9 
REMARK    5  A    between atoms: O_17  and  C_10 
REMARK    6  A    between atoms: O_18  and  C_11 
REMARK    7  A    between atoms: C_24  and  O_17 
REMARK    8  A    between atoms: C_23  and  O_18 
ROOT
ATOM      1  C   UNL d   1      52.612  31.045  53.374  0.00  0.00     0.083 A 
ATOM      2  C   UNL d   1      52.070  32.357  53.063  0.00  0.00     0.083 A 
ATOM      3  C   UNL d   1      52.691  31.861  53.282  0.00  0.00     0.036 A 
ATOM      4  C   UNL d   1      51.335  32.019  52.930  0.00  0.00     0.087 A 
ATOM      5  C   UNL d   1      51.828  30.700  53.230  0.00  0.00     0.087 A 
ATOM      6  N   UNL d   1      51.199  31.208  53.008  0.00  0.00    -0.245 NA
ATOM      7  C   UNL d   1      50.662  32.524  52.697  0.00  0.00     0.021 C 
ATOM      8  C   UNL d   1      51.697  29.892  53.308  0.00  0.00     0.021 C 
ENDROOT
BRANCH   3   9
ATOM      9  C   UNL d   1      53.446  32.181  53.422  0.00  0.00     0.100 A 
ATOM     10  O   UNL d   1      53.693  32.602  54.103  0.00  0.00    -0.307 OA
ATOM     11  C   UNL d   1      54.487  32.801  53.973  0.00  0.00     0.100 A 
ATOM     12  C   UNL d   1      54.703  32.507  53.234  0.00  0.00     0.027 A 
ATOM     13  C   UNL d   1      54.075  32.132  52.900  0.00  0.00     0.027 A 
BRANCH  11  14
ATOM     14  C   UNL d   1      54.832  33.226  54.598  0.00  0.00     0.023 A 
ATOM     15  C   UNL d   1      55.433  33.754  54.421  0.00  0.00     0.002 A 
ATOM     16  C   UNL d   1      55.789  34.183  55.009  0.00  0.00     0.000 A 
ATOM     17  C   UNL d   1      55.518  34.068  55.826  0.00  0.00     0.000 A 
ATOM     18  C   UNL d   1      54.915  33.535  55.981  0.00  0.00     0.000 A 
ATOM     19  C   UNL d   1      54.582  33.121  55.348  0.00  0.00     0.002 A 
ENDBRANCH  11  14
ENDBRANCH   3   9
BRANCH   2  20
ATOM     20  C   UNL d   1      52.154  33.177  52.971  0.00  0.00     0.302 C 
ATOM     21  O   UNL d   1      52.476  33.484  52.295  0.00  0.00    -0.259 OA
BRANCH  20  22
ATOM     22  O   UNL d   1      51.913  33.698  53.563  0.00  0.00    -0.271 OA
BRANCH  22  23
ATOM     23  C   UNL d   1      51.681  34.637  53.479  0.00  0.00     0.126 C 
ATOM     24  C   UNL d   1      51.789  35.067  54.170  0.00  0.00     0.029 C 
ENDBRANCH  22  23
ENDBRANCH  20  22
ENDBRANCH   2  20
BRANCH   1  25
ATOM     25  C   UNL d   1      53.252  30.524  53.601  0.00  0.00     0.302 C 
ATOM     26  O   UNL d   1      53.858  30.374  53.095  0.00  0.00    -0.259 OA
BRANCH  25  27
ATOM     27  O   UNL d   1      53.224  30.181  54.360  0.00  0.00    -0.271 OA
BRANCH  27  28
ATOM     28  C   UNL d   1      53.566  29.444  54.539  0.00  0.00     0.126 C 
ATOM     29  C   UNL d   1      53.391  29.368  55.379  0.00  0.00     0.029 C 
ENDBRANCH  27  28
ENDBRANCH  25  27
ENDBRANCH   1  25
TORSDOF 8
ENDMDL
MODEL 6
REMARK VINA RESULT:      -3.8      1.611      3.678
REMARK  8 active torsions:
REMARK  status: ('A' for Active; 'I' for Inactive)
REMARK    1  A    between atoms: C_11  and  C_1 
REMARK    2  A    between atoms: C_10  and  C_2 
REMARK    3  A    between atoms: C_4  and  C_3 
REMARK    4  A    between atoms: C_14  and  C_9 
REMARK    5  A    between atoms: O_17  and  C_10 
REMARK    6  A    between atoms: O_18  and  C_11 
REMARK    7  A    between atoms: C_24  and  O_17 
REMARK    8  A    between atoms: C_23  and  O_18 
ROOT
ATOM      1  C   UNL d   1      51.867  32.375  53.297  0.00  0.00     0.083 A 
ATOM      2  C   UNL d   1      52.417  31.032  53.391  0.00  0.00     0.083 A 
ATOM      3  C   UNL d   1      52.499  31.853  53.393  0.00  0.00     0.036 A 
ATOM      4  C   UNL d   1      51.666  30.721  53.288  0.00  0.00     0.087 A 
ATOM      5  C   UNL d   1      51.078  32.031  53.188  0.00  0.00     0.087 A 
ATOM      6  N   UNL d   1      50.998  31.196  53.186  0.00  0.00    -0.245 NA
ATOM      7  C   UNL d   1      51.553  29.855  53.282  0.00  0.00     0.021 C 
ATOM      8  C   UNL d   1      50.415  32.507  53.087  0.00  0.00     0.021 C 
ENDROOT
BRANCH   3   9
ATOM      9  C   UNL d   1      53.251  32.192  53.497  0.00  0.00     0.100 A 
ATOM     10  O   UNL d   1      53.538  32.574  54.185  0.00  0.00    -0.307 OA
ATOM     11  C   UNL d   1      54.312  32.813  54.009  0.00  0.00     0.100 A 
ATOM     12  C   UNL d   1      54.479  32.578  53.237  0.00  0.00     0.027 A 
ATOM     13  C   UNL d   1      53.838  32.202  52.926  0.00  0.00     0.027 A 
BRANCH  11  14
ATOM     14  C   UNL d   1      54.691  33.207  54.634  0.00  0.00     0.023 A 
ATOM     15  C   UNL d   1      55.292  33.733  54.451  0.00  0.00     0.002 A 
ATOM     16  C   UNL d   1      55.681  34.133  55.039  0.00  0.00     0.000 A 
ATOM     17  C   UNL d   1      55.445  33.989  55.862  0.00  0.00     0.000 A 
ATOM     18  C   UNL d   1      54.842  33.458  56.023  0.00  0.00     0.000 A 
ATOM     19  C   UNL d   1      54.475  33.074  55.390  0.00  0.00     0.002 A 
ENDBRANCH  11  14
ENDBRANCH   3   9
BRANCH   2  20
ATOM     20  C   UNL d   1      53.054  30.512  53.489  0.00  0.00     0.302 C 
ATOM     21  O   UNL d   1      53.553  30.352  52.871  0.00  0.00    -0.259 OA
BRANCH  20  22
ATOM     22  O   UNL d   1      53.198  30.145  54.213  0.00  0.00    -0.271 OA
BRANCH  22  23
ATOM     23  C   UNL d   1      53.594  29.274  54.377  0.00  0.00     0.126 C 
ATOM     24  C   UNL d   1      53.572  29.044  55.165  0.00  0.00     0.029 C 
ENDBRANCH  22  23
ENDBRANCH  20  22
ENDBRANCH   2  20
BRANCH   1  25
ATOM     25  C   UNL d   1      51.945  33.227  53.298  0.00  0.00     0.302 C 
ATOM     26  O   UNL d   1      51.977  33.635  53.989  0.00  0.00    -0.259 OA
BRANCH  25  27
ATOM     27  O   UNL d   1      51.987  33.615  52.561  0.00  0.00    -0.271 OA
BRANCH  27  28
ATOM     28  C   UNL d   1      51.803  34.419  52.460  0.00  0.00     0.126 C 
ATOM     29  C   UNL d   1      51.814  34.496  51.602  0.00  0.00     0.029 C 
ENDBRANCH  27  28
ENDBRANCH  25  27
ENDBRANCH   1  25
TORSDOF 8
ENDMDL
