MODEL 1
REMARK VINA RESULT:      26.5      0.000      0.000
REMARK  3 active torsions:
REMARK  status: ('A' for Active; 'I' for Inactive)
REMARK    1  A    between atoms: N_3  and  C_1 
REMARK    2  A    between atoms: O_4  and  C_2 
REMARK    3  A    between atoms: C_7  and  O_4 
ROOT
ATOM      1  C   UNL d   1      57.274  49.528  50.353  0.00  0.00     0.205 A 
ATOM      2  C   UNL d   1      58.080  49.621  50.348  0.00  0.00     0.209 A 
ATOM      3  N   UNL d   1      58.476  49.631  49.642  0.00  0.00    -0.198 NA
ATOM      4  C   UNL d   1      56.856  49.445  49.645  0.00  0.00     0.211 A 
ATOM      5  N   UNL d   1      57.251  49.455  48.939  0.00  0.00    -0.202 NA
ATOM      6  C   UNL d   1      58.051  49.547  48.928  0.00  0.00     0.202 A 
ATOM      7  N   UNL d   1      56.034  49.350  49.640  0.00  0.00    -0.125 N 
ENDROOT
BRANCH   2   8
ATOM      8  O   UNL d   1      58.530  49.708  51.057  0.00  0.00    -0.288 OA
BRANCH   8   9
ATOM      9  C   UNL d   1      59.355  49.653  51.020  0.00  0.00     0.102 A 
ATOM     10  C   UNL d   1      59.789  49.549  51.705  0.00  0.00     0.023 A 
ATOM     11  C   UNL d   1      60.614  49.496  51.661  0.00  0.00     0.002 A 
ATOM     12  C   UNL d   1      59.441  49.495  52.432  0.00  0.00     0.002 C 
ATOM     13  C   UNL d   1      61.001  49.547  50.934  0.00  0.00     0.000 A 
ATOM     14  C   UNL d   1      60.557  49.652  50.246  0.00  0.00     0.002 A 
ATOM     15  C   UNL d   1      59.719  49.708  50.276  0.00  0.00     0.025 A 
ATOM     16  C   UNL d   1      60.943  49.707  49.487  0.00  0.00     0.000 C 
ENDBRANCH   8   9
ENDBRANCH   2   8
BRANCH   1  17
ATOM     17  N   UNL d   1      56.871  49.518  51.069  0.00  0.00    -0.107 N 
ATOM     18  O   UNL d   1      57.282  49.531  51.754  0.00  0.00    -0.531 OA
ATOM     19  O   UNL d   1      56.056  49.493  51.070  0.00  0.00    -0.531 OA
ENDBRANCH   1  17
TORSDOF 3
ENDMDL
