MODEL 1
REMARK VINA RESULT:      38.2      0.000      0.000
REMARK  3 active torsions:
REMARK  status: ('A' for Active; 'I' for Inactive)
REMARK    1  A    between atoms: N_7  and  C_1 
REMARK       I    between atoms: C_11  and  N_6 
REMARK       I    between atoms: C_10  and  N_7 
REMARK    2  A    between atoms: C_17  and  C_10 
REMARK    3  A    between atoms: C_14  and  C_17 
ROOT
ATOM      1  C   UNL d   1      46.213 -17.757  43.673  0.00  0.00     0.124 A 
ATOM      2  C   UNL d   1      46.400 -18.559  43.638  0.00  0.00     0.093 A 
ATOM      3  C   UNL d   1      46.292 -18.121  42.382  0.00  0.00     0.049 A 
ATOM      4  C   UNL d   1      46.449 -18.784  42.842  0.00  0.00     0.021 A 
ATOM      5  S   UNL d   1      46.143 -17.476  42.891  0.00  0.00    -0.066 SA
ATOM      6  N   UNL d   1      46.469 -18.901  41.193  0.00  0.00    -0.272 N 
ATOM      7  C   UNL d   1      46.301 -18.176  41.559  0.00  0.00     0.089 A 
ATOM      8  C   UNL d   1      46.518 -19.052  44.288  0.00  0.00     0.103 C 
ATOM      9  C   UNL d   1      46.479 -18.960  40.365  0.00  0.00     0.265 C 
ATOM     10  N   UNL d   1      46.636 -19.545  44.941  0.00  0.00    -0.191 NA
ATOM     11  C   UNL d   1      46.616 -19.508  42.485  0.00  0.00     0.020 A 
ATOM     12  C   UNL d   1      46.626 -19.567  41.657  0.00  0.00     0.083 A 
ATOM     13  O   UNL d   1      46.321 -18.294  39.902  0.00  0.00    -0.267 OA
ATOM     14  C   UNL d   1      46.646 -19.685  39.999  0.00  0.00     0.066 C 
ENDROOT
BRANCH   1  15
ATOM     15  N   UNL d   1      46.110 -17.304  44.346  0.00  0.00    -0.201 NA
ATOM     16  C   UNL d   1      45.952 -16.502  44.269  0.00  0.00     0.280 C 
ATOM     17  O   UNL d   1      45.846 -16.035  44.954  0.00  0.00    -0.265 OA
BRANCH  16  18
ATOM     18  C   UNL d   1      45.895 -16.146  43.530  0.00  0.00     0.062 C 
BRANCH  18  19
ATOM     19  C   UNL d   1      45.838 -15.327  43.460  0.00  0.00     0.005 A 
ATOM     20  C   UNL d   1      45.184 -14.924  43.784  0.00  0.00     0.000 A 
ATOM     21  C   UNL d   1      45.136 -14.102  43.707  0.00  0.00     0.000 A 
ATOM     22  C   UNL d   1      44.597 -15.352  44.174  0.00  0.00     0.000 C 
ATOM     23  C   UNL d   1      45.721 -13.677  43.318  0.00  0.00     0.000 A 
ATOM     24  C   UNL d   1      46.369 -14.076  42.997  0.00  0.00     0.000 A 
ATOM     25  C   UNL d   1      45.670 -12.862  43.244  0.00  0.00     0.000 C 
ATOM     26  C   UNL d   1      46.432 -14.900  43.065  0.00  0.00     0.000 A 
ENDBRANCH  18  19
ENDBRANCH  16  18
ENDBRANCH   1  15
TORSDOF 3
ENDMDL
MODEL 2
REMARK VINA RESULT:      38.8      1.673      4.675
REMARK  3 active torsions:
REMARK  status: ('A' for Active; 'I' for Inactive)
REMARK    1  A    between atoms: N_7  and  C_1 
REMARK       I    between atoms: C_11  and  N_6 
REMARK       I    between atoms: C_10  and  N_7 
REMARK    2  A    between atoms: C_17  and  C_10 
REMARK    3  A    between atoms: C_14  and  C_17 
ROOT
ATOM      1  C   UNL d   1      45.753 -16.195  44.738  0.00  0.00     0.124 A 
ATOM      2  C   UNL d   1      45.002 -15.877  44.621  0.00  0.00     0.093 A 
ATOM      3  C   UNL d   1      45.885 -14.903  44.391  0.00  0.00     0.049 A 
ATOM      4  C   UNL d   1      45.082 -15.080  44.407  0.00  0.00     0.021 A 
ATOM      5  S   UNL d   1      46.311 -15.592  44.596  0.00  0.00    -0.066 SA
ATOM      6  N   UNL d   1      45.583 -13.556  44.012  0.00  0.00    -0.272 N 
ATOM      7  C   UNL d   1      46.138 -14.144  44.195  0.00  0.00     0.089 A 
ATOM      8  C   UNL d   1      44.290 -16.286  44.704  0.00  0.00     0.103 C 
ATOM      9  C   UNL d   1      45.834 -12.790  43.814  0.00  0.00     0.265 C 
ATOM     10  N   UNL d   1      43.579 -16.698  44.788  0.00  0.00    -0.191 NA
ATOM     11  C   UNL d   1      44.526 -14.501  44.227  0.00  0.00     0.020 A 
ATOM     12  C   UNL d   1      44.776 -13.735  44.029  0.00  0.00     0.083 A 
ATOM     13  O   UNL d   1      46.641 -12.611  43.797  0.00  0.00    -0.267 OA
ATOM     14  C   UNL d   1      45.279 -12.202  43.631  0.00  0.00     0.066 C 
ENDROOT
BRANCH   1  15
ATOM     15  N   UNL d   1      45.936 -16.963  44.954  0.00  0.00    -0.201 NA
ATOM     16  C   UNL d   1      46.250 -17.474  44.394  0.00  0.00     0.280 C 
ATOM     17  O   UNL d   1      46.438 -18.258  44.611  0.00  0.00    -0.265 OA
BRANCH  16  18
ATOM     18  C   UNL d   1      46.385 -17.229  43.621  0.00  0.00     0.062 C 
BRANCH  18  19
ATOM     19  C   UNL d   1      46.450 -17.779  43.011  0.00  0.00     0.005 A 
ATOM     20  C   UNL d   1      46.569 -18.586  43.185  0.00  0.00     0.000 A 
ATOM     21  C   UNL d   1      46.633 -19.129  42.564  0.00  0.00     0.000 A 
ATOM     22  C   UNL d   1      46.620 -18.827  43.972  0.00  0.00     0.000 C 
ATOM     23  C   UNL d   1      46.582 -18.887  41.781  0.00  0.00     0.000 A 
ATOM     24  C   UNL d   1      46.465 -18.088  41.608  0.00  0.00     0.000 A 
ATOM     25  C   UNL d   1      46.646 -19.429  41.169  0.00  0.00     0.000 C 
ATOM     26  C   UNL d   1      46.399 -17.531  42.218  0.00  0.00     0.000 A 
ENDBRANCH  18  19
ENDBRANCH  16  18
ENDBRANCH   1  15
TORSDOF 3
ENDMDL
