MODEL 1
REMARK VINA RESULT:       7.3      0.000      0.000
REMARK  4 active torsions:
REMARK  status: ('A' for Active; 'I' for Inactive)
REMARK    1  A    between atoms: S_2  and  N_1 
REMARK    2  A    between atoms: C_10  and  S_2 
REMARK    3  A    between atoms: C_7  and  C_4 
REMARK    4  A    between atoms: C_12  and  C_5 
ROOT
ATOM      1  N   UNL d   1     -41.978-122.891 -51.344  0.00  0.00    -0.152 N 
ATOM      2  N   UNL d   1     -42.156-123.417 -50.751  0.00  0.00    -0.155 NA
ATOM      3  C   UNL d   1     -42.300-122.986 -50.063  0.00  0.00     0.110 A 
ATOM      4  C   UNL d   1     -42.008-122.124 -51.036  0.00  0.00     0.096 A 
ATOM      5  C   UNL d   1     -42.213-122.186 -50.219  0.00  0.00     0.041 A 
ENDROOT
BRANCH   1   6
ATOM      6  S   UNL d   1     -41.802-123.079 -52.105  0.00  0.00     0.286 S 
ATOM      7  O   UNL d   1     -41.235-123.303 -51.538  0.00  0.00    -0.198 OA
ATOM      8  O   UNL d   1     -41.123-123.470 -52.391  0.00  0.00    -0.198 OA
BRANCH   6   9
ATOM      9  C   UNL d   1     -41.774-123.198 -52.920  0.00  0.00     0.105 A 
ATOM     10  C   UNL d   1     -41.170-123.655 -53.250  0.00  0.00     0.013 A 
ATOM     11  C   UNL d   1     -41.140-123.776 -54.069  0.00  0.00     0.001 A 
ATOM     12  C   UNL d   1     -41.714-123.438 -54.556  0.00  0.00     0.000 A 
ATOM     13  C   UNL d   1     -42.319-122.980 -54.223  0.00  0.00     0.001 A 
ATOM     14  C   UNL d   1     -42.348-122.861 -53.407  0.00  0.00     0.013 A 
ENDBRANCH   6   9
ENDBRANCH   1   6
BRANCH   4  15
ATOM     15  C   UNL d   1     -41.864-121.423 -51.446  0.00  0.00     0.019 A 
ATOM     16  C   UNL d   1     -41.262-120.911 -51.188  0.00  0.00     0.002 A 
ATOM     17  C   UNL d   1     -41.123-120.234 -51.584  0.00  0.00     0.007 A 
ATOM     18  C   UNL d   1     -41.578-120.019 -52.265  0.00  0.00     0.035 A 
ATOM     19  C   UNL d   1     -42.180-120.555 -52.502  0.00  0.00     0.007 A 
ATOM     20 BR   UNL d   1     -41.434-119.318 -52.675  0.00  0.00    -0.049 Br
ATOM     21  C   UNL d   1     -42.318-121.232 -52.107  0.00  0.00     0.002 A 
ENDBRANCH   4  15
BRANCH   3  22
ATOM     22  C   UNL d   1     -42.500-123.287 -49.324  0.00  0.00     0.049 A 
ATOM     23  S   UNL d   1     -43.242-123.608 -49.115  0.00  0.00    -0.085 SA
ATOM     24  C   UNL d   1     -43.143-123.816 -48.345  0.00  0.00     0.035 A 
ATOM     25  C   UNL d   1     -42.463-123.676 -48.046  0.00  0.00     0.007 A 
ATOM     26  C   UNL d   1     -42.035-123.341 -48.644  0.00  0.00     0.009 A 
ENDBRANCH   3  22
TORSDOF 4
ENDMDL
MODEL 2
REMARK VINA RESULT:       9.6      1.740      4.042
REMARK  4 active torsions:
REMARK  status: ('A' for Active; 'I' for Inactive)
REMARK    1  A    between atoms: S_2  and  N_1 
REMARK    2  A    between atoms: C_10  and  S_2 
REMARK    3  A    between atoms: C_7  and  C_4 
REMARK    4  A    between atoms: C_12  and  C_5 
ROOT
ATOM      1  N   UNL d   1     -41.789-122.844 -51.135  0.00  0.00    -0.152 N 
ATOM      2  N   UNL d   1     -41.325-122.951 -51.793  0.00  0.00    -0.155 NA
ATOM      3  C   UNL d   1     -41.753-122.697 -52.450  0.00  0.00     0.110 A 
ATOM      4  C   UNL d   1     -42.514-122.522 -51.370  0.00  0.00     0.096 A 
ATOM      5  C   UNL d   1     -42.490-122.429 -52.209  0.00  0.00     0.041 A 
ENDROOT
BRANCH   1   6
ATOM      6  S   UNL d   1     -41.583-123.020 -50.379  0.00  0.00     0.286 S 
ATOM      7  O   UNL d   1     -41.325-123.560 -50.957  0.00  0.00    -0.198 OA
ATOM      8  O   UNL d   1     -41.144-123.676 -50.108  0.00  0.00    -0.198 OA
BRANCH   6   9
ATOM      9  C   UNL d   1     -41.456-123.055 -49.564  0.00  0.00     0.105 A 
ATOM     10  C   UNL d   1     -41.506-123.779 -49.170  0.00  0.00     0.013 A 
ATOM     11  C   UNL d   1     -41.379-123.816 -48.351  0.00  0.00     0.001 A 
ATOM     12  C   UNL d   1     -41.203-123.128 -47.931  0.00  0.00     0.000 A 
ATOM     13  C   UNL d   1     -41.153-122.403 -48.329  0.00  0.00     0.001 A 
ATOM     14  C   UNL d   1     -41.280-122.367 -49.144  0.00  0.00     0.013 A 
ENDBRANCH   6   9
ENDBRANCH   1   6
BRANCH   4  15
ATOM     15  C   UNL d   1     -43.148-122.326 -50.881  0.00  0.00     0.019 A 
ATOM     16  C   UNL d   1     -43.301-121.528 -50.705  0.00  0.00     0.002 A 
ATOM     17  C   UNL d   1     -43.913-121.338 -50.232  0.00  0.00     0.007 A 
ATOM     18  C   UNL d   1     -44.417-121.932 -49.902  0.00  0.00     0.035 A 
ATOM     19  C   UNL d   1     -44.239-122.730 -50.096  0.00  0.00     0.007 A 
ATOM     20 BR   UNL d   1     -45.051-121.736 -49.412  0.00  0.00    -0.049 Br
ATOM     21  C   UNL d   1     -43.627-122.920 -50.568  0.00  0.00     0.002 A 
ENDBRANCH   4  15
BRANCH   3  22
ATOM     22  C   UNL d   1     -41.504-122.702 -53.234  0.00  0.00     0.049 A 
ATOM     23  S   UNL d   1     -41.341-123.383 -53.688  0.00  0.00    -0.085 SA
ATOM     24  C   UNL d   1     -41.123-123.083 -54.401  0.00  0.00     0.035 A 
ATOM     25  C   UNL d   1     -41.125-122.329 -54.460  0.00  0.00     0.007 A 
ATOM     26  C   UNL d   1     -41.363-122.062 -53.736  0.00  0.00     0.009 A 
ENDBRANCH   3  22
TORSDOF 4
ENDMDL
MODEL 3
REMARK VINA RESULT:      10.1      1.029      3.699
REMARK  4 active torsions:
REMARK  status: ('A' for Active; 'I' for Inactive)
REMARK    1  A    between atoms: S_2  and  N_1 
REMARK    2  A    between atoms: C_10  and  S_2 
REMARK    3  A    between atoms: C_7  and  C_4 
REMARK    4  A    between atoms: C_12  and  C_5 
ROOT
ATOM      1  N   UNL d   1     -41.796-122.727 -52.112  0.00  0.00    -0.152 N 
ATOM      2  N   UNL d   1     -41.821-123.225 -52.753  0.00  0.00    -0.155 NA
ATOM      3  C   UNL d   1     -41.583-122.797 -53.416  0.00  0.00     0.110 A 
ATOM      4  C   UNL d   1     -41.541-121.982 -52.364  0.00  0.00     0.096 A 
ATOM      5  C   UNL d   1     -41.406-122.028 -53.196  0.00  0.00     0.041 A 
ENDROOT
BRANCH   1   6
ATOM      6  S   UNL d   1     -41.985-122.922 -51.356  0.00  0.00     0.286 S 
ATOM      7  O   UNL d   1     -41.478-123.453 -51.748  0.00  0.00    -0.198 OA
ATOM      8  O   UNL d   1     -41.736-123.589 -50.921  0.00  0.00    -0.198 OA
BRANCH   6   9
ATOM      9  C   UNL d   1     -42.273-122.976 -50.584  0.00  0.00     0.105 A 
ATOM     10  C   UNL d   1     -41.838-123.379 -50.010  0.00  0.00     0.013 A 
ATOM     11  C   UNL d   1     -42.125-123.434 -49.234  0.00  0.00     0.001 A 
ATOM     12  C   UNL d   1     -42.846-123.086 -49.036  0.00  0.00     0.000 A 
ATOM     13  C   UNL d   1     -43.281-122.682 -49.615  0.00  0.00     0.001 A 
ATOM     14  C   UNL d   1     -42.994-122.627 -50.387  0.00  0.00     0.013 A 
ENDBRANCH   6   9
ENDBRANCH   1   6
BRANCH   4  15
ATOM     15  C   UNL d   1     -41.437-121.312 -51.894  0.00  0.00     0.019 A 
ATOM     16  C   UNL d   1     -41.536-120.556 -52.226  0.00  0.00     0.002 A 
ATOM     17  C   UNL d   1     -41.435-119.910 -51.773  0.00  0.00     0.007 A 
ATOM     18  C   UNL d   1     -41.227-119.972 -50.954  0.00  0.00     0.035 A 
ATOM     19  C   UNL d   1     -41.133-120.747 -50.646  0.00  0.00     0.007 A 
ATOM     20 BR   UNL d   1     -41.123-119.302 -50.484  0.00  0.00    -0.049 Br
ATOM     21  C   UNL d   1     -41.234-121.394 -51.099  0.00  0.00     0.002 A 
ENDBRANCH   4  15
BRANCH   3  22
ATOM     22  C   UNL d   1     -41.523-123.075 -54.188  0.00  0.00     0.049 A 
ATOM     23  S   UNL d   1     -41.206-123.813 -54.416  0.00  0.00    -0.085 SA
ATOM     24  C   UNL d   1     -41.279-123.807 -55.216  0.00  0.00     0.035 A 
ATOM     25  C   UNL d   1     -41.588-123.187 -55.518  0.00  0.00     0.007 A 
ATOM     26  C   UNL d   1     -41.753-122.706 -54.890  0.00  0.00     0.009 A 
ENDBRANCH   3  22
TORSDOF 4
ENDMDL
