MODEL 1
REMARK VINA RESULT:      -8.5      0.000      0.000
REMARK  4 active torsions:
REMARK  status: ('A' for Active; 'I' for Inactive)
REMARK    1  A    between atoms: S_6  and  C_1 
REMARK    2  A    between atoms: C_19  and  S_6 
REMARK    3  A    between atoms: C_7  and  C_19 
REMARK       I    between atoms: N_10  and  C_7 
REMARK    4  A    between atoms: C_14  and  N_10 
ROOT
ATOM      1  C   UNL d   1      50.980  34.063  52.655  0.00  0.00     0.286 C 
ATOM      2  N   UNL d   1      50.192  33.915  52.830  0.00  0.00    -0.207 NA
ATOM      3  O   UNL d   1      51.191  34.784  52.309  0.00  0.00    -0.265 OA
ENDROOT
BRANCH   1   4
ATOM      4  C   UNL d   1      51.554  33.503  52.821  0.00  0.00     0.099 C 
BRANCH   4   5
ATOM      5  S   UNL d   1      52.194  33.695  53.293  0.00  0.00    -0.062 SA
BRANCH   5   6
ATOM      6  C   UNL d   1      52.760  33.124  53.483  0.00  0.00     0.114 A 
ATOM      7  C   UNL d   1      53.339  33.285  54.043  0.00  0.00     0.042 A 
ATOM      8  C   UNL d   1      53.906  32.713  54.233  0.00  0.00     0.085 A 
ATOM      9  C   UNL d   1      53.354  34.022  54.415  0.00  0.00     0.004 A 
ATOM     10  C   UNL d   1      54.486  32.878  54.796  0.00  0.00     0.019 A 
ATOM     11  N   UNL d   1      53.893  31.980  53.863  0.00  0.00    -0.224 NA
ATOM     12  C   UNL d   1      54.501  33.614  55.168  0.00  0.00     0.002 A 
ATOM     13  C   UNL d   1      53.935  34.186  54.978  0.00  0.00     0.000 A 
ATOM     14  C   UNL d   1      53.312  31.816  53.301  0.00  0.00     0.200 A 
ATOM     15  N   UNL d   1      52.746  32.387  53.111  0.00  0.00    -0.217 NA
ENDBRANCH   5   6
ENDBRANCH   4   5
ENDBRANCH   1   4
BRANCH   2  16
ATOM     16  C   UNL d   1      49.613  34.477  52.664  0.00  0.00     0.087 A 
ATOM     17  C   UNL d   1      49.385  35.007  53.247  0.00  0.00     0.045 A 
ATOM     18  C   UNL d   1      48.805  35.571  53.082  0.00  0.00     0.121 A 
ATOM     19  O   UNL d   1      48.469  36.166  53.551  0.00  0.00    -0.299 OA
ATOM     20  C   UNL d   1      48.459  35.598  52.337  0.00  0.00     0.119 A 
ATOM     21  C   UNL d   1      47.916  36.556  53.085  0.00  0.00     0.304 A 
ATOM     22  O   UNL d   1      47.905  36.210  52.336  0.00  0.00    -0.300 OA
ATOM     23  C   UNL d   1      48.696  35.061  51.759  0.00  0.00     0.028 A 
ATOM     24  C   UNL d   1      49.268  34.503  51.919  0.00  0.00     0.021 A 
ENDBRANCH   2  16
TORSDOF 4
ENDMDL
MODEL 2
REMARK VINA RESULT:      -8.4      1.640      5.353
REMARK  4 active torsions:
REMARK  status: ('A' for Active; 'I' for Inactive)
REMARK    1  A    between atoms: S_6  and  C_1 
REMARK    2  A    between atoms: C_19  and  S_6 
REMARK    3  A    between atoms: C_7  and  C_19 
REMARK       I    between atoms: N_10  and  C_7 
REMARK    4  A    between atoms: C_14  and  N_10 
ROOT
ATOM      1  C   UNL d   1      50.990  33.810  52.800  0.00  0.00     0.286 C 
ATOM      2  N   UNL d   1      51.790  33.886  52.634  0.00  0.00    -0.207 NA
ATOM      3  O   UNL d   1      50.751  33.354  53.448  0.00  0.00    -0.265 OA
ENDROOT
BRANCH   1   4
ATOM      4  C   UNL d   1      50.432  34.183  52.331  0.00  0.00     0.099 C 
BRANCH   4   5
ATOM      5  S   UNL d   1      49.787  34.555  52.672  0.00  0.00    -0.062 SA
BRANCH   5   6
ATOM      6  C   UNL d   1      49.155  34.808  52.205  0.00  0.00     0.114 A 
ATOM      7  C   UNL d   1      48.605  35.340  52.505  0.00  0.00     0.042 A 
ATOM      8  C   UNL d   1      47.972  35.593  52.037  0.00  0.00     0.085 A 
ATOM      9  C   UNL d   1      48.688  35.621  53.277  0.00  0.00     0.004 A 
ATOM     10  C   UNL d   1      47.422  36.127  52.341  0.00  0.00     0.019 A 
ATOM     11  N   UNL d   1      47.889  35.314  51.269  0.00  0.00    -0.224 NA
ATOM     12  C   UNL d   1      47.504  36.408  53.112  0.00  0.00     0.002 A 
ATOM     13  C   UNL d   1      48.137  36.155  53.580  0.00  0.00     0.000 A 
ATOM     14  C   UNL d   1      48.439  34.780  50.965  0.00  0.00     0.200 A 
ATOM     15  N   UNL d   1      49.072  34.527  51.433  0.00  0.00    -0.217 NA
ENDBRANCH   5   6
ENDBRANCH   4   5
ENDBRANCH   1   4
BRANCH   2  16
ATOM     16  C   UNL d   1      52.353  33.512  53.105  0.00  0.00     0.087 A 
ATOM     17  C   UNL d   1      52.707  33.927  53.718  0.00  0.00     0.045 A 
ATOM     18  C   UNL d   1      53.272  33.553  54.190  0.00  0.00     0.121 A 
ATOM     19  O   UNL d   1      53.714  33.826  54.836  0.00  0.00    -0.299 OA
ATOM     20  C   UNL d   1      53.477  32.770  54.045  0.00  0.00     0.119 A 
ATOM     21  C   UNL d   1      54.190  33.203  55.082  0.00  0.00     0.304 A 
ATOM     22  O   UNL d   1      54.047  32.549  54.598  0.00  0.00    -0.300 OA
ATOM     23  C   UNL d   1      53.115  32.364  53.427  0.00  0.00     0.028 A 
ATOM     24  C   UNL d   1      52.557  32.729  52.958  0.00  0.00     0.021 A 
ENDBRANCH   2  16
TORSDOF 4
ENDMDL
MODEL 3
REMARK VINA RESULT:      -8.3      0.737      1.587
REMARK  4 active torsions:
REMARK  status: ('A' for Active; 'I' for Inactive)
REMARK    1  A    between atoms: S_6  and  C_1 
REMARK    2  A    between atoms: C_19  and  S_6 
REMARK    3  A    between atoms: C_7  and  C_19 
REMARK       I    between atoms: N_10  and  C_7 
REMARK    4  A    between atoms: C_14  and  N_10 
ROOT
ATOM      1  C   UNL d   1      51.237  34.219  52.706  0.00  0.00     0.286 C 
ATOM      2  N   UNL d   1      50.480  34.193  53.021  0.00  0.00    -0.207 NA
ATOM      3  O   UNL d   1      51.353  34.539  51.952  0.00  0.00    -0.265 OA
ENDROOT
BRANCH   1   4
ATOM      4  C   UNL d   1      51.874  33.930  53.132  0.00  0.00     0.099 C 
BRANCH   4   5
ATOM      5  S   UNL d   1      52.188  33.195  52.958  0.00  0.00    -0.062 SA
BRANCH   5   6
ATOM      6  C   UNL d   1      52.850  32.916  53.366  0.00  0.00     0.114 A 
ATOM      7  C   UNL d   1      53.038  32.116  53.352  0.00  0.00     0.042 A 
ATOM      8  C   UNL d   1      53.701  31.837  53.761  0.00  0.00     0.085 A 
ATOM      9  C   UNL d   1      52.562  31.592  52.928  0.00  0.00     0.004 A 
ATOM     10  C   UNL d   1      53.887  31.034  53.746  0.00  0.00     0.019 A 
ATOM     11  N   UNL d   1      54.175  32.358  54.183  0.00  0.00    -0.224 NA
ATOM     12  C   UNL d   1      53.412  30.509  53.322  0.00  0.00     0.002 A 
ATOM     13  C   UNL d   1      52.750  30.788  52.914  0.00  0.00     0.000 A 
ATOM     14  C   UNL d   1      53.989  33.161  54.199  0.00  0.00     0.200 A 
ATOM     15  N   UNL d   1      53.326  33.440  53.790  0.00  0.00    -0.217 NA
ENDBRANCH   5   6
ENDBRANCH   4   5
ENDBRANCH   1   4
BRANCH   2  16
ATOM     16  C   UNL d   1      49.838  34.483  52.594  0.00  0.00     0.087 A 
ATOM     17  C   UNL d   1      49.349  35.048  52.933  0.00  0.00     0.045 A 
ATOM     18  C   UNL d   1      48.705  35.339  52.506  0.00  0.00     0.121 A 
ATOM     19  O   UNL d   1      48.127  35.900  52.699  0.00  0.00    -0.299 OA
ATOM     20  C   UNL d   1      48.557  35.062  51.746  0.00  0.00     0.119 A 
ATOM     21  C   UNL d   1      47.625  35.962  52.052  0.00  0.00     0.304 A 
ATOM     22  O   UNL d   1      47.886  35.448  51.461  0.00  0.00    -0.300 OA
ATOM     23  C   UNL d   1      49.055  34.494  51.416  0.00  0.00     0.028 A 
ATOM     24  C   UNL d   1      49.691  34.205  51.835  0.00  0.00     0.021 A 
ENDBRANCH   2  16
TORSDOF 4
ENDMDL
MODEL 4
REMARK VINA RESULT:      -6.3      9.889     10.846
REMARK  4 active torsions:
REMARK  status: ('A' for Active; 'I' for Inactive)
REMARK    1  A    between atoms: S_6  and  C_1 
REMARK    2  A    between atoms: C_19  and  S_6 
REMARK    3  A    between atoms: C_7  and  C_19 
REMARK       I    between atoms: N_10  and  C_7 
REMARK    4  A    between atoms: C_14  and  N_10 
ROOT
ATOM      1  C   UNL d   1      45.096  27.223  57.190  0.00  0.00     0.286 C 
ATOM      2  N   UNL d   1      44.467  26.696  57.192  0.00  0.00    -0.207 NA
ATOM      3  O   UNL d   1      45.755  27.066  56.715  0.00  0.00    -0.265 OA
ENDROOT
BRANCH   1   4
ATOM      4  C   UNL d   1      45.073  27.898  57.653  0.00  0.00     0.099 C 
BRANCH   4   5
ATOM      5  S   UNL d   1      45.063  28.638  57.303  0.00  0.00    -0.062 SA
BRANCH   5   6
ATOM      6  C   UNL d   1      45.055  29.320  57.769  0.00  0.00     0.114 A 
ATOM      7  C   UNL d   1      44.856  30.045  57.438  0.00  0.00     0.042 A 
ATOM      8  C   UNL d   1      44.848  30.728  57.905  0.00  0.00     0.085 A 
ATOM      9  C   UNL d   1      44.665  30.089  56.636  0.00  0.00     0.004 A 
ATOM     10  C   UNL d   1      44.649  31.455  57.569  0.00  0.00     0.019 A 
ATOM     11  N   UNL d   1      45.038  30.685  58.702  0.00  0.00    -0.224 NA
ATOM     12  C   UNL d   1      44.457  31.500  56.768  0.00  0.00     0.002 A 
ATOM     13  C   UNL d   1      44.466  30.817  56.302  0.00  0.00     0.000 A 
ATOM     14  C   UNL d   1      45.238  29.959  59.038  0.00  0.00     0.200 A 
ATOM     15  N   UNL d   1      45.246  29.276  58.571  0.00  0.00    -0.217 NA
ENDBRANCH   5   6
ENDBRANCH   4   5
ENDBRANCH   1   4
BRANCH   2  16
ATOM     16  C   UNL d   1      44.487  26.016  56.727  0.00  0.00     0.087 A 
ATOM     17  C   UNL d   1      44.681  25.297  57.070  0.00  0.00     0.045 A 
ATOM     18  C   UNL d   1      44.702  24.615  56.605  0.00  0.00     0.121 A 
ATOM     19  O   UNL d   1      44.875  23.827  56.794  0.00  0.00    -0.299 OA
ATOM     20  C   UNL d   1      44.529  24.659  55.803  0.00  0.00     0.119 A 
ATOM     21  C   UNL d   1      44.807  23.392  56.101  0.00  0.00     0.304 A 
ATOM     22  O   UNL d   1      44.593  23.900  55.486  0.00  0.00    -0.300 OA
ATOM     23  C   UNL d   1      44.335  25.387  55.468  0.00  0.00     0.028 A 
ATOM     24  C   UNL d   1      44.314  26.062  55.925  0.00  0.00     0.021 A 
ENDBRANCH   2  16
TORSDOF 4
ENDMDL
MODEL 5
REMARK VINA RESULT:      -6.0      9.839     10.706
REMARK  4 active torsions:
REMARK  status: ('A' for Active; 'I' for Inactive)
REMARK    1  A    between atoms: S_6  and  C_1 
REMARK    2  A    between atoms: C_19  and  S_6 
REMARK    3  A    between atoms: C_7  and  C_19 
REMARK       I    between atoms: N_10  and  C_7 
REMARK    4  A    between atoms: C_14  and  N_10 
ROOT
ATOM      1  C   UNL d   1      44.907  30.382  59.674  0.00  0.00     0.286 C 
ATOM      2  N   UNL d   1      44.317  30.184  60.208  0.00  0.00    -0.207 NA
ATOM      3  O   UNL d   1      45.566  30.807  59.936  0.00  0.00    -0.265 OA
ENDROOT
BRANCH   1   4
ATOM      4  C   UNL d   1      44.845  30.162  58.887  0.00  0.00     0.099 C 
BRANCH   4   5
ATOM      5  S   UNL d   1      45.131  29.436  58.638  0.00  0.00    -0.062 SA
BRANCH   5   6
ATOM      6  C   UNL d   1      45.035  29.197  57.853  0.00  0.00     0.114 A 
ATOM      7  C   UNL d   1      45.140  28.408  57.646  0.00  0.00     0.042 A 
ATOM      8  C   UNL d   1      45.044  28.168  56.860  0.00  0.00     0.085 A 
ATOM      9  C   UNL d   1      45.344  27.857  58.225  0.00  0.00     0.004 A 
ATOM     10  C   UNL d   1      45.150  27.377  56.654  0.00  0.00     0.019 A 
ATOM     11  N   UNL d   1      44.842  28.716  56.282  0.00  0.00    -0.224 NA
ATOM     12  C   UNL d   1      45.353  26.825  57.233  0.00  0.00     0.002 A 
ATOM     13  C   UNL d   1      45.450  27.065  58.018  0.00  0.00     0.000 A 
ATOM     14  C   UNL d   1      44.735  29.508  56.488  0.00  0.00     0.200 A 
ATOM     15  N   UNL d   1      44.832  29.748  57.274  0.00  0.00    -0.217 NA
ENDBRANCH   5   6
ENDBRANCH   4   5
ENDBRANCH   1   4
BRANCH   2  16
ATOM     16  C   UNL d   1      44.377  30.404  60.999  0.00  0.00     0.087 A 
ATOM     17  C   UNL d   1      44.314  31.196  61.205  0.00  0.00     0.045 A 
ATOM     18  C   UNL d   1      44.374  31.418  61.998  0.00  0.00     0.121 A 
ATOM     19  O   UNL d   1      44.333  32.160  62.365  0.00  0.00    -0.299 OA
ATOM     20  C   UNL d   1      44.496  30.847  62.577  0.00  0.00     0.119 A 
ATOM     21  C   UNL d   1      44.432  32.036  63.171  0.00  0.00     0.304 A 
ATOM     22  O   UNL d   1      44.532  31.228  63.307  0.00  0.00    -0.300 OA
ATOM     23  C   UNL d   1      44.557  30.054  62.359  0.00  0.00     0.028 A 
ATOM     24  C   UNL d   1      44.499  29.832  61.577  0.00  0.00     0.021 A 
ENDBRANCH   2  16
TORSDOF 4
ENDMDL
MODEL 6
REMARK VINA RESULT:      -5.8     10.069     10.697
REMARK  4 active torsions:
REMARK  status: ('A' for Active; 'I' for Inactive)
REMARK    1  A    between atoms: S_6  and  C_1 
REMARK    2  A    between atoms: C_19  and  S_6 
REMARK    3  A    between atoms: C_7  and  C_19 
REMARK       I    between atoms: N_10  and  C_7 
REMARK    4  A    between atoms: C_14  and  N_10 
ROOT
ATOM      1  C   UNL d   1      45.081  28.017  58.276  0.00  0.00     0.286 C 
ATOM      2  N   UNL d   1      44.516  28.577  58.477  0.00  0.00    -0.207 NA
ATOM      3  O   UNL d   1      45.806  28.266  57.964  0.00  0.00    -0.265 OA
ENDROOT
BRANCH   1   4
ATOM      4  C   UNL d   1      44.931  27.219  58.383  0.00  0.00     0.099 C 
BRANCH   4   5
ATOM      5  S   UNL d   1      44.951  26.706  57.745  0.00  0.00    -0.062 SA
BRANCH   5   6
ATOM      6  C   UNL d   1      44.749  25.911  57.842  0.00  0.00     0.114 A 
ATOM      7  C   UNL d   1      44.659  25.424  57.187  0.00  0.00     0.042 A 
ATOM      8  C   UNL d   1      44.457  24.628  57.284  0.00  0.00     0.085 A 
ATOM      9  C   UNL d   1      44.770  25.734  56.430  0.00  0.00     0.004 A 
ATOM     10  C   UNL d   1      44.367  24.141  56.624  0.00  0.00     0.019 A 
ATOM     11  N   UNL d   1      44.346  24.319  58.037  0.00  0.00    -0.224 NA
ATOM     12  C   UNL d   1      44.478  24.450  55.867  0.00  0.00     0.002 A 
ATOM     13  C   UNL d   1      44.680  25.246  55.770  0.00  0.00     0.000 A 
ATOM     14  C   UNL d   1      44.436  24.806  58.697  0.00  0.00     0.200 A 
ATOM     15  N   UNL d   1      44.638  25.602  58.599  0.00  0.00    -0.217 NA
ENDBRANCH   5   6
ENDBRANCH   4   5
ENDBRANCH   1   4
BRANCH   2  16
ATOM     16  C   UNL d   1      44.665  29.380  58.370  0.00  0.00     0.087 A 
ATOM     17  C   UNL d   1      44.433  29.745  57.673  0.00  0.00     0.045 A 
ATOM     18  C   UNL d   1      44.582  30.551  57.565  0.00  0.00     0.121 A 
ATOM     19  O   UNL d   1      44.415  31.059  56.932  0.00  0.00    -0.299 OA
ATOM     20  C   UNL d   1      44.960  30.981  58.154  0.00  0.00     0.119 A 
ATOM     21  C   UNL d   1      44.694  31.803  57.141  0.00  0.00     0.304 A 
ATOM     22  O   UNL d   1      45.032  31.761  57.893  0.00  0.00    -0.300 OA
ATOM     23  C   UNL d   1      45.188  30.604  58.850  0.00  0.00     0.028 A 
ATOM     24  C   UNL d   1      45.043  29.810  58.960  0.00  0.00     0.021 A 
ENDBRANCH   2  16
TORSDOF 4
ENDMDL
MODEL 7
REMARK VINA RESULT:      -5.8     10.468     11.082
REMARK  4 active torsions:
REMARK  status: ('A' for Active; 'I' for Inactive)
REMARK    1  A    between atoms: S_6  and  C_1 
REMARK    2  A    between atoms: C_19  and  S_6 
REMARK    3  A    between atoms: C_7  and  C_19 
REMARK       I    between atoms: N_10  and  C_7 
REMARK    4  A    between atoms: C_14  and  N_10 
ROOT
ATOM      1  C   UNL d   1      45.060  28.036  57.921  0.00  0.00     0.286 C 
ATOM      2  N   UNL d   1      44.518  28.645  58.014  0.00  0.00    -0.207 NA
ATOM      3  O   UNL d   1      45.767  28.053  58.349  0.00  0.00    -0.265 OA
ENDROOT
BRANCH   1   4
ATOM      4  C   UNL d   1      44.903  27.415  57.410  0.00  0.00     0.099 C 
BRANCH   4   5
ATOM      5  S   UNL d   1      44.902  26.644  57.685  0.00  0.00    -0.062 SA
BRANCH   5   6
ATOM      6  C   UNL d   1      44.756  26.017  57.168  0.00  0.00     0.114 A 
ATOM      7  C   UNL d   1      44.609  25.264  57.463  0.00  0.00     0.042 A 
ATOM      8  C   UNL d   1      44.462  24.635  56.946  0.00  0.00     0.085 A 
ATOM      9  C   UNL d   1      44.609  25.137  58.278  0.00  0.00     0.004 A 
ATOM     10  C   UNL d   1      44.314  23.881  57.244  0.00  0.00     0.019 A 
ATOM     11  N   UNL d   1      44.461  24.760  56.134  0.00  0.00    -0.224 NA
ATOM     12  C   UNL d   1      44.314  23.753  58.059  0.00  0.00     0.002 A 
ATOM     13  C   UNL d   1      44.461  24.382  58.576  0.00  0.00     0.000 A 
ATOM     14  C   UNL d   1      44.609  25.515  55.835  0.00  0.00     0.200 A 
ATOM     15  N   UNL d   1      44.756  26.143  56.353  0.00  0.00    -0.217 NA
ENDBRANCH   5   6
ENDBRANCH   4   5
ENDBRANCH   1   4
BRANCH   2  16
ATOM     16  C   UNL d   1      44.673  29.270  58.527  0.00  0.00     0.087 A 
ATOM     17  C   UNL d   1      44.422  29.225  59.307  0.00  0.00     0.045 A 
ATOM     18  C   UNL d   1      44.577  29.851  59.823  0.00  0.00     0.121 A 
ATOM     19  O   UNL d   1      44.396  29.960  60.623  0.00  0.00    -0.299 OA
ATOM     20  C   UNL d   1      44.981  30.514  59.553  0.00  0.00     0.119 A 
ATOM     21  C   UNL d   1      44.692  30.695  60.840  0.00  0.00     0.304 A 
ATOM     22  O   UNL d   1      45.054  31.041  60.184  0.00  0.00    -0.300 OA
ATOM     23  C   UNL d   1      45.229  30.549  58.768  0.00  0.00     0.028 A 
ATOM     24  C   UNL d   1      45.077  29.933  58.257  0.00  0.00     0.021 A 
ENDBRANCH   2  16
TORSDOF 4
ENDMDL
MODEL 8
REMARK VINA RESULT:      -5.7     10.370     11.158
REMARK  4 active torsions:
REMARK  status: ('A' for Active; 'I' for Inactive)
REMARK    1  A    between atoms: S_6  and  C_1 
REMARK    2  A    between atoms: C_19  and  S_6 
REMARK    3  A    between atoms: C_7  and  C_19 
REMARK       I    between atoms: N_10  and  C_7 
REMARK    4  A    between atoms: C_14  and  N_10 
ROOT
ATOM      1  C   UNL d   1      44.913  29.804  59.211  0.00  0.00     0.286 C 
ATOM      2  N   UNL d   1      44.475  29.172  58.924  0.00  0.00    -0.207 NA
ATOM      3  O   UNL d   1      45.607  30.027  58.820  0.00  0.00    -0.265 OA
ENDROOT
BRANCH   1   4
ATOM      4  C   UNL d   1      44.667  30.211  59.877  0.00  0.00     0.099 C 
BRANCH   4   5
ATOM      5  S   UNL d   1      44.938  29.993  60.618  0.00  0.00    -0.062 SA
BRANCH   5   6
ATOM      6  C   UNL d   1      44.733  30.435  61.285  0.00  0.00     0.114 A 
ATOM      7  C   UNL d   1      44.627  30.064  62.011  0.00  0.00     0.042 A 
ATOM      8  C   UNL d   1      44.421  30.506  62.678  0.00  0.00     0.085 A 
ATOM      9  C   UNL d   1      44.727  29.247  62.070  0.00  0.00     0.004 A 
ATOM     10  C   UNL d   1      44.316  30.132  63.406  0.00  0.00     0.019 A 
ATOM     11  N   UNL d   1      44.322  31.320  62.620  0.00  0.00    -0.224 NA
ATOM     12  C   UNL d   1      44.416  29.315  63.466  0.00  0.00     0.002 A 
ATOM     13  C   UNL d   1      44.621  28.873  62.798  0.00  0.00     0.000 A 
ATOM     14  C   UNL d   1      44.427  31.694  61.893  0.00  0.00     0.200 A 
ATOM     15  N   UNL d   1      44.633  31.252  61.225  0.00  0.00    -0.217 NA
ENDBRANCH   5   6
ENDBRANCH   4   5
ENDBRANCH   1   4
BRANCH   2  16
ATOM     16  C   UNL d   1      44.721  28.761  58.254  0.00  0.00     0.087 A 
ATOM     17  C   UNL d   1      44.821  27.948  58.292  0.00  0.00     0.045 A 
ATOM     18  C   UNL d   1      45.067  27.534  57.621  0.00  0.00     0.121 A 
ATOM     19  O   UNL d   1      45.212  26.728  57.496  0.00  0.00    -0.299 OA
ATOM     20  C   UNL d   1      45.211  27.938  56.920  0.00  0.00     0.119 A 
ATOM     21  C   UNL d   1      45.446  26.644  56.712  0.00  0.00     0.304 A 
ATOM     22  O   UNL d   1      45.446  27.387  56.352  0.00  0.00    -0.300 OA
ATOM     23  C   UNL d   1      45.107  28.755  56.893  0.00  0.00     0.028 A 
ATOM     24  C   UNL d   1      44.864  29.166  57.553  0.00  0.00     0.021 A 
ENDBRANCH   2  16
TORSDOF 4
ENDMDL
