MODEL 1
REMARK VINA RESULT:      65.1      0.000      0.000
REMARK  5 active torsions:
REMARK  status: ('A' for Active; 'I' for Inactive)
REMARK    1  A    between atoms: C_2  and  N_1 
REMARK    2  A    between atoms: C_4  and  C_7 
REMARK    3  A    between atoms: N_17  and  C_10 
REMARK    4  A    between atoms: C_20  and  N_17 
REMARK    5  A    between atoms: C_21  and  C_20 
ROOT
ATOM      1  C   UNL d   1      60.592  48.553  50.384  0.00  0.00     0.144 A 
ATOM      2  C   UNL d   1      60.825  47.861  49.988  0.00  0.00     0.027 A 
ATOM      3  C   UNL d   1      61.250  47.272  50.397  0.00  0.00     0.021 A 
ATOM      4  C   UNL d   1      60.781  48.657  51.178  0.00  0.00     0.103 A 
ATOM      5  C   UNL d   1      61.438  47.382  51.198  0.00  0.00     0.003 A 
ATOM      6  C   UNL d   1      61.201  48.076  51.583  0.00  0.00     0.021 A 
ENDROOT
BRANCH   3   7
ATOM      7  C   UNL d   1      61.482  46.586  50.008  0.00  0.00     0.103 A 
ATOM      8  N   UNL d   1      62.062  46.619  49.420  0.00  0.00    -0.145 NA
ATOM      9  N   UNL d   1      62.295  45.932  49.030  0.00  0.00    -0.106 NA
ATOM     10  C   UNL d   1      61.949  45.209  49.226  0.00  0.00     0.297 A 
ATOM     11  C   UNL d   1      61.368  45.175  49.814  0.00  0.00     0.066 A 
ATOM     12  O   UNL d   1      62.180  44.521  48.838  0.00  0.00    -0.264 OA
ATOM     13  C   UNL d   1      61.131  45.867  50.209  0.00  0.00     0.024 A 
ATOM     14  C   UNL d   1      60.553  45.830  50.794  0.00  0.00     0.002 C 
ENDBRANCH   3   7
BRANCH   1  15
ATOM     15  N   UNL d   1      60.169  49.134  49.970  0.00  0.00    -0.112 N 
ATOM     16  O   UNL d   1      59.340  49.133  50.003  0.00  0.00    -0.532 OA
ATOM     17  O   UNL d   1      60.565  49.707  49.529  0.00  0.00    -0.532 OA
ENDBRANCH   1  15
BRANCH   4  18
ATOM     18  N   UNL d   1      60.548  49.345  51.567  0.00  0.00    -0.239 NA
BRANCH  18  19
ATOM     19  C   UNL d   1      60.945  49.587  52.252  0.00  0.00     0.144 C 
BRANCH  19  20
ATOM     20  C   UNL d   1      60.532  49.707  52.955  0.00  0.00     0.255 C 
ATOM     21  O   UNL d   1      60.834  49.437  53.671  0.00  0.00    -0.281 OA
ENDBRANCH  19  20
ENDBRANCH  18  19
ENDBRANCH   4  18
TORSDOF 5
ENDMDL
MODEL 2
REMARK VINA RESULT:      65.5      1.161      1.832
REMARK  5 active torsions:
REMARK  status: ('A' for Active; 'I' for Inactive)
REMARK    1  A    between atoms: C_2  and  N_1 
REMARK    2  A    between atoms: C_4  and  C_7 
REMARK    3  A    between atoms: N_17  and  C_10 
REMARK    4  A    between atoms: C_20  and  N_17 
REMARK    5  A    between atoms: C_21  and  C_20 
ROOT
ATOM      1  C   UNL d   1      60.883  48.789  51.146  0.00  0.00     0.144 A 
ATOM      2  C   UNL d   1      61.346  48.159  50.866  0.00  0.00     0.027 A 
ATOM      3  C   UNL d   1      61.022  47.615  50.324  0.00  0.00     0.021 A 
ATOM      4  C   UNL d   1      60.106  48.876  50.890  0.00  0.00     0.103 A 
ATOM      5  C   UNL d   1      60.237  47.707  50.069  0.00  0.00     0.003 A 
ATOM      6  C   UNL d   1      59.785  48.338  50.355  0.00  0.00     0.021 A 
ENDROOT
BRANCH   3   7
ATOM      7  C   UNL d   1      61.477  46.990  50.044  0.00  0.00     0.103 A 
ATOM      8  N   UNL d   1      62.154  47.141  49.594  0.00  0.00    -0.145 NA
ATOM      9  N   UNL d   1      62.611  46.515  49.313  0.00  0.00    -0.106 NA
ATOM     10  C   UNL d   1      62.393  45.738  49.482  0.00  0.00     0.297 A 
ATOM     11  C   UNL d   1      61.716  45.586  49.933  0.00  0.00     0.066 A 
ATOM     12  O   UNL d   1      62.849  45.112  49.202  0.00  0.00    -0.264 OA
ATOM     13  C   UNL d   1      61.254  46.215  50.217  0.00  0.00     0.024 A 
ATOM     14  C   UNL d   1      60.581  46.062  50.666  0.00  0.00     0.002 C 
ENDBRANCH   3   7
BRANCH   1  15
ATOM     15  N   UNL d   1      61.213  49.326  51.685  0.00  0.00    -0.112 N 
ATOM     16  O   UNL d   1      61.926  49.706  51.494  0.00  0.00    -0.532 OA
ATOM     17  O   UNL d   1      60.841  49.483  52.403  0.00  0.00    -0.532 OA
ENDBRANCH   1  15
BRANCH   4  18
ATOM     18  N   UNL d   1      59.650  49.502  51.171  0.00  0.00    -0.239 NA
BRANCH  18  19
ATOM     19  C   UNL d   1      58.945  49.704  50.788  0.00  0.00     0.144 C 
BRANCH  19  20
ATOM     20  C   UNL d   1      58.250  49.288  50.943  0.00  0.00     0.255 C 
ATOM     21  O   UNL d   1      57.534  49.530  50.617  0.00  0.00    -0.281 OA
ENDBRANCH  19  20
ENDBRANCH  18  19
ENDBRANCH   4  18
TORSDOF 5
ENDMDL
