MODEL 1
REMARK VINA RESULT:      19.8      0.000      0.000
REMARK  5 active torsions:
REMARK  status: ('A' for Active; 'I' for Inactive)
REMARK    1  A    between atoms: C_6  and  N_1 
REMARK    2  A    between atoms: C_10  and  C_3 
REMARK    3  A    between atoms: C_7  and  C_6 
REMARK    4  A    between atoms: C_13  and  C_10 
REMARK    5  A    between atoms: C_14  and  C_13 
ROOT
ATOM      1  N   UNL d   1     -58.353 -98.860 -44.314  0.00  0.00    -0.289 N 
ATOM      2  N   UNL d   1     -57.562 -98.756 -45.398  0.00  0.00    -0.227 NA
ATOM      3  C   UNL d   1     -57.563 -98.806 -44.550  0.00  0.00     0.148 A 
ATOM      4  C   UNL d   1     -58.827 -98.845 -44.964  0.00  0.00     0.083 A 
ATOM      5  C   UNL d   1     -58.328 -98.780 -45.648  0.00  0.00     0.099 A 
ATOM      6  C   UNL d   1     -59.643 -98.881 -45.057  0.00  0.00     0.019 A 
ATOM      7  C   UNL d   1     -58.716 -98.756 -46.378  0.00  0.00     0.021 A 
ATOM      8  C   UNL d   1     -59.959 -98.853 -45.791  0.00  0.00     0.002 A 
ATOM      9  C   UNL d   1     -59.477 -98.790 -46.452  0.00  0.00     0.002 A 
ENDROOT
BRANCH   1  10
ATOM     10  C   UNL d   1     -58.442 -98.911 -43.534  0.00  0.00     0.088 C 
BRANCH  10  11
ATOM     11  C   UNL d   1     -59.171 -98.852 -43.179  0.00  0.00     0.052 C 
ATOM     12  C   UNL d   1     -59.845 -98.891 -43.654  0.00  0.00     0.009 C 
ATOM     13 BR   UNL d   1     -59.270 -98.755 -42.373  0.00  0.00    -0.048 Br
ENDBRANCH  10  11
ENDBRANCH   1  10
BRANCH   3  14
ATOM     14  C   UNL d   1     -56.898 -98.802 -44.064  0.00  0.00     0.037 C 
BRANCH  14  15
ATOM     15  C   UNL d   1     -56.143 -98.779 -44.398  0.00  0.00     0.003 C 
BRANCH  15  16
ATOM     16  C   UNL d   1     -55.578 -99.341 -44.180  0.00  0.00     0.000 C 
ATOM     17  C   UNL d   1     -54.776 -99.155 -44.218  0.00  0.00     0.000 C 
ENDBRANCH  15  16
ENDBRANCH  14  15
ENDBRANCH   3  14
TORSDOF 5
ENDMDL
