MODEL 1
REMARK VINA RESULT:      67.3      0.000      0.000
REMARK  5 active torsions:
REMARK  status: ('A' for Active; 'I' for Inactive)
REMARK    1  A    between atoms: S_2  and  C_1 
REMARK    2  A    between atoms: N_3  and  C_1 
REMARK    3  A    between atoms: C_4  and  C_1 
REMARK    4  A    between atoms: C_6  and  S_2 
REMARK       I    between atoms: C_5  and  N_3 
REMARK    5  A    between atoms: C_9  and  C_5 
ROOT
ATOM      1  C   UNL d   1     -48.199  29.672  35.011  0.00  0.00     0.193 C 
ENDROOT
BRANCH   1   2
ATOM      2  S   UNL d   1     -48.032  30.433  34.823  0.00  0.00     0.228 S 
ATOM      3  O   UNL d   1     -47.414  30.455  35.373  0.00  0.00    -0.216 OA
ATOM      4  O   UNL d   1     -48.578  30.415  34.337  0.00  0.00    -0.216 OA
BRANCH   2   5
ATOM      5  C   UNL d   1     -47.913  31.094  34.635  0.00  0.00     0.090 A 
ATOM      6  C   UNL d   1     -47.286  31.556  34.980  0.00  0.00     0.012 A 
ATOM      7  C   UNL d   1     -47.159  32.365  34.736  0.00  0.00     0.012 A 
ATOM      8  C   UNL d   1     -47.659  32.707  34.148  0.00  0.00     0.058 A 
ATOM      9  C   UNL d   1     -48.275  32.260  33.806  0.00  0.00     0.012 A 
ATOM     10 CL   UNL d   1     -47.545  33.301  33.986  0.00  0.00    -0.082 Cl
ATOM     11  C   UNL d   1     -48.402  31.451  34.051  0.00  0.00     0.012 A 
ENDBRANCH   2   5
ENDBRANCH   1   2
BRANCH   1  12
ATOM     12  N   UNL d   1     -48.868  29.284  34.653  0.00  0.00    -0.195 NA
ATOM     13  C   UNL d   1     -48.848  28.473  34.380  0.00  0.00     0.280 C 
ATOM     14  O   UNL d   1     -48.103  28.020  34.474  0.00  0.00    -0.265 OA
BRANCH  13  15
ATOM     15  C   UNL d   1     -49.347  28.054  34.069  0.00  0.00     0.058 A 
ATOM     16  C   UNL d   1     -49.199  27.265  34.254  0.00  0.00     0.005 A 
ATOM     17  C   UNL d   1     -49.687  26.669  33.968  0.00  0.00     0.000 A 
ATOM     18  C   UNL d   1     -50.329  26.873  33.491  0.00  0.00     0.000 A 
ATOM     19  C   UNL d   1     -50.477  27.662  33.306  0.00  0.00     0.000 A 
ATOM     20  C   UNL d   1     -50.660  26.390  33.306  0.00  0.00     0.000 C 
ATOM     21  C   UNL d   1     -49.984  28.248  33.596  0.00  0.00     0.005 A 
ENDBRANCH  13  15
ENDBRANCH   1  12
BRANCH   1  22
ATOM     22  C   UNL d   1     -47.706  29.289  35.555  0.00  0.00     0.144 C 
ATOM     23 CL   UNL d   1     -47.971  29.192  36.378  0.00  0.00    -0.068 Cl
ATOM     24 CL   UNL d   1     -46.944  28.984  35.336  0.00  0.00    -0.068 Cl
ENDBRANCH   1  22
TORSDOF 5
ENDMDL
