MODEL 1
REMARK VINA RESULT:      -8.6      0.000      0.000
REMARK  4 active torsions:
REMARK  status: ('A' for Active; 'I' for Inactive)
REMARK    1  A    between atoms: C_4  and  S_1 
REMARK    2  A    between atoms: N_5  and  S_1 
REMARK    3  A    between atoms: C_3  and  C_12 
REMARK    4  A    between atoms: C_12  and  N_5 
ROOT
ATOM      1  S   UNL d   1      51.552  33.848  52.876  0.00  0.00     0.285 S 
ATOM      2  O   UNL d   1      51.102  33.281  53.271  0.00  0.00    -0.198 OA
ATOM      3  O   UNL d   1      52.002  34.428  52.469  0.00  0.00    -0.198 OA
ENDROOT
BRANCH   1   4
ATOM      4  C   UNL d   1      52.238  33.562  53.229  0.00  0.00     0.105 A 
ATOM      5  C   UNL d   1      52.597  33.995  53.846  0.00  0.00     0.013 A 
ATOM      6  C   UNL d   1      53.285  33.688  54.186  0.00  0.00     0.001 A 
ATOM      7  C   UNL d   1      53.641  34.122  54.800  0.00  0.00     0.000 A 
ATOM      8  C   UNL d   1      53.611  32.978  53.929  0.00  0.00     0.000 A 
ATOM      9  C   UNL d   1      54.329  33.824  55.147  0.00  0.00     0.000 A 
ATOM     10  C   UNL d   1      54.659  33.114  54.893  0.00  0.00     0.000 A 
ATOM     11  C   UNL d   1      54.293  32.696  54.281  0.00  0.00     0.000 A 
ATOM     12  C   UNL d   1      53.249  32.569  53.327  0.00  0.00     0.001 A 
ATOM     13  C   UNL d   1      52.564  32.856  52.974  0.00  0.00     0.013 A 
ENDBRANCH   1   4
BRANCH   1  14
ATOM     14  N   UNL d   1      50.862  34.145  52.513  0.00  0.00    -0.155 NA
BRANCH  14  15
ATOM     15  C   UNL d   1      50.221  34.391  52.966  0.00  0.00     0.132 C 
BRANCH  15  16
ATOM     16  C   UNL d   1      49.547  34.719  52.603  0.00  0.00     0.108 A 
ATOM     17  N   UNL d   1      49.273  34.535  51.851  0.00  0.00    -0.237 NA
ATOM     18  C   UNL d   1      48.587  34.988  51.707  0.00  0.00     0.111 A 
ATOM     19  C   UNL d   1      48.128  34.977  51.012  0.00  0.00     0.028 C 
ATOM     20  S   UNL d   1      48.451  35.446  52.379  0.00  0.00    -0.066 SA
ATOM     21  C   UNL d   1      49.045  35.280  52.933  0.00  0.00     0.058 A 
ENDBRANCH  15  16
ENDBRANCH  14  15
ENDBRANCH   1  14
TORSDOF 4
ENDMDL
MODEL 2
REMARK VINA RESULT:      -7.6      1.186      4.904
REMARK  4 active torsions:
REMARK  status: ('A' for Active; 'I' for Inactive)
REMARK    1  A    between atoms: C_4  and  S_1 
REMARK    2  A    between atoms: N_5  and  S_1 
REMARK    3  A    between atoms: C_3  and  C_12 
REMARK    4  A    between atoms: C_12  and  N_5 
ROOT
ATOM      1  S   UNL d   1      51.055  33.991  53.129  0.00  0.00     0.285 S 
ATOM      2  O   UNL d   1      51.453  34.700  52.987  0.00  0.00    -0.198 OA
ATOM      3  O   UNL d   1      50.658  33.267  53.278  0.00  0.00    -0.198 OA
ENDROOT
BRANCH   1   4
ATOM      4  C   UNL d   1      50.397  34.269  52.721  0.00  0.00     0.105 A 
ATOM      5  C   UNL d   1      49.853  34.773  53.107  0.00  0.00     0.013 A 
ATOM      6  C   UNL d   1      49.200  35.040  52.677  0.00  0.00     0.001 A 
ATOM      7  C   UNL d   1      48.660  35.541  53.064  0.00  0.00     0.000 A 
ATOM      8  C   UNL d   1      49.082  34.820  51.894  0.00  0.00     0.000 A 
ATOM      9  C   UNL d   1      48.003  35.814  52.645  0.00  0.00     0.000 A 
ATOM     10  C   UNL d   1      47.881  35.597  51.860  0.00  0.00     0.000 A 
ATOM     11  C   UNL d   1      48.428  35.098  51.491  0.00  0.00     0.000 A 
ATOM     12  C   UNL d   1      49.621  34.330  51.534  0.00  0.00     0.001 A 
ATOM     13  C   UNL d   1      50.279  34.052  51.941  0.00  0.00     0.013 A 
ENDBRANCH   1   4
BRANCH   1  14
ATOM     14  N   UNL d   1      51.718  33.701  53.544  0.00  0.00    -0.155 NA
BRANCH  14  15
ATOM     15  C   UNL d   1      52.449  33.631  53.173  0.00  0.00     0.132 C 
BRANCH  15  16
ATOM     16  C   UNL d   1      53.101  33.308  53.581  0.00  0.00     0.108 A 
ATOM     17  N   UNL d   1      53.454  33.633  54.246  0.00  0.00    -0.237 NA
ATOM     18  C   UNL d   1      54.085  33.134  54.474  0.00  0.00     0.111 A 
ATOM     19  C   UNL d   1      54.595  33.251  55.122  0.00  0.00     0.028 C 
ATOM     20  S   UNL d   1      54.106  32.507  53.938  0.00  0.00    -0.066 SA
ATOM     21  C   UNL d   1      53.498  32.615  53.385  0.00  0.00     0.058 A 
ENDBRANCH  15  16
ENDBRANCH  14  15
ENDBRANCH   1  14
TORSDOF 4
ENDMDL
MODEL 3
REMARK VINA RESULT:      -7.3      2.626      4.422
REMARK  4 active torsions:
REMARK  status: ('A' for Active; 'I' for Inactive)
REMARK    1  A    between atoms: C_4  and  S_1 
REMARK    2  A    between atoms: N_5  and  S_1 
REMARK    3  A    between atoms: C_3  and  C_12 
REMARK    4  A    between atoms: C_12  and  N_5 
ROOT
ATOM      1  S   UNL d   1      52.718  32.394  53.195  0.00  0.00     0.285 S 
ATOM      2  O   UNL d   1      53.519  32.418  53.001  0.00  0.00    -0.198 OA
ATOM      3  O   UNL d   1      51.902  32.361  53.391  0.00  0.00    -0.198 OA
ENDROOT
BRANCH   1   4
ATOM      4  C   UNL d   1      52.724  33.201  53.355  0.00  0.00     0.105 A 
ATOM      5  C   UNL d   1      53.039  33.477  54.078  0.00  0.00     0.013 A 
ATOM      6  C   UNL d   1      53.035  34.292  54.217  0.00  0.00     0.001 A 
ATOM      7  C   UNL d   1      53.349  34.564  54.938  0.00  0.00     0.000 A 
ATOM      8  C   UNL d   1      52.731  34.820  53.665  0.00  0.00     0.000 A 
ATOM      9  C   UNL d   1      53.350  35.377  55.087  0.00  0.00     0.000 A 
ATOM     10  C   UNL d   1      53.047  35.909  54.537  0.00  0.00     0.000 A 
ATOM     11  C   UNL d   1      52.739  35.621  53.826  0.00  0.00     0.000 A 
ATOM     12  C   UNL d   1      52.429  34.534  52.966  0.00  0.00     0.001 A 
ATOM     13  C   UNL d   1      52.422  33.728  52.807  0.00  0.00     0.013 A 
ENDBRANCH   1   4
BRANCH   1  14
ATOM     14  N   UNL d   1      52.702  31.575  53.035  0.00  0.00    -0.155 NA
BRANCH  14  15
ATOM     15  C   UNL d   1      53.338  31.095  53.240  0.00  0.00     0.132 C 
BRANCH  15  16
ATOM     16  C   UNL d   1      53.212  30.308  53.485  0.00  0.00     0.108 A 
ATOM     17  N   UNL d   1      53.496  29.973  54.178  0.00  0.00    -0.237 NA
ATOM     18  C   UNL d   1      53.242  29.178  54.205  0.00  0.00     0.111 A 
ATOM     19  C   UNL d   1      53.404  28.631  54.811  0.00  0.00     0.028 C 
ATOM     20  S   UNL d   1      52.802  29.039  53.521  0.00  0.00    -0.066 SA
ATOM     21  C   UNL d   1      52.784  29.738  53.075  0.00  0.00     0.058 A 
ENDBRANCH  15  16
ENDBRANCH  14  15
ENDBRANCH   1  14
TORSDOF 4
ENDMDL
MODEL 4
REMARK VINA RESULT:      -6.9      2.701      3.864
REMARK  4 active torsions:
REMARK  status: ('A' for Active; 'I' for Inactive)
REMARK    1  A    between atoms: C_4  and  S_1 
REMARK    2  A    between atoms: N_5  and  S_1 
REMARK    3  A    between atoms: C_3  and  C_12 
REMARK    4  A    between atoms: C_12  and  N_5 
ROOT
ATOM      1  S   UNL d   1      53.200  31.902  53.361  0.00  0.00     0.285 S 
ATOM      2  O   UNL d   1      53.976  31.954  53.635  0.00  0.00    -0.198 OA
ATOM      3  O   UNL d   1      52.410  31.860  53.080  0.00  0.00    -0.198 OA
ENDROOT
BRANCH   1   4
ATOM      4  C   UNL d   1      53.202  31.089  53.483  0.00  0.00     0.105 A 
ATOM      5  C   UNL d   1      53.319  30.787  54.253  0.00  0.00     0.013 A 
ATOM      6  C   UNL d   1      53.317  29.966  54.352  0.00  0.00     0.001 A 
ATOM      7  C   UNL d   1      53.434  29.668  55.120  0.00  0.00     0.000 A 
ATOM      8  C   UNL d   1      53.203  29.457  53.716  0.00  0.00     0.000 A 
ATOM      9  C   UNL d   1      53.434  28.849  55.231  0.00  0.00     0.000 A 
ATOM     10  C   UNL d   1      53.320  28.336  54.597  0.00  0.00     0.000 A 
ATOM     11  C   UNL d   1      53.205  28.650  53.840  0.00  0.00     0.000 A 
ATOM     12  C   UNL d   1      53.091  29.768  52.974  0.00  0.00     0.001 A 
ATOM     13  C   UNL d   1      53.089  30.581  52.851  0.00  0.00     0.013 A 
ENDBRANCH   1   4
BRANCH   1  14
ATOM     14  N   UNL d   1      53.189  32.727  53.233  0.00  0.00    -0.155 NA
BRANCH  14  15
ATOM     15  C   UNL d   1      52.588  33.193  53.547  0.00  0.00     0.132 C 
BRANCH  15  16
ATOM     16  C   UNL d   1      52.693  34.015  53.635  0.00  0.00     0.108 A 
ATOM     17  N   UNL d   1      52.882  34.399  54.335  0.00  0.00    -0.237 NA
ATOM     18  C   UNL d   1      52.934  35.217  54.177  0.00  0.00     0.111 A 
ATOM     19  C   UNL d   1      53.114  35.814  54.728  0.00  0.00     0.028 C 
ATOM     20  S   UNL d   1      52.774  35.321  53.374  0.00  0.00    -0.066 SA
ATOM     21  C   UNL d   1      52.625  34.578  53.039  0.00  0.00     0.058 A 
ENDBRANCH  15  16
ENDBRANCH  14  15
ENDBRANCH   1  14
TORSDOF 4
ENDMDL
