MODEL 1
REMARK VINA RESULT:      -2.6      0.000      0.000
REMARK  3 active torsions:
REMARK  status: ('A' for Active; 'I' for Inactive)
REMARK       I    between atoms: C_3  and  N_1 
REMARK       I    between atoms: C_2  and  N_7 
REMARK    1  A    between atoms: C_4  and  C_2 
REMARK    2  A    between atoms: C_6  and  C_3 
REMARK    3  A    between atoms: N_7  and  C_15 
ROOT
ATOM      1  N   UNL d   1      58.747   0.003  30.668  0.00  0.00    -0.273 N 
ATOM      2  C   UNL d   1      58.582  -0.333  29.929  0.00  0.00     0.271 C 
ATOM      3  C   UNL d   1      58.139   0.162  31.202  0.00  0.00     0.067 A 
ATOM      4  C   UNL d   1      58.311   0.495  31.934  0.00  0.00     0.018 A 
ATOM      5  C   UNL d   1      57.363  -0.016  30.995  0.00  0.00     0.019 A 
ATOM      6  O   UNL d   1      57.803  -0.514  29.714  0.00  0.00    -0.266 OA
ATOM      7  C   UNL d   1      56.914   0.476  32.262  0.00  0.00     0.085 A 
ATOM      8  C   UNL d   1      57.700   0.653  32.466  0.00  0.00     0.021 A 
ATOM      9  C   UNL d   1      59.526   0.184  30.883  0.00  0.00     0.083 A 
ATOM     10  C   UNL d   1      56.752   0.140  31.521  0.00  0.00     0.021 A 
ATOM     11  C   UNL d   1      59.082   0.672  32.141  0.00  0.00     0.003 A 
ATOM     12  C   UNL d   1      59.695   0.516  31.612  0.00  0.00     0.019 A 
ENDROOT
BRANCH   7  13
ATOM     13  N   UNL d   1      56.313   0.633  32.790  0.00  0.00    -0.208 NA
ATOM     14  C   UNL d   1      56.261   0.212  33.495  0.00  0.00     0.282 C 
ATOM     15  O   UNL d   1      56.813  -0.371  33.674  0.00  0.00    -0.265 OA
BRANCH  14  16
ATOM     16  C   UNL d   1      55.660   0.366  34.027  0.00  0.00     0.096 A 
ATOM     17  C   UNL d   1      54.867   0.384  33.772  0.00  0.00     0.065 A 
ATOM     18 CL   UNL d   1      54.696   0.245  32.978  0.00  0.00    -0.082 Cl
ATOM     19  C   UNL d   1      54.264   0.539  34.306  0.00  0.00     0.012 A 
ATOM     20  C   UNL d   1      54.446   0.677  35.100  0.00  0.00     0.003 A 
ATOM     21  C   UNL d   1      55.236   0.659  35.351  0.00  0.00     0.030 A 
ATOM     22  C   UNL d   1      55.841   0.503  34.812  0.00  0.00     0.146 A 
ATOM     23  F   UNL d   1      56.628   0.487  35.077  0.00  0.00    -0.204 F 
ENDBRANCH  14  16
ENDBRANCH   7  13
BRANCH   2  24
ATOM     24  C   UNL d   1      59.202  -0.488  29.401  0.00  0.00     0.086 A 
ATOM     25  S   UNL d   1      59.543   0.068  28.876  0.00  0.00    -0.082 SA
ATOM     26  C   UNL d   1      60.137  -0.328  28.460  0.00  0.00     0.036 A 
ATOM     27  C   UNL d   1      60.173  -1.113  28.713  0.00  0.00     0.008 A 
ATOM     28  C   UNL d   1      59.592  -1.210  29.296  0.00  0.00     0.012 A 
ENDBRANCH   2  24
TORSDOF 3
ENDMDL
MODEL 2
REMARK VINA RESULT:      -1.4      0.864      1.021
REMARK  3 active torsions:
REMARK  status: ('A' for Active; 'I' for Inactive)
REMARK       I    between atoms: C_3  and  N_1 
REMARK       I    between atoms: C_2  and  N_7 
REMARK    1  A    between atoms: C_4  and  C_2 
REMARK    2  A    between atoms: C_6  and  C_3 
REMARK    3  A    between atoms: N_7  and  C_15 
ROOT
ATOM      1  N   UNL d   1      58.906  -0.303  30.571  0.00  0.00    -0.273 N 
ATOM      2  C   UNL d   1      58.837  -0.781  29.899  0.00  0.00     0.271 C 
ATOM      3  C   UNL d   1      58.252  -0.160  31.053  0.00  0.00     0.067 A 
ATOM      4  C   UNL d   1      58.328   0.315  31.720  0.00  0.00     0.018 A 
ATOM      5  C   UNL d   1      57.526  -0.496  30.860  0.00  0.00     0.019 A 
ATOM      6  O   UNL d   1      58.110  -1.122  29.698  0.00  0.00    -0.266 OA
ATOM      7  C   UNL d   1      56.936   0.119  32.009  0.00  0.00     0.085 A 
ATOM      8  C   UNL d   1      57.671   0.456  32.200  0.00  0.00     0.021 A 
ATOM      9  C   UNL d   1      59.633   0.039  30.772  0.00  0.00     0.083 A 
ATOM     10  C   UNL d   1      56.871  -0.358  31.334  0.00  0.00     0.021 A 
ATOM     11  C   UNL d   1      59.048   0.650  31.914  0.00  0.00     0.003 A 
ATOM     12  C   UNL d   1      59.707   0.512  31.437  0.00  0.00     0.019 A 
ENDROOT
BRANCH   7  13
ATOM     13  N   UNL d   1      56.289   0.261  32.486  0.00  0.00    -0.208 NA
ATOM     14  C   UNL d   1      56.353   0.184  33.303  0.00  0.00     0.282 C 
ATOM     15  O   UNL d   1      57.068  -0.035  33.647  0.00  0.00    -0.265 OA
BRANCH  14  16
ATOM     16  C   UNL d   1      55.708   0.325  33.784  0.00  0.00     0.096 A 
ATOM     17  C   UNL d   1      55.817   0.539  34.582  0.00  0.00     0.065 A 
ATOM     18 CL   UNL d   1      56.583   0.606  34.880  0.00  0.00    -0.082 Cl
ATOM     19  C   UNL d   1      55.171   0.680  35.066  0.00  0.00     0.012 A 
ATOM     20  C   UNL d   1      54.407   0.610  34.757  0.00  0.00     0.003 A 
ATOM     21  C   UNL d   1      54.300   0.398  33.963  0.00  0.00     0.030 A 
ATOM     22  C   UNL d   1      54.954   0.256  33.479  0.00  0.00     0.146 A 
ATOM     23  F   UNL d   1      54.832   0.044  32.685  0.00  0.00    -0.204 F 
ENDBRANCH  14  16
ENDBRANCH   7  13
BRANCH   2  24
ATOM     24  C   UNL d   1      59.502  -0.917  29.422  0.00  0.00     0.086 A 
ATOM     25  S   UNL d   1      59.775  -0.411  28.813  0.00  0.00    -0.082 SA
ATOM     26  C   UNL d   1      60.447  -0.766  28.490  0.00  0.00     0.036 A 
ATOM     27  C   UNL d   1      60.598  -1.476  28.882  0.00  0.00     0.008 A 
ATOM     28  C   UNL d   1      60.011  -1.568  29.459  0.00  0.00     0.012 A 
ENDBRANCH   2  24
TORSDOF 3
ENDMDL
