MODEL 1
REMARK VINA RESULT:      -7.4      0.000      0.000
REMARK  5 active torsions:
REMARK  status: ('A' for Active; 'I' for Inactive)
REMARK    1  A    between atoms: N_5  and  C_1 
REMARK    2  A    between atoms: N_6  and  C_1 
REMARK       I    between atoms: C_2  and  N_3 
REMARK    3  A    between atoms: C_4  and  C_2 
REMARK    4  A    between atoms: N_3  and  N_5 
REMARK    5  A    between atoms: C_11  and  N_6 
ROOT
ATOM      1  N   UNL d   1      51.829  34.096  53.657  0.00  0.00    -0.273 N 
ATOM      2  H   UNL d   1      51.680  33.388  54.041  0.00  0.00     0.189 HD
ENDROOT
BRANCH   1   3
ATOM      3  N   UNL d   1      51.212  34.472  53.243  0.00  0.00    -0.264 N 
ATOM      4  C   UNL d   1      50.505  34.082  53.089  0.00  0.00     0.272 C 
ATOM      5  O   UNL d   1      50.402  33.311  53.346  0.00  0.00    -0.266 OA
ATOM      6  H   UNL d   1      51.317  35.260  52.981  0.00  0.00     0.190 HD
BRANCH   4   7
ATOM      7  C   UNL d   1      49.898  34.458  52.679  0.00  0.00     0.058 A 
ATOM      8  C   UNL d   1      49.384  34.978  53.076  0.00  0.00     0.011 A 
ATOM      9  C   UNL d   1      48.781  35.349  52.656  0.00  0.00     0.035 A 
ATOM     10 BR   UNL d   1      48.270  35.864  53.042  0.00  0.00    -0.049 Br
ATOM     11  C   UNL d   1      48.686  35.208  51.855  0.00  0.00     0.007 A 
ATOM     12  C   UNL d   1      49.192  34.695  51.457  0.00  0.00     0.001 A 
ATOM     13  C   UNL d   1      49.803  34.317  51.878  0.00  0.00     0.005 A 
ENDBRANCH   4   7
ENDBRANCH   1   3
BRANCH   1  14
ATOM     14  C   UNL d   1      52.573  34.435  53.678  0.00  0.00     0.191 C 
ATOM     15  S   UNL d   1      52.672  35.223  53.901  0.00  0.00    -0.039 SA
BRANCH  14  16
ATOM     16  N   UNL d   1      53.228  33.972  53.470  0.00  0.00    -0.331 N 
ATOM     17  H   UNL d   1      53.436  33.878  52.684  0.00  0.00     0.168 HD
BRANCH  16  18
ATOM     18  C   UNL d   1      53.656  33.617  54.063  0.00  0.00     0.058 A 
ATOM     19  C   UNL d   1      53.633  32.781  54.137  0.00  0.00     0.017 A 
ATOM     20  C   UNL d   1      54.066  32.411  54.738  0.00  0.00     0.002 A 
ATOM     21  C   UNL d   1      54.519  32.859  55.262  0.00  0.00     0.000 A 
ATOM     22  C   UNL d   1      54.543  33.693  55.187  0.00  0.00     0.002 A 
ATOM     23  C   UNL d   1      54.110  34.064  54.587  0.00  0.00     0.017 A 
ENDBRANCH  16  18
ENDBRANCH  14  16
ENDBRANCH   1  14
TORSDOF 5
ENDMDL
MODEL 2
REMARK VINA RESULT:      -7.1      3.217      4.744
REMARK  5 active torsions:
REMARK  status: ('A' for Active; 'I' for Inactive)
REMARK    1  A    between atoms: N_5  and  C_1 
REMARK    2  A    between atoms: N_6  and  C_1 
REMARK       I    between atoms: C_2  and  N_3 
REMARK    3  A    between atoms: C_4  and  C_2 
REMARK    4  A    between atoms: N_3  and  N_5 
REMARK    5  A    between atoms: C_11  and  N_6 
ROOT
ATOM      1  N   UNL d   1      54.053  32.527  54.188  0.00  0.00    -0.273 N 
ATOM      2  H   UNL d   1      54.584  32.691  53.586  0.00  0.00     0.189 HD
ENDROOT
BRANCH   1   3
ATOM      3  N   UNL d   1      53.665  31.791  54.200  0.00  0.00    -0.264 N 
ATOM      4  C   UNL d   1      53.816  31.222  53.625  0.00  0.00     0.272 C 
ATOM      5  O   UNL d   1      54.356  31.380  53.030  0.00  0.00    -0.266 OA
ATOM      6  H   UNL d   1      53.113  31.629  54.808  0.00  0.00     0.190 HD
BRANCH   4   7
ATOM      7  C   UNL d   1      53.430  30.496  53.642  0.00  0.00     0.058 A 
ATOM      8  C   UNL d   1      53.624  29.931  54.222  0.00  0.00     0.011 A 
ATOM      9  C   UNL d   1      53.231  29.208  54.228  0.00  0.00     0.035 A 
ATOM     10 BR   UNL d   1      53.419  28.646  54.799  0.00  0.00    -0.049 Br
ATOM     11  C   UNL d   1      52.654  29.043  53.671  0.00  0.00     0.007 A 
ATOM     12  C   UNL d   1      52.459  29.598  53.095  0.00  0.00     0.001 A 
ATOM     13  C   UNL d   1      52.853  30.331  53.084  0.00  0.00     0.005 A 
ENDBRANCH   4   7
ENDBRANCH   1   3
BRANCH   1  14
ATOM     14  C   UNL d   1      53.901  33.078  54.774  0.00  0.00     0.191 C 
ATOM     15  S   UNL d   1      54.489  33.298  55.310  0.00  0.00    -0.039 SA
BRANCH  14  16
ATOM     16  N   UNL d   1      53.146  33.414  54.820  0.00  0.00    -0.331 N 
ATOM     17  H   UNL d   1      52.528  32.997  55.160  0.00  0.00     0.168 HD
BRANCH  16  18
ATOM     18  C   UNL d   1      53.033  34.162  54.523  0.00  0.00     0.058 A 
ATOM     19  C   UNL d   1      52.592  34.256  53.815  0.00  0.00     0.017 A 
ATOM     20  C   UNL d   1      52.473  35.015  53.505  0.00  0.00     0.002 A 
ATOM     21  C   UNL d   1      52.785  35.676  53.888  0.00  0.00     0.000 A 
ATOM     22  C   UNL d   1      53.225  35.581  54.594  0.00  0.00     0.002 A 
ATOM     23  C   UNL d   1      53.345  34.823  54.905  0.00  0.00     0.017 A 
ENDBRANCH  16  18
ENDBRANCH  14  16
ENDBRANCH   1  14
TORSDOF 5
ENDMDL
MODEL 3
REMARK VINA RESULT:      -6.8      1.928      5.028
REMARK  5 active torsions:
REMARK  status: ('A' for Active; 'I' for Inactive)
REMARK    1  A    between atoms: N_5  and  C_1 
REMARK    2  A    between atoms: N_6  and  C_1 
REMARK       I    between atoms: C_2  and  N_3 
REMARK    3  A    between atoms: C_4  and  C_2 
REMARK    4  A    between atoms: N_3  and  N_5 
REMARK    5  A    between atoms: C_11  and  N_6 
ROOT
ATOM      1  N   UNL d   1      51.253  34.817  53.270  0.00  0.00    -0.273 N 
ATOM      2  H   UNL d   1      51.294  35.628  53.377  0.00  0.00     0.189 HD
ENDROOT
BRANCH   1   3
ATOM      3  N   UNL d   1      51.878  34.339  53.541  0.00  0.00    -0.264 N 
ATOM      4  C   UNL d   1      52.523  34.665  53.932  0.00  0.00     0.272 C 
ATOM      5  O   UNL d   1      52.554  35.474  54.059  0.00  0.00    -0.266 OA
ATOM      6  H   UNL d   1      51.846  33.512  53.412  0.00  0.00     0.190 HD
BRANCH   4   7
ATOM      7  C   UNL d   1      53.139  34.188  54.198  0.00  0.00     0.058 A 
ATOM      8  C   UNL d   1      53.454  33.597  53.704  0.00  0.00     0.011 A 
ATOM      9  C   UNL d   1      54.069  33.125  53.981  0.00  0.00     0.035 A 
ATOM     10 BR   UNL d   1      54.384  32.540  53.498  0.00  0.00    -0.049 Br
ATOM     11  C   UNL d   1      54.370  33.235  54.735  0.00  0.00     0.007 A 
ATOM     12  C   UNL d   1      54.063  33.818  55.227  0.00  0.00     0.001 A 
ATOM     13  C   UNL d   1      53.440  34.298  54.952  0.00  0.00     0.005 A 
ENDBRANCH   4   7
ENDBRANCH   1   3
BRANCH   1  14
ATOM     14  C   UNL d   1      50.607  34.475  52.901  0.00  0.00     0.191 C 
ATOM     15  S   UNL d   1      50.683  34.120  52.161  0.00  0.00    -0.039 SA
BRANCH  14  16
ATOM     16  N   UNL d   1      49.874  34.491  53.285  0.00  0.00    -0.331 N 
ATOM     17  H   UNL d   1      49.758  34.065  53.975  0.00  0.00     0.168 HD
BRANCH  16  18
ATOM     18  C   UNL d   1      49.276  34.938  52.963  0.00  0.00     0.058 A 
ATOM     19  C   UNL d   1      48.930  35.549  53.423  0.00  0.00     0.017 A 
ATOM     20  C   UNL d   1      48.321  36.008  53.102  0.00  0.00     0.002 A 
ATOM     21  C   UNL d   1      48.052  35.868  52.335  0.00  0.00     0.000 A 
ATOM     22  C   UNL d   1      48.397  35.258  51.876  0.00  0.00     0.002 A 
ATOM     23  C   UNL d   1      49.007  34.798  52.195  0.00  0.00     0.017 A 
ENDBRANCH  16  18
ENDBRANCH  14  16
ENDBRANCH   1  14
TORSDOF 5
ENDMDL
MODEL 4
REMARK VINA RESULT:      -6.8      2.057      2.885
REMARK  5 active torsions:
REMARK  status: ('A' for Active; 'I' for Inactive)
REMARK    1  A    between atoms: N_5  and  C_1 
REMARK    2  A    between atoms: N_6  and  C_1 
REMARK       I    between atoms: C_2  and  N_3 
REMARK    3  A    between atoms: C_4  and  C_2 
REMARK    4  A    between atoms: N_3  and  N_5 
REMARK    5  A    between atoms: C_11  and  N_6 
ROOT
ATOM      1  N   UNL d   1      49.651  35.271  53.285  0.00  0.00    -0.273 N 
ATOM      2  H   UNL d   1      50.078  35.833  53.699  0.00  0.00     0.189 HD
ENDROOT
BRANCH   1   3
ATOM      3  N   UNL d   1      48.836  35.388  53.162  0.00  0.00    -0.264 N 
ATOM      4  C   UNL d   1      48.445  36.032  53.492  0.00  0.00     0.272 C 
ATOM      5  O   UNL d   1      48.862  36.568  53.950  0.00  0.00    -0.266 OA
ATOM      6  H   UNL d   1      48.410  34.841  52.694  0.00  0.00     0.190 HD
BRANCH   4   7
ATOM      7  C   UNL d   1      47.640  36.144  53.367  0.00  0.00     0.058 A 
ATOM      8  C   UNL d   1      47.095  35.982  53.976  0.00  0.00     0.011 A 
ATOM      9  C   UNL d   1      46.292  36.097  53.839  0.00  0.00     0.035 A 
ATOM     10 BR   UNL d   1      45.749  35.939  54.436  0.00  0.00    -0.049 Br
ATOM     11  C   UNL d   1      46.028  36.368  53.113  0.00  0.00     0.007 A 
ATOM     12  C   UNL d   1      46.562  36.530  52.508  0.00  0.00     0.001 A 
ATOM     13  C   UNL d   1      47.376  36.415  52.641  0.00  0.00     0.005 A 
ENDBRANCH   4   7
ENDBRANCH   1   3
BRANCH   1  14
ATOM     14  C   UNL d   1      50.016  34.599  52.992  0.00  0.00     0.191 C 
ATOM     15  S   UNL d   1      49.952  34.397  52.195  0.00  0.00    -0.039 SA
BRANCH  14  16
ATOM     16  N   UNL d   1      50.451  34.124  53.511  0.00  0.00    -0.331 N 
ATOM     17  H   UNL d   1      50.085  33.765  54.150  0.00  0.00     0.168 HD
BRANCH  16  18
ATOM     18  C   UNL d   1      51.246  34.023  53.373  0.00  0.00     0.058 A 
ATOM     19  C   UNL d   1      51.537  33.252  53.211  0.00  0.00     0.017 A 
ATOM     20  C   UNL d   1      52.345  33.141  53.069  0.00  0.00     0.002 A 
ATOM     21  C   UNL d   1      52.864  33.782  53.085  0.00  0.00     0.000 A 
ATOM     22  C   UNL d   1      52.573  34.551  53.246  0.00  0.00     0.002 A 
ATOM     23  C   UNL d   1      51.765  34.664  53.389  0.00  0.00     0.017 A 
ENDBRANCH  16  18
ENDBRANCH  14  16
ENDBRANCH   1  14
TORSDOF 5
ENDMDL
MODEL 5
REMARK VINA RESULT:      -6.7      2.812      3.755
REMARK  5 active torsions:
REMARK  status: ('A' for Active; 'I' for Inactive)
REMARK    1  A    between atoms: N_5  and  C_1 
REMARK    2  A    between atoms: N_6  and  C_1 
REMARK       I    between atoms: C_2  and  N_3 
REMARK    3  A    between atoms: C_4  and  C_2 
REMARK    4  A    between atoms: N_3  and  N_5 
REMARK    5  A    between atoms: C_11  and  N_6 
ROOT
ATOM      1  N   UNL d   1      53.235  31.439  53.816  0.00  0.00    -0.273 N 
ATOM      2  H   UNL d   1      53.713  31.509  54.478  0.00  0.00     0.189 HD
ENDROOT
BRANCH   1   3
ATOM      3  N   UNL d   1      52.879  32.120  53.497  0.00  0.00    -0.264 N 
ATOM      4  C   UNL d   1      52.934  32.847  53.880  0.00  0.00     0.272 C 
ATOM      5  O   UNL d   1      53.346  32.903  54.585  0.00  0.00    -0.266 OA
ATOM      6  H   UNL d   1      52.458  32.063  52.776  0.00  0.00     0.190 HD
BRANCH   4   7
ATOM      7  C   UNL d   1      52.580  33.517  53.561  0.00  0.00     0.058 A 
ATOM      8  C   UNL d   1      51.769  33.512  53.368  0.00  0.00     0.011 A 
ATOM      9  C   UNL d   1      51.426  34.189  53.050  0.00  0.00     0.035 A 
ATOM     10 BR   UNL d   1      50.627  34.190  52.858  0.00  0.00    -0.049 Br
ATOM     11  C   UNL d   1      51.875  34.862  52.922  0.00  0.00     0.007 A 
ATOM     12  C   UNL d   1      52.676  34.872  53.110  0.00  0.00     0.001 A 
ATOM     13  C   UNL d   1      53.028  34.191  53.433  0.00  0.00     0.005 A 
ENDBRANCH   4   7
ENDBRANCH   1   3
BRANCH   1  14
ATOM     14  C   UNL d   1      53.106  30.710  53.468  0.00  0.00     0.191 C 
ATOM     15  S   UNL d   1      53.449  30.522  52.742  0.00  0.00    -0.039 SA
BRANCH  14  16
ATOM     16  N   UNL d   1      52.624  30.161  53.858  0.00  0.00    -0.331 N 
ATOM     17  H   UNL d   1      51.808  30.228  53.822  0.00  0.00     0.168 HD
BRANCH  16  18
ATOM     18  C   UNL d   1      52.978  29.559  54.274  0.00  0.00     0.058 A 
ATOM     19  C   UNL d   1      52.878  29.527  55.107  0.00  0.00     0.017 A 
ATOM     20  C   UNL d   1      53.235  28.917  55.538  0.00  0.00     0.002 A 
ATOM     21  C   UNL d   1      53.687  28.343  55.155  0.00  0.00     0.000 A 
ATOM     22  C   UNL d   1      53.786  28.376  54.324  0.00  0.00     0.002 A 
ATOM     23  C   UNL d   1      53.429  28.985  53.891  0.00  0.00     0.017 A 
ENDBRANCH  16  18
ENDBRANCH  14  16
ENDBRANCH   1  14
TORSDOF 5
ENDMDL
MODEL 6
REMARK VINA RESULT:      -4.9     10.920     11.492
REMARK  5 active torsions:
REMARK  status: ('A' for Active; 'I' for Inactive)
REMARK    1  A    between atoms: N_5  and  C_1 
REMARK    2  A    between atoms: N_6  and  C_1 
REMARK       I    between atoms: C_2  and  N_3 
REMARK    3  A    between atoms: C_4  and  C_2 
REMARK    4  A    between atoms: N_3  and  N_5 
REMARK    5  A    between atoms: C_11  and  N_6 
ROOT
ATOM      1  N   UNL d   1      45.163  25.711  57.336  0.00  0.00    -0.273 N 
ATOM      2  H   UNL d   1      45.919  25.522  57.086  0.00  0.00     0.189 HD
ENDROOT
BRANCH   1   3
ATOM      3  N   UNL d   1      44.968  26.508  57.478  0.00  0.00    -0.264 N 
ATOM      4  C   UNL d   1      45.475  27.115  57.254  0.00  0.00     0.272 C 
ATOM      5  O   UNL d   1      46.184  26.936  56.885  0.00  0.00    -0.266 OA
ATOM      6  H   UNL d   1      44.243  26.691  57.854  0.00  0.00     0.190 HD
BRANCH   4   7
ATOM      7  C   UNL d   1      45.278  27.901  57.397  0.00  0.00     0.058 A 
ATOM      8  C   UNL d   1      45.014  28.386  56.774  0.00  0.00     0.011 A 
ATOM      9  C   UNL d   1      44.819  29.171  56.929  0.00  0.00     0.035 A 
ATOM     10 BR   UNL d   1      44.558  29.655  56.318  0.00  0.00    -0.049 Br
ATOM     11  C   UNL d   1      44.884  29.474  57.687  0.00  0.00     0.007 A 
ATOM     12  C   UNL d   1      45.145  28.998  58.306  0.00  0.00     0.001 A 
ATOM     13  C   UNL d   1      45.343  28.204  58.155  0.00  0.00     0.005 A 
ENDBRANCH   4   7
ENDBRANCH   1   3
BRANCH   1  14
ATOM     14  C   UNL d   1      44.600  25.127  57.446  0.00  0.00     0.191 C 
ATOM     15  S   UNL d   1      44.314  24.953  58.200  0.00  0.00    -0.039 SA
BRANCH  14  16
ATOM     16  N   UNL d   1      44.321  24.713  56.786  0.00  0.00    -0.331 N 
ATOM     17  H   UNL d   1      43.737  25.035  56.310  0.00  0.00     0.168 HD
BRANCH  16  18
ATOM     18  C   UNL d   1      44.638  23.982  56.623  0.00  0.00     0.058 A 
ATOM     19  C   UNL d   1      44.933  23.829  55.852  0.00  0.00     0.017 A 
ATOM     20  C   UNL d   1      45.257  23.087  55.678  0.00  0.00     0.002 A 
ATOM     21  C   UNL d   1      45.291  22.500  56.257  0.00  0.00     0.000 A 
ATOM     22  C   UNL d   1      44.997  22.653  57.026  0.00  0.00     0.002 A 
ATOM     23  C   UNL d   1      44.672  23.394  57.201  0.00  0.00     0.017 A 
ENDBRANCH  16  18
ENDBRANCH  14  16
ENDBRANCH   1  14
TORSDOF 5
ENDMDL
MODEL 7
REMARK VINA RESULT:      -4.8     10.608     11.387
REMARK  5 active torsions:
REMARK  status: ('A' for Active; 'I' for Inactive)
REMARK    1  A    between atoms: N_5  and  C_1 
REMARK    2  A    between atoms: N_6  and  C_1 
REMARK       I    between atoms: C_2  and  N_3 
REMARK    3  A    between atoms: C_4  and  C_2 
REMARK    4  A    between atoms: N_3  and  N_5 
REMARK    5  A    between atoms: C_11  and  N_6 
ROOT
ATOM      1  N   UNL d   1      44.653  29.278  59.965  0.00  0.00    -0.273 N 
ATOM      2  H   UNL d   1      44.500  28.477  59.883  0.00  0.00     0.189 HD
ENDROOT
BRANCH   1   3
ATOM      3  N   UNL d   1      44.612  29.625  60.720  0.00  0.00    -0.264 N 
ATOM      4  C   UNL d   1      44.462  29.170  61.389  0.00  0.00     0.272 C 
ATOM      5  O   UNL d   1      44.352  28.362  61.313  0.00  0.00    -0.266 OA
ATOM      6  H   UNL d   1      44.724  30.451  60.797  0.00  0.00     0.190 HD
BRANCH   4   7
ATOM      7  C   UNL d   1      44.422  29.518  62.133  0.00  0.00     0.058 A 
ATOM      8  C   UNL d   1      44.389  30.347  62.207  0.00  0.00     0.011 A 
ATOM      9  C   UNL d   1      44.349  30.684  62.957  0.00  0.00     0.035 A 
ATOM     10 BR   UNL d   1      44.315  31.501  63.036  0.00  0.00    -0.049 Br
ATOM     11  C   UNL d   1      44.342  30.211  63.625  0.00  0.00     0.007 A 
ATOM     12  C   UNL d   1      44.375  29.392  63.558  0.00  0.00     0.001 A 
ATOM     13  C   UNL d   1      44.416  29.046  62.802  0.00  0.00     0.005 A 
ENDBRANCH   4   7
ENDBRANCH   1   3
BRANCH   1  14
ATOM     14  C   UNL d   1      44.845  29.736  59.314  0.00  0.00     0.191 C 
ATOM     15  S   UNL d   1      44.423  30.424  59.143  0.00  0.00    -0.039 SA
BRANCH  14  16
ATOM     16  N   UNL d   1      45.473  29.497  58.830  0.00  0.00    -0.331 N 
ATOM     17  H   UNL d   1      46.247  29.581  59.083  0.00  0.00     0.168 HD
BRANCH  16  18
ATOM     18  C   UNL d   1      45.302  29.180  58.101  0.00  0.00     0.058 A 
ATOM     19  C   UNL d   1      45.415  28.357  57.978  0.00  0.00     0.017 A 
ATOM     20  C   UNL d   1      45.243  28.026  57.239  0.00  0.00     0.002 A 
ATOM     21  C   UNL d   1      44.963  28.500  56.624  0.00  0.00     0.000 A 
ATOM     22  C   UNL d   1      44.851  29.321  56.747  0.00  0.00     0.002 A 
ATOM     23  C   UNL d   1      45.022  29.653  57.486  0.00  0.00     0.017 A 
ENDBRANCH  16  18
ENDBRANCH  14  16
ENDBRANCH   1  14
TORSDOF 5
ENDMDL
