MODEL 1
REMARK VINA RESULT:      -6.9      0.000      0.000
REMARK  6 active torsions:
REMARK  status: ('A' for Active; 'I' for Inactive)
REMARK    1  A    between atoms: O_8  and  C_1 
REMARK    2  A    between atoms: C_10  and  C_5 
REMARK    3  A    between atoms: C_12  and  O_8 
REMARK    4  A    between atoms: N_9  and  C_10 
REMARK    5  A    between atoms: O_24  and  C_17 
REMARK    6  A    between atoms: C_28  and  O_24 
ROOT
ATOM      1  C   UNL d   1     -46.598  12.317  23.563  0.00  0.00     0.161 A 
ATOM      2  C   UNL d   1     -48.251  12.472  23.527  0.00  0.00     0.108 A 
ATOM      3  C   UNL d   1     -47.906  11.716  23.482  0.00  0.00     0.064 A 
ATOM      4  C   UNL d   1     -47.083  11.641  23.500  0.00  0.00     0.222 A 
ATOM      5  C   UNL d   1     -49.075  12.548  23.509  0.00  0.00     0.079 A 
ATOM      6  O   UNL d   1     -47.784  13.154  23.590  0.00  0.00    -0.305 OA
ATOM      7  C   UNL d   1     -46.947  13.072  23.607  0.00  0.00     0.126 A 
ATOM      8  C   UNL d   1     -48.382  11.053  23.421  0.00  0.00     0.009 A 
ATOM      9  C   UNL d   1     -49.547  11.877  23.448  0.00  0.00     0.199 A 
ATOM     10  O   UNL d   1     -46.736  10.893  23.456  0.00  0.00    -0.284 OA
ATOM     11  C   UNL d   1     -49.201  11.129  23.403  0.00  0.00     0.042 A 
ATOM     12  O   UNL d   1     -50.368  11.953  23.430  0.00  0.00    -0.286 OA
ATOM     13  C   UNL d   1     -46.474  13.743  23.669  0.00  0.00     0.029 C 
ENDROOT
BRANCH   1  14
ATOM     14  O   UNL d   1     -45.776  12.237  23.580  0.00  0.00    -0.300 OA
BRANCH  14  15
ATOM     15  C   UNL d   1     -45.339  12.380  22.897  0.00  0.00     0.123 A 
ATOM     16  C   UNL d   1     -44.643  11.962  22.761  0.00  0.00     0.123 A 
ATOM     17  C   UNL d   1     -44.204  12.100  22.083  0.00  0.00     0.027 A 
ATOM     18  C   UNL d   1     -44.456  12.659  21.533  0.00  0.00     0.002 A 
ATOM     19  C   UNL d   1     -45.160  13.085  21.668  0.00  0.00     0.002 A 
ATOM     20  C   UNL d   1     -45.598  12.942  22.351  0.00  0.00     0.027 A 
BRANCH  16  21
ATOM     21  O   UNL d   1     -44.387  11.401  23.309  0.00  0.00    -0.303 OA
BRANCH  21  22
ATOM     22  C   UNL d   1     -43.760  10.903  23.122  0.00  0.00     0.123 C 
ATOM     23  C   UNL d   1     -43.588  10.251  23.595  0.00  0.00     0.029 C 
ENDBRANCH  21  22
ENDBRANCH  16  21
ENDBRANCH  14  15
ENDBRANCH   1  14
BRANCH   5  24
ATOM     24  C   UNL d   1     -49.428  13.292  23.553  0.00  0.00     0.086 C 
BRANCH  24  25
ATOM     25  N   UNL d   1     -49.841  13.583  22.895  0.00  0.00    -0.300 N 
ATOM     26  C   UNL d   1     -50.661  13.686  22.929  0.00  0.00     0.100 A 
ATOM     27  C   UNL d   1     -51.064  13.975  22.275  0.00  0.00     0.100 A 
ATOM     28  N   UNL d   1     -50.658  14.164  21.583  0.00  0.00    -0.299 N 
ATOM     29  C   UNL d   1     -49.837  14.061  21.549  0.00  0.00     0.100 A 
ATOM     30  C   UNL d   1     -51.063  14.454  20.928  0.00  0.00     0.100 C 
ATOM     31  C   UNL d   1     -49.424  13.769  22.208  0.00  0.00     0.100 A 
ENDBRANCH  24  25
ENDBRANCH   5  24
TORSDOF 6
ENDMDL
MODEL 2
REMARK VINA RESULT:      -5.4      1.721      4.894
REMARK  6 active torsions:
REMARK  status: ('A' for Active; 'I' for Inactive)
REMARK    1  A    between atoms: O_8  and  C_1 
REMARK    2  A    between atoms: C_10  and  C_5 
REMARK    3  A    between atoms: C_12  and  O_8 
REMARK    4  A    between atoms: N_9  and  C_10 
REMARK    5  A    between atoms: O_24  and  C_17 
REMARK    6  A    between atoms: C_28  and  O_24 
ROOT
ATOM      1  C   UNL d   1     -48.484  13.064  23.366  0.00  0.00     0.161 A 
ATOM      2  C   UNL d   1     -46.937  12.469  23.471  0.00  0.00     0.108 A 
ATOM      3  C   UNL d   1     -47.585  11.948  23.526  0.00  0.00     0.064 A 
ATOM      4  C   UNL d   1     -48.354  12.247  23.473  0.00  0.00     0.222 A 
ATOM      5  C   UNL d   1     -46.167  12.171  23.523  0.00  0.00     0.079 A 
ATOM      6  O   UNL d   1     -47.049  13.284  23.364  0.00  0.00    -0.305 OA
ATOM      7  C   UNL d   1     -47.834  13.581  23.311  0.00  0.00     0.126 A 
ATOM      8  C   UNL d   1     -47.456  11.146  23.631  0.00  0.00     0.009 A 
ATOM      9  C   UNL d   1     -46.045  11.363  23.629  0.00  0.00     0.199 A 
ATOM     10  O   UNL d   1     -48.999  11.734  23.528  0.00  0.00    -0.284 OA
ATOM     11  C   UNL d   1     -46.690  10.851  23.683  0.00  0.00     0.042 A 
ATOM     12  O   UNL d   1     -45.278  11.068  23.681  0.00  0.00    -0.286 OA
ATOM     13  C   UNL d   1     -47.956  14.389  23.205  0.00  0.00     0.029 C 
ENDROOT
BRANCH   1  14
ATOM     14  O   UNL d   1     -49.255  13.356  23.314  0.00  0.00    -0.300 OA
BRANCH  14  15
ATOM     15  C   UNL d   1     -49.618  13.416  22.578  0.00  0.00     0.123 A 
ATOM     16  C   UNL d   1     -50.239  13.947  22.470  0.00  0.00     0.123 A 
ATOM     17  C   UNL d   1     -50.605  14.011  21.740  0.00  0.00     0.027 A 
ATOM     18  C   UNL d   1     -50.354  13.545  21.108  0.00  0.00     0.002 A 
ATOM     19  C   UNL d   1     -49.726  13.006  21.215  0.00  0.00     0.002 A 
ATOM     20  C   UNL d   1     -49.362  12.945  21.951  0.00  0.00     0.027 A 
BRANCH  16  21
ATOM     21  O   UNL d   1     -50.492  14.416  23.099  0.00  0.00    -0.303 OA
BRANCH  21  22
ATOM     22  C   UNL d   1     -50.998  15.050  22.959  0.00  0.00     0.123 C 
ATOM     23  C   UNL d   1     -51.064  15.660  23.507  0.00  0.00     0.029 C 
ENDBRANCH  21  22
ENDBRANCH  16  21
ENDBRANCH  14  15
ENDBRANCH   1  14
BRANCH   5  24
ATOM     24  C   UNL d   1     -45.517  12.677  23.470  0.00  0.00     0.086 C 
BRANCH  24  25
ATOM     25  N   UNL d   1     -45.041  12.654  22.791  0.00  0.00    -0.300 N 
ATOM     26  C   UNL d   1     -45.192  13.166  22.158  0.00  0.00     0.100 A 
ATOM     27  C   UNL d   1     -44.718  13.140  21.489  0.00  0.00     0.100 A 
ATOM     28  N   UNL d   1     -44.091  12.606  21.442  0.00  0.00    -0.299 N 
ATOM     29  C   UNL d   1     -43.940  12.094  22.074  0.00  0.00     0.100 A 
ATOM     30  C   UNL d   1     -43.616  12.580  20.770  0.00  0.00     0.100 C 
ATOM     31  C   UNL d   1     -44.417  12.116  22.754  0.00  0.00     0.100 A 
ENDBRANCH  24  25
ENDBRANCH   5  24
TORSDOF 6
ENDMDL
MODEL 3
REMARK VINA RESULT:      -5.2      7.630      9.522
REMARK  6 active torsions:
REMARK  status: ('A' for Active; 'I' for Inactive)
REMARK    1  A    between atoms: O_8  and  C_1 
REMARK    2  A    between atoms: C_10  and  C_5 
REMARK    3  A    between atoms: C_12  and  O_8 
REMARK    4  A    between atoms: N_9  and  C_10 
REMARK    5  A    between atoms: O_24  and  C_17 
REMARK    6  A    between atoms: C_28  and  O_24 
ROOT
ATOM      1  C   UNL d   1     -39.048  14.662  20.014  0.00  0.00     0.161 A 
ATOM      2  C   UNL d   1     -39.089  15.019  18.393  0.00  0.00     0.108 A 
ATOM      3  C   UNL d   1     -38.761  14.297  18.649  0.00  0.00     0.064 A 
ATOM      4  C   UNL d   1     -38.742  14.122  19.457  0.00  0.00     0.222 A 
ATOM      5  C   UNL d   1     -39.109  15.195  17.584  0.00  0.00     0.079 A 
ATOM      6  O   UNL d   1     -39.397  15.566  18.934  0.00  0.00    -0.305 OA
ATOM      7  C   UNL d   1     -39.374  15.382  19.753  0.00  0.00     0.126 A 
ATOM      8  C   UNL d   1     -38.461  13.768  18.101  0.00  0.00     0.009 A 
ATOM      9  C   UNL d   1     -38.805  14.658  17.040  0.00  0.00     0.199 A 
ATOM     10  O   UNL d   1     -38.418  13.408  19.716  0.00  0.00    -0.284 OA
ATOM     11  C   UNL d   1     -38.481  13.944  17.298  0.00  0.00     0.042 A 
ATOM     12  O   UNL d   1     -38.825  14.835  16.235  0.00  0.00    -0.286 OA
ATOM     13  C   UNL d   1     -39.678  15.920  20.299  0.00  0.00     0.029 C 
ENDROOT
BRANCH   1  14
ATOM     14  O   UNL d   1     -39.026  14.481  20.820  0.00  0.00    -0.300 OA
BRANCH  14  15
ATOM     15  C   UNL d   1     -39.681  14.133  21.176  0.00  0.00     0.123 A 
ATOM     16  C   UNL d   1     -39.593  13.727  21.888  0.00  0.00     0.123 A 
ATOM     17  C   UNL d   1     -40.241  13.378  22.248  0.00  0.00     0.027 A 
ATOM     18  C   UNL d   1     -40.986  13.430  21.900  0.00  0.00     0.002 A 
ATOM     19  C   UNL d   1     -41.078  13.840  21.179  0.00  0.00     0.002 A 
ATOM     20  C   UNL d   1     -40.424  14.189  20.822  0.00  0.00     0.027 A 
BRANCH  16  21
ATOM     21  O   UNL d   1     -38.848  13.673  22.240  0.00  0.00    -0.303 OA
BRANCH  21  22
ATOM     22  C   UNL d   1     -38.781  13.690  23.059  0.00  0.00     0.123 C 
ATOM     23  C   UNL d   1     -38.184  13.270  23.439  0.00  0.00     0.029 C 
ENDBRANCH  21  22
ENDBRANCH  16  21
ENDBRANCH  14  15
ENDBRANCH   1  14
BRANCH   5  24
ATOM     24  C   UNL d   1     -39.431  15.906  17.318  0.00  0.00     0.086 C 
BRANCH  24  25
ATOM     25  N   UNL d   1     -40.189  15.907  16.982  0.00  0.00    -0.300 N 
ATOM     26  C   UNL d   1     -40.860  15.905  17.464  0.00  0.00     0.100 A 
ATOM     27  C   UNL d   1     -41.607  15.906  17.126  0.00  0.00     0.100 A 
ATOM     28  N   UNL d   1     -41.695  15.908  16.306  0.00  0.00    -0.299 N 
ATOM     29  C   UNL d   1     -41.023  15.910  15.822  0.00  0.00     0.100 A 
ATOM     30  C   UNL d   1     -42.445  15.909  15.967  0.00  0.00     0.100 C 
ATOM     31  C   UNL d   1     -40.264  15.909  16.160  0.00  0.00     0.100 A 
ENDBRANCH  24  25
ENDBRANCH   5  24
TORSDOF 6
ENDMDL
MODEL 4
REMARK VINA RESULT:      -4.6      1.506      2.538
REMARK  6 active torsions:
REMARK  status: ('A' for Active; 'I' for Inactive)
REMARK    1  A    between atoms: O_8  and  C_1 
REMARK    2  A    between atoms: C_10  and  C_5 
REMARK    3  A    between atoms: C_12  and  O_8 
REMARK    4  A    between atoms: N_9  and  C_10 
REMARK    5  A    between atoms: O_24  and  C_17 
REMARK    6  A    between atoms: C_28  and  O_24 
ROOT
ATOM      1  C   UNL d   1     -46.658  13.532  21.897  0.00  0.00     0.161 A 
ATOM      2  C   UNL d   1     -48.215  14.072  22.109  0.00  0.00     0.108 A 
ATOM      3  C   UNL d   1     -47.580  14.501  22.437  0.00  0.00     0.064 A 
ATOM      4  C   UNL d   1     -46.806  14.229  22.330  0.00  0.00     0.222 A 
ATOM      5  C   UNL d   1     -48.989  14.343  22.216  0.00  0.00     0.079 A 
ATOM      6  O   UNL d   1     -48.085  13.377  21.677  0.00  0.00    -0.305 OA
ATOM      7  C   UNL d   1     -47.296  13.107  21.571  0.00  0.00     0.126 A 
ATOM      8  C   UNL d   1     -47.726  15.185  22.862  0.00  0.00     0.009 A 
ATOM      9  C   UNL d   1     -49.128  15.032  22.644  0.00  0.00     0.199 A 
ATOM     10  O   UNL d   1     -46.174  14.651  22.653  0.00  0.00    -0.284 OA
ATOM     11  C   UNL d   1     -48.496  15.453  22.967  0.00  0.00     0.042 A 
ATOM     12  O   UNL d   1     -49.900  15.300  22.750  0.00  0.00    -0.286 OA
ATOM     13  C   UNL d   1     -47.157  12.417  21.143  0.00  0.00     0.029 C 
ENDROOT
BRANCH   1  14
ATOM     14  O   UNL d   1     -45.883  13.266  21.793  0.00  0.00    -0.300 OA
BRANCH  14  15
ATOM     15  C   UNL d   1     -45.580  12.691  22.298  0.00  0.00     0.123 A 
ATOM     16  C   UNL d   1     -44.769  12.550  22.318  0.00  0.00     0.123 A 
ATOM     17  C   UNL d   1     -44.461  11.979  22.818  0.00  0.00     0.027 A 
ATOM     18  C   UNL d   1     -44.961  11.541  23.305  0.00  0.00     0.002 A 
ATOM     19  C   UNL d   1     -45.783  11.682  23.287  0.00  0.00     0.002 A 
ATOM     20  C   UNL d   1     -46.087  12.257  22.783  0.00  0.00     0.027 A 
BRANCH  16  21
ATOM     21  O   UNL d   1     -44.265  12.986  21.832  0.00  0.00    -0.303 OA
BRANCH  21  22
ATOM     22  C   UNL d   1     -43.559  12.654  21.572  0.00  0.00     0.123 C 
ATOM     23  C   UNL d   1     -43.199  12.923  20.882  0.00  0.00     0.029 C 
ENDBRANCH  21  22
ENDBRANCH  16  21
ENDBRANCH  14  15
ENDBRANCH   1  14
BRANCH   5  24
ATOM     24  C   UNL d   1     -49.626  13.927  21.897  0.00  0.00     0.086 C 
BRANCH  24  25
ATOM     25  N   UNL d   1     -49.989  13.333  22.348  0.00  0.00    -0.300 N 
ATOM     26  C   UNL d   1     -50.697  13.485  22.747  0.00  0.00     0.100 A 
ATOM     27  C   UNL d   1     -51.052  12.895  23.191  0.00  0.00     0.100 A 
ATOM     28  N   UNL d   1     -50.708  12.147  23.244  0.00  0.00    -0.299 N 
ATOM     29  C   UNL d   1     -49.999  11.994  22.845  0.00  0.00     0.100 A 
ATOM     30  C   UNL d   1     -51.064  11.555  23.690  0.00  0.00     0.100 C 
ATOM     31  C   UNL d   1     -49.636  12.589  22.394  0.00  0.00     0.100 A 
ENDBRANCH  24  25
ENDBRANCH   5  24
TORSDOF 6
ENDMDL
