MODEL 1
REMARK VINA RESULT:      -4.8      0.000      0.000
REMARK  4 active torsions:
REMARK  status: ('A' for Active; 'I' for Inactive)
REMARK    1  A    between atoms: C_8  and  C_1 
REMARK    2  A    between atoms: N_11  and  C_9 
REMARK    3  A    between atoms: C_15  and  N_11 
REMARK    4  A    between atoms: C_16  and  N_11 
ROOT
ATOM      1  C   UNL d   1      58.507  -0.287  29.813  0.00  0.00     0.102 A 
ATOM      2  C   UNL d   1      58.256  -1.081  29.911  0.00  0.00     0.303 A 
ATOM      3  C   UNL d   1      58.210   0.291  30.323  0.00  0.00     0.011 A 
ATOM      4  O   UNL d   1      57.720  -1.258  30.513  0.00  0.00    -0.273 OA
ATOM      5  C   UNL d   1      57.429  -0.683  31.016  0.00  0.00     0.105 A 
ATOM      6  C   UNL d   1      57.680   0.111  30.919  0.00  0.00     0.023 A 
ATOM      7  C   UNL d   1      56.908  -0.868  31.599  0.00  0.00     0.042 A 
ATOM      8  C   UNL d   1      56.614  -0.291  32.105  0.00  0.00     0.066 A 
ATOM      9  O   UNL d   1      58.544  -1.677  29.407  0.00  0.00    -0.259 OA
ATOM     10  C   UNL d   1      57.398   0.681  31.409  0.00  0.00     0.004 A 
ATOM     11  C   UNL d   1      56.865   0.502  32.008  0.00  0.00     0.018 A 
ENDROOT
BRANCH   8  12
ATOM     12  N   UNL d   1      56.077  -0.491  32.704  0.00  0.00    -0.304 N 
BRANCH  12  13
ATOM     13  C   UNL d   1      55.818   0.098  33.231  0.00  0.00     0.080 C 
ATOM     14  C   UNL d   1      55.020   0.105  33.480  0.00  0.00     0.021 C 
ENDBRANCH  12  13
BRANCH  12  15
ATOM     15  C   UNL d   1      55.806  -1.254  32.776  0.00  0.00     0.080 C 
ATOM     16  C   UNL d   1      55.798  -1.631  33.491  0.00  0.00     0.021 C 
ENDBRANCH  12  15
ENDBRANCH   8  12
BRANCH   1  17
ATOM     17  C   UNL d   1      59.046  -0.089  29.212  0.00  0.00     0.201 C 
ATOM     18  O   UNL d   1      58.770   0.131  28.455  0.00  0.00    -0.286 OA
ATOM     19  C   UNL d   1      59.858  -0.112  29.371  0.00  0.00     0.045 C 
ENDBRANCH   1  17
TORSDOF 4
ENDMDL
MODEL 2
REMARK VINA RESULT:      -4.3      1.063      1.998
REMARK  4 active torsions:
REMARK  status: ('A' for Active; 'I' for Inactive)
REMARK    1  A    between atoms: C_8  and  C_1 
REMARK    2  A    between atoms: N_11  and  C_9 
REMARK    3  A    between atoms: C_15  and  N_11 
REMARK    4  A    between atoms: C_16  and  N_11 
ROOT
ATOM      1  C   UNL d   1      57.497  -0.616  30.870  0.00  0.00     0.102 A 
ATOM      2  C   UNL d   1      57.405   0.217  30.874  0.00  0.00     0.303 A 
ATOM      3  C   UNL d   1      57.132  -1.061  31.462  0.00  0.00     0.011 A 
ATOM      4  O   UNL d   1      56.952   0.565  31.470  0.00  0.00    -0.273 OA
ATOM      5  C   UNL d   1      56.591   0.121  32.054  0.00  0.00     0.105 A 
ATOM      6  C   UNL d   1      56.684  -0.712  32.050  0.00  0.00     0.023 A 
ATOM      7  C   UNL d   1      56.153   0.471  32.629  0.00  0.00     0.042 A 
ATOM      8  C   UNL d   1      55.790   0.027  33.217  0.00  0.00     0.066 A 
ATOM      9  O   UNL d   1      57.765   0.682  30.286  0.00  0.00    -0.259 OA
ATOM     10  C   UNL d   1      56.333  -1.155  32.621  0.00  0.00     0.004 A 
ATOM     11  C   UNL d   1      55.883  -0.806  33.213  0.00  0.00     0.018 A 
ENDROOT
BRANCH   8  12
ATOM     12  N   UNL d   1      55.339   0.397  33.806  0.00  0.00    -0.304 N 
BRANCH  12  13
ATOM     13  C   UNL d   1      54.517   0.472  33.702  0.00  0.00     0.080 C 
ATOM     14  C   UNL d   1      54.033   0.644  34.360  0.00  0.00     0.021 C 
ENDBRANCH  12  13
BRANCH  12  15
ATOM     15  C   UNL d   1      55.695   0.682  34.479  0.00  0.00     0.080 C 
ATOM     16  C   UNL d   1      55.433   0.473  35.214  0.00  0.00     0.021 C 
ENDBRANCH  12  15
ENDBRANCH   8  12
BRANCH   1  17
ATOM     17  C   UNL d   1      57.950  -0.985  30.278  0.00  0.00     0.201 C 
ATOM     18  O   UNL d   1      57.795  -1.776  30.061  0.00  0.00    -0.286 OA
ATOM     19  C   UNL d   1      58.555  -0.559  29.906  0.00  0.00     0.045 C 
ENDBRANCH   1  17
TORSDOF 4
ENDMDL
