MODEL 1
REMARK VINA RESULT:      -9.2      0.000      0.000
REMARK  2 active torsions:
REMARK  status: ('A' for Active; 'I' for Inactive)
REMARK    1  A    between atoms: C_9  and  N_1 
REMARK    2  A    between atoms: C_11  and  C_9 
ROOT
ATOM      1  N   UNL d   1      53.397  31.547  53.446  0.00  0.00    -0.287 N 
ATOM      2  N   UNL d   1      52.432  32.436  53.112  0.00  0.00    -0.224 NA
ATOM      3  C   UNL d   1      53.548  32.264  53.860  0.00  0.00     0.083 A 
ATOM      4  C   UNL d   1      52.708  31.656  52.986  0.00  0.00     0.183 A 
ATOM      5  C   UNL d   1      52.954  32.809  53.653  0.00  0.00     0.099 A 
ATOM      6  C   UNL d   1      54.143  32.483  54.389  0.00  0.00     0.019 A 
ATOM      7  C   UNL d   1      52.961  33.567  53.978  0.00  0.00     0.021 A 
ATOM      8  C   UNL d   1      54.148  33.241  54.712  0.00  0.00     0.002 A 
ATOM      9  C   UNL d   1      53.553  33.786  54.505  0.00  0.00     0.002 A 
ATOM     10  C   UNL d   1      54.744  33.462  55.243  0.00  0.00     0.000 C 
ATOM     11  C   UNL d   1      53.562  34.542  54.831  0.00  0.00     0.000 C 
ENDROOT
BRANCH   1  12
ATOM     12  C   UNL d   1      53.733  30.799  53.377  0.00  0.00     0.082 C 
BRANCH  12  13
ATOM     13  C   UNL d   1      53.260  30.128  53.446  0.00  0.00     0.018 C 
ATOM     14  C   UNL d   1      53.226  29.720  54.164  0.00  0.00     0.002 C 
ATOM     15  C   UNL d   1      52.821  29.862  52.800  0.00  0.00     0.002 C 
ENDBRANCH  12  13
ENDBRANCH   1  12
TORSDOF 2
ENDMDL
MODEL 2
REMARK VINA RESULT:      -8.8      0.639      3.201
REMARK  2 active torsions:
REMARK  status: ('A' for Active; 'I' for Inactive)
REMARK    1  A    between atoms: C_9  and  N_1 
REMARK    2  A    between atoms: C_11  and  C_9 
ROOT
ATOM      1  N   UNL d   1      53.705  32.439  54.276  0.00  0.00    -0.287 N 
ATOM      2  N   UNL d   1      53.137  32.625  53.061  0.00  0.00    -0.224 NA
ATOM      3  C   UNL d   1      53.498  31.684  53.966  0.00  0.00     0.083 A 
ATOM      4  C   UNL d   1      53.481  33.017  53.715  0.00  0.00     0.183 A 
ATOM      5  C   UNL d   1      53.150  31.801  53.219  0.00  0.00     0.099 A 
ATOM      6  C   UNL d   1      53.584  30.920  54.267  0.00  0.00     0.019 A 
ATOM      7  C   UNL d   1      52.891  31.152  52.781  0.00  0.00     0.021 A 
ATOM      8  C   UNL d   1      53.324  30.274  53.827  0.00  0.00     0.002 A 
ATOM      9  C   UNL d   1      52.975  30.391  53.080  0.00  0.00     0.002 A 
ATOM     10  C   UNL d   1      53.409  29.507  54.128  0.00  0.00     0.000 C 
ATOM     11  C   UNL d   1      52.717  29.742  52.645  0.00  0.00     0.000 C 
ENDROOT
BRANCH   1  12
ATOM     12  C   UNL d   1      54.053  32.746  54.955  0.00  0.00     0.082 C 
BRANCH  12  13
ATOM     13  C   UNL d   1      54.354  33.514  54.952  0.00  0.00     0.018 C 
ATOM     14  C   UNL d   1      55.159  33.641  54.818  0.00  0.00     0.002 C 
ATOM     15  C   UNL d   1      53.852  34.155  55.083  0.00  0.00     0.002 C 
ENDBRANCH  12  13
ENDBRANCH   1  12
TORSDOF 2
ENDMDL
MODEL 3
REMARK VINA RESULT:      -8.7      1.722      2.951
REMARK  2 active torsions:
REMARK  status: ('A' for Active; 'I' for Inactive)
REMARK    1  A    between atoms: C_9  and  N_1 
REMARK    2  A    between atoms: C_11  and  C_9 
ROOT
ATOM      1  N   UNL d   1      52.104  34.001  53.598  0.00  0.00    -0.287 N 
ATOM      2  N   UNL d   1      52.759  35.102  54.037  0.00  0.00    -0.224 NA
ATOM      3  C   UNL d   1      52.796  33.749  54.006  0.00  0.00     0.083 A 
ATOM      4  C   UNL d   1      52.084  34.836  53.620  0.00  0.00     0.183 A 
ATOM      5  C   UNL d   1      53.197  34.427  54.274  0.00  0.00     0.099 A 
ATOM      6  C   UNL d   1      53.104  32.999  54.161  0.00  0.00     0.019 A 
ATOM      7  C   UNL d   1      53.902  34.348  54.695  0.00  0.00     0.021 A 
ATOM      8  C   UNL d   1      53.808  32.923  54.582  0.00  0.00     0.002 A 
ATOM      9  C   UNL d   1      54.209  33.601  54.851  0.00  0.00     0.002 A 
ATOM     10  C   UNL d   1      54.118  32.171  54.739  0.00  0.00     0.000 C 
ATOM     11  C   UNL d   1      54.912  33.520  55.271  0.00  0.00     0.000 C 
ENDROOT
BRANCH   1  12
ATOM     12  C   UNL d   1      51.469  33.659  53.203  0.00  0.00     0.082 C 
BRANCH  12  13
ATOM     13  C   UNL d   1      51.061  34.089  52.630  0.00  0.00     0.018 C 
ATOM     14  C   UNL d   1      50.329  34.426  52.810  0.00  0.00     0.002 C 
ATOM     15  C   UNL d   1      51.384  34.183  51.876  0.00  0.00     0.002 C 
ENDBRANCH  12  13
ENDBRANCH   1  12
TORSDOF 2
ENDMDL
MODEL 4
REMARK VINA RESULT:      -8.4      2.013      3.176
REMARK  2 active torsions:
REMARK  status: ('A' for Active; 'I' for Inactive)
REMARK    1  A    between atoms: C_9  and  N_1 
REMARK    2  A    between atoms: C_11  and  C_9 
ROOT
ATOM      1  N   UNL d   1      53.258  33.864  54.396  0.00  0.00    -0.287 N 
ATOM      2  N   UNL d   1      53.022  35.128  53.971  0.00  0.00    -0.224 NA
ATOM      3  C   UNL d   1      52.557  33.857  53.929  0.00  0.00     0.083 A 
ATOM      4  C   UNL d   1      53.542  34.650  54.420  0.00  0.00     0.183 A 
ATOM      5  C   UNL d   1      52.414  34.634  53.669  0.00  0.00     0.099 A 
ATOM      6  C   UNL d   1      52.042  33.248  53.714  0.00  0.00     0.019 A 
ATOM      7  C   UNL d   1      51.758  34.795  53.196  0.00  0.00     0.021 A 
ATOM      8  C   UNL d   1      51.388  33.412  53.242  0.00  0.00     0.002 A 
ATOM      9  C   UNL d   1      51.245  34.189  52.981  0.00  0.00     0.002 A 
ATOM     10  C   UNL d   1      50.870  32.802  53.025  0.00  0.00     0.000 C 
ATOM     11  C   UNL d   1      50.589  34.347  52.509  0.00  0.00     0.000 C 
ENDROOT
BRANCH   1  12
ATOM     12  C   UNL d   1      53.717  33.328  54.817  0.00  0.00     0.082 C 
BRANCH  12  13
ATOM     13  C   UNL d   1      54.532  33.298  54.694  0.00  0.00     0.018 C 
ATOM     14  C   UNL d   1      55.043  33.676  55.222  0.00  0.00     0.002 C 
ATOM     15  C   UNL d   1      54.838  32.892  54.044  0.00  0.00     0.002 C 
ENDBRANCH  12  13
ENDBRANCH   1  12
TORSDOF 2
ENDMDL
MODEL 5
REMARK VINA RESULT:      -8.3      0.997      3.312
REMARK  2 active torsions:
REMARK  status: ('A' for Active; 'I' for Inactive)
REMARK    1  A    between atoms: C_9  and  N_1 
REMARK    2  A    between atoms: C_11  and  C_9 
ROOT
ATOM      1  N   UNL d   1      53.219  33.211  53.443  0.00  0.00    -0.287 N 
ATOM      2  N   UNL d   1      53.930  32.804  54.521  0.00  0.00    -0.224 NA
ATOM      3  C   UNL d   1      53.231  32.369  53.446  0.00  0.00     0.083 A 
ATOM      4  C   UNL d   1      53.651  33.476  54.108  0.00  0.00     0.183 A 
ATOM      5  C   UNL d   1      53.669  32.122  54.109  0.00  0.00     0.099 A 
ATOM      6  C   UNL d   1      52.904  31.809  52.935  0.00  0.00     0.019 A 
ATOM      7  C   UNL d   1      53.775  31.317  54.254  0.00  0.00     0.021 A 
ATOM      8  C   UNL d   1      53.011  31.006  53.082  0.00  0.00     0.002 A 
ATOM      9  C   UNL d   1      53.449  30.758  53.745  0.00  0.00     0.002 A 
ATOM     10  C   UNL d   1      52.684  30.443  52.570  0.00  0.00     0.000 C 
ATOM     11  C   UNL d   1      53.554  29.954  53.888  0.00  0.00     0.000 C 
ENDROOT
BRANCH   1  12
ATOM     12  C   UNL d   1      52.907  33.816  52.981  0.00  0.00     0.082 C 
BRANCH  12  13
ATOM     13  C   UNL d   1      52.439  34.399  53.327  0.00  0.00     0.018 C 
ATOM     14  C   UNL d   1      52.792  35.048  53.696  0.00  0.00     0.002 C 
ATOM     15  C   UNL d   1      51.616  34.335  53.305  0.00  0.00     0.002 C 
ENDBRANCH  12  13
ENDBRANCH   1  12
TORSDOF 2
ENDMDL
