MODEL 1
REMARK VINA RESULT:      -4.9      0.000      0.000
REMARK  0 active torsions:
REMARK  status: ('A' for Active; 'I' for Inactive)
ROOT
ATOM      1  C   UNL d   1     -41.405-123.092 -53.839  0.00  0.00     0.282 A 
ATOM      2  N   UNL d   1     -41.278-122.878 -53.051  0.00  0.00    -0.189 NA
ATOM      3  N   UNL d   1     -41.964-121.643 -53.282  0.00  0.00    -0.227 NA
ATOM      4  C   UNL d   1     -41.808-122.584 -54.345  0.00  0.00     0.076 A 
ATOM      5  C   UNL d   1     -41.558-122.153 -52.772  0.00  0.00     0.166 A 
ATOM      6  C   UNL d   1     -42.088-121.860 -54.066  0.00  0.00     0.088 A 
ATOM      7  O   UNL d   1     -41.125-123.817 -54.118  0.00  0.00    -0.265 OA
ATOM      8  C   UNL d   1     -41.933-122.800 -55.130  0.00  0.00     0.006 A 
ATOM      9  C   UNL d   1     -41.430-121.939 -51.980  0.00  0.00     0.042 C 
ATOM     10  C   UNL d   1     -42.492-121.351 -54.573  0.00  0.00     0.019 A 
ATOM     11  C   UNL d   1     -42.340-122.290 -55.643  0.00  0.00     0.000 A 
ATOM     12  C   UNL d   1     -42.619-121.566 -55.364  0.00  0.00     0.002 A 
ENDROOT
TORSDOF 0
ENDMDL
MODEL 2
REMARK VINA RESULT:      -4.9      1.815      3.401
REMARK  0 active torsions:
REMARK  status: ('A' for Active; 'I' for Inactive)
ROOT
ATOM      1  C   UNL d   1     -41.140-122.044 -52.445  0.00  0.00     0.282 A 
ATOM      2  N   UNL d   1     -41.148-122.388 -53.197  0.00  0.00    -0.189 NA
ATOM      3  N   UNL d   1     -41.172-123.686 -52.597  0.00  0.00    -0.227 NA
ATOM      4  C   UNL d   1     -41.149-122.519 -51.774  0.00  0.00     0.076 A 
ATOM      5  C   UNL d   1     -41.163-123.209 -53.273  0.00  0.00     0.166 A 
ATOM      6  C   UNL d   1     -41.164-123.341 -51.850  0.00  0.00     0.088 A 
ATOM      7  O   UNL d   1     -41.125-121.222 -52.370  0.00  0.00    -0.265 OA
ATOM      8  C   UNL d   1     -41.142-122.175 -51.027  0.00  0.00     0.006 A 
ATOM      9  C   UNL d   1     -41.170-123.554 -54.029  0.00  0.00     0.042 C 
ATOM     10  C   UNL d   1     -41.173-123.817 -51.178  0.00  0.00     0.019 A 
ATOM     11  C   UNL d   1     -41.150-122.651 -50.347  0.00  0.00     0.000 A 
ATOM     12  C   UNL d   1     -41.166-123.472 -50.423  0.00  0.00     0.002 A 
ENDROOT
TORSDOF 0
ENDMDL
MODEL 3
REMARK VINA RESULT:      -4.8      1.400      2.034
REMARK  0 active torsions:
REMARK  status: ('A' for Active; 'I' for Inactive)
ROOT
ATOM      1  C   UNL d   1     -41.287-122.167 -52.435  0.00  0.00     0.282 A 
ATOM      2  N   UNL d   1     -41.209-122.579 -51.722  0.00  0.00    -0.189 NA
ATOM      3  N   UNL d   1     -41.271-123.817 -52.436  0.00  0.00    -0.227 NA
ATOM      4  C   UNL d   1     -41.356-122.579 -53.143  0.00  0.00     0.076 A 
ATOM      5  C   UNL d   1     -41.201-123.404 -51.723  0.00  0.00     0.166 A 
ATOM      6  C   UNL d   1     -41.349-123.404 -53.144  0.00  0.00     0.088 A 
ATOM      7  O   UNL d   1     -41.294-121.342 -52.434  0.00  0.00    -0.265 OA
ATOM      8  C   UNL d   1     -41.434-122.167 -53.852  0.00  0.00     0.006 A 
ATOM      9  C   UNL d   1     -41.123-123.817 -51.006  0.00  0.00     0.042 C 
ATOM     10  C   UNL d   1     -41.418-123.817 -53.854  0.00  0.00     0.019 A 
ATOM     11  C   UNL d   1     -41.504-122.580 -54.569  0.00  0.00     0.000 A 
ATOM     12  C   UNL d   1     -41.497-123.404 -54.570  0.00  0.00     0.002 A 
ENDROOT
TORSDOF 0
ENDMDL
MODEL 4
REMARK VINA RESULT:      -4.6      1.284      2.627
REMARK  0 active torsions:
REMARK  status: ('A' for Active; 'I' for Inactive)
ROOT
ATOM      1  C   UNL d   1     -41.953-121.588 -53.940  0.00  0.00     0.282 A 
ATOM      2  N   UNL d   1     -42.234-121.469 -54.709  0.00  0.00    -0.189 NA
ATOM      3  N   UNL d   1     -41.961-122.840 -55.015  0.00  0.00    -0.227 NA
ATOM      4  C   UNL d   1     -41.679-122.329 -53.711  0.00  0.00     0.076 A 
ATOM      5  C   UNL d   1     -42.238-122.095 -55.246  0.00  0.00     0.166 A 
ATOM      6  C   UNL d   1     -41.683-122.955 -54.249  0.00  0.00     0.088 A 
ATOM      7  O   UNL d   1     -41.949-120.962 -53.403  0.00  0.00    -0.265 OA
ATOM      8  C   UNL d   1     -41.400-122.446 -52.945  0.00  0.00     0.006 A 
ATOM      9  C   UNL d   1     -42.520-121.975 -56.018  0.00  0.00     0.042 C 
ATOM     10  C   UNL d   1     -41.408-123.698 -54.020  0.00  0.00     0.019 A 
ATOM     11  C   UNL d   1     -41.123-123.191 -52.711  0.00  0.00     0.000 A 
ATOM     12  C   UNL d   1     -41.127-123.817 -53.248  0.00  0.00     0.002 A 
ENDROOT
TORSDOF 0
ENDMDL
MODEL 5
REMARK VINA RESULT:      -4.3      1.349      1.801
REMARK  0 active torsions:
REMARK  status: ('A' for Active; 'I' for Inactive)
ROOT
ATOM      1  C   UNL d   1     -41.177-123.097 -51.969  0.00  0.00     0.282 A 
ATOM      2  N   UNL d   1     -41.160-122.388 -51.544  0.00  0.00    -0.189 NA
ATOM      3  N   UNL d   1     -41.239-121.657 -52.771  0.00  0.00    -0.227 NA
ATOM      4  C   UNL d   1     -41.225-123.085 -52.790  0.00  0.00     0.076 A 
ATOM      5  C   UNL d   1     -41.191-121.668 -51.945  0.00  0.00     0.166 A 
ATOM      6  C   UNL d   1     -41.256-122.364 -53.191  0.00  0.00     0.088 A 
ATOM      7  O   UNL d   1     -41.147-123.817 -51.567  0.00  0.00    -0.265 OA
ATOM      8  C   UNL d   1     -41.242-123.792 -53.211  0.00  0.00     0.006 A 
ATOM      9  C   UNL d   1     -41.173-120.955 -51.517  0.00  0.00     0.042 C 
ATOM     10  C   UNL d   1     -41.304-122.352 -54.014  0.00  0.00     0.019 A 
ATOM     11  C   UNL d   1     -41.291-123.784 -54.039  0.00  0.00     0.000 A 
ATOM     12  C   UNL d   1     -41.321-123.063 -54.440  0.00  0.00     0.002 A 
ENDROOT
TORSDOF 0
ENDMDL
MODEL 6
REMARK VINA RESULT:      -3.1      2.148      3.884
REMARK  0 active torsions:
REMARK  status: ('A' for Active; 'I' for Inactive)
ROOT
ATOM      1  C   UNL d   1     -41.379-121.559 -51.361  0.00  0.00     0.282 A 
ATOM      2  N   UNL d   1     -41.218-121.794 -52.137  0.00  0.00    -0.189 NA
ATOM      3  N   UNL d   1     -41.557-123.141 -51.794  0.00  0.00    -0.227 NA
ATOM      4  C   UNL d   1     -41.628-122.113 -50.806  0.00  0.00     0.076 A 
ATOM      5  C   UNL d   1     -41.307-122.585 -52.354  0.00  0.00     0.166 A 
ATOM      6  C   UNL d   1     -41.716-122.904 -51.022  0.00  0.00     0.088 A 
ATOM      7  O   UNL d   1     -41.291-120.768 -51.144  0.00  0.00    -0.265 OA
ATOM      8  C   UNL d   1     -41.787-121.877 -50.033  0.00  0.00     0.006 A 
ATOM      9  C   UNL d   1     -41.145-122.820 -53.134  0.00  0.00     0.042 C 
ATOM     10  C   UNL d   1     -41.965-123.459 -50.467  0.00  0.00     0.019 A 
ATOM     11  C   UNL d   1     -42.038-122.433 -49.470  0.00  0.00     0.000 A 
ATOM     12  C   UNL d   1     -42.126-123.224 -49.687  0.00  0.00     0.002 A 
ENDROOT
TORSDOF 0
ENDMDL
MODEL 7
REMARK VINA RESULT:      -3.0      3.415      4.399
REMARK  0 active torsions:
REMARK  status: ('A' for Active; 'I' for Inactive)
ROOT
ATOM      1  C   UNL d   1     -42.878-122.566 -49.883  0.00  0.00     0.282 A 
ATOM      2  N   UNL d   1     -42.995-122.878 -49.126  0.00  0.00    -0.189 NA
ATOM      3  N   UNL d   1     -41.938-123.815 -49.355  0.00  0.00    -0.227 NA
ATOM      4  C   UNL d   1     -42.295-122.877 -50.372  0.00  0.00     0.076 A 
ATOM      5  C   UNL d   1     -42.525-123.503 -48.862  0.00  0.00     0.166 A 
ATOM      6  C   UNL d   1     -41.825-123.502 -50.108  0.00  0.00     0.088 A 
ATOM      7  O   UNL d   1     -43.348-121.941 -50.147  0.00  0.00    -0.265 OA
ATOM      8  C   UNL d   1     -42.180-122.565 -51.125  0.00  0.00     0.006 A 
ATOM      9  C   UNL d   1     -42.643-123.815 -48.101  0.00  0.00     0.042 C 
ATOM     10  C   UNL d   1     -41.240-123.814 -50.597  0.00  0.00     0.019 A 
ATOM     11  C   UNL d   1     -41.593-122.877 -51.621  0.00  0.00     0.000 A 
ATOM     12  C   UNL d   1     -41.123-123.501 -51.357  0.00  0.00     0.002 A 
ENDROOT
TORSDOF 0
ENDMDL
MODEL 8
REMARK VINA RESULT:      -2.6      4.344      5.668
REMARK  0 active torsions:
REMARK  status: ('A' for Active; 'I' for Inactive)
ROOT
ATOM      1  C   UNL d   1     -41.742-123.416 -49.690  0.00  0.00     0.282 A 
ATOM      2  N   UNL d   1     -42.362-123.051 -50.099  0.00  0.00    -0.189 NA
ATOM      3  N   UNL d   1     -42.980-122.716 -48.853  0.00  0.00    -0.227 NA
ATOM      4  C   UNL d   1     -41.743-123.429 -48.867  0.00  0.00     0.076 A 
ATOM      5  C   UNL d   1     -42.981-122.701 -49.680  0.00  0.00     0.166 A 
ATOM      6  C   UNL d   1     -42.362-123.080 -48.449  0.00  0.00     0.088 A 
ATOM      7  O   UNL d   1     -41.123-123.766 -50.109  0.00  0.00    -0.265 OA
ATOM      8  C   UNL d   1     -41.125-123.793 -48.462  0.00  0.00     0.006 A 
ATOM      9  C   UNL d   1     -43.603-122.335 -50.092  0.00  0.00     0.042 C 
ATOM     10  C   UNL d   1     -42.363-123.093 -47.625  0.00  0.00     0.019 A 
ATOM     11  C   UNL d   1     -41.123-123.809 -47.633  0.00  0.00     0.000 A 
ATOM     12  C   UNL d   1     -41.741-123.459 -47.214  0.00  0.00     0.002 A 
ENDROOT
TORSDOF 0
ENDMDL
