MODEL 1
REMARK VINA RESULT:      -7.7      0.000      0.000
REMARK  6 active torsions:
REMARK  status: ('A' for Active; 'I' for Inactive)
REMARK    1  A    between atoms: C_7  and  C_1 
REMARK    2  A    between atoms: S_9  and  C_2 
REMARK    3  A    between atoms: C_11  and  C_4 
REMARK    4  A    between atoms: C_15  and  S_9 
REMARK    5  A    between atoms: C_12  and  C_15 
REMARK    6  A    between atoms: O_21  and  C_12 
ROOT
ATOM      1  C   UNL d   1     -47.806  13.655  22.802  0.00  0.00     0.045 A 
ATOM      2  C   UNL d   1     -47.208  13.096  22.840  0.00  0.00     0.112 A 
ATOM      3  C   UNL d   1     -48.755  12.666  23.234  0.00  0.00     0.057 A 
ATOM      4  C   UNL d   1     -48.580  13.448  22.997  0.00  0.00     0.008 A 
ATOM      5  C   UNL d   1     -48.157  12.108  23.271  0.00  0.00     0.085 A 
ATOM      6  N   UNL d   1     -47.370  12.319  23.072  0.00  0.00    -0.239 NA
ATOM      7  C   UNL d   1     -49.522  12.467  23.425  0.00  0.00     0.197 A 
ATOM      8  O   UNL d   1     -50.129  13.033  23.387  0.00  0.00    -0.286 OA
ATOM      9  C   UNL d   1     -48.312  11.338  23.500  0.00  0.00     0.019 A 
ATOM     10  C   UNL d   1     -49.689  11.693  23.658  0.00  0.00     0.042 A 
ATOM     11  C   UNL d   1     -49.090  11.135  23.695  0.00  0.00     0.005 A 
ENDROOT
BRANCH   4  12
ATOM     12  C   UNL d   1     -49.174  14.002  22.960  0.00  0.00     0.000 A 
ATOM     13  C   UNL d   1     -49.362  14.446  23.625  0.00  0.00     0.000 A 
ATOM     14  C   UNL d   1     -49.960  15.005  23.588  0.00  0.00     0.000 A 
ATOM     15  C   UNL d   1     -50.371  15.119  22.886  0.00  0.00     0.000 A 
ATOM     16  C   UNL d   1     -50.185  14.671  22.208  0.00  0.00     0.000 A 
ATOM     17  C   UNL d   1     -50.975  15.682  22.848  0.00  0.00     0.000 C 
ATOM     18  C   UNL d   1     -49.587  14.113  22.245  0.00  0.00     0.000 A 
ENDBRANCH   4  12
BRANCH   1  19
ATOM     19  C   UNL d   1     -47.627  14.441  22.564  0.00  0.00     0.124 C 
ATOM     20  N   UNL d   1     -47.022  14.857  22.953  0.00  0.00    -0.146 N 
ENDBRANCH   1  19
BRANCH   2  21
ATOM     21  S   UNL d   1     -46.399  13.296  22.641  0.00  0.00    -0.062 SA
BRANCH  21  22
ATOM     22  C   UNL d   1     -45.958  12.777  22.192  0.00  0.00     0.105 C 
BRANCH  22  23
ATOM     23  C   UNL d   1     -45.129  12.776  22.255  0.00  0.00     0.303 C 
ATOM     24  O   UNL d   1     -44.752  12.382  22.876  0.00  0.00    -0.259 OA
BRANCH  23  25
ATOM     25  O   UNL d   1     -44.680  13.170  21.696  0.00  0.00    -0.295 OA
ATOM     26  C   UNL d   1     -43.907  12.911  21.534  0.00  0.00     0.185 C 
ENDBRANCH  23  25
ENDBRANCH  22  23
ENDBRANCH  21  22
ENDBRANCH   2  21
TORSDOF 6
ENDMDL
MODEL 2
REMARK VINA RESULT:      -7.4      1.731      2.688
REMARK  6 active torsions:
REMARK  status: ('A' for Active; 'I' for Inactive)
REMARK    1  A    between atoms: C_7  and  C_1 
REMARK    2  A    between atoms: S_9  and  C_2 
REMARK    3  A    between atoms: C_11  and  C_4 
REMARK    4  A    between atoms: C_15  and  S_9 
REMARK    5  A    between atoms: C_12  and  C_15 
REMARK    6  A    between atoms: O_21  and  C_12 
ROOT
ATOM      1  C   UNL d   1     -47.414  12.095  23.262  0.00  0.00     0.045 A 
ATOM      2  C   UNL d   1     -46.602  12.114  23.372  0.00  0.00     0.112 A 
ATOM      3  C   UNL d   1     -47.397  13.484  22.895  0.00  0.00     0.057 A 
ATOM      4  C   UNL d   1     -47.817  12.774  23.024  0.00  0.00     0.008 A 
ATOM      5  C   UNL d   1     -46.586  13.504  23.006  0.00  0.00     0.085 A 
ATOM      6  N   UNL d   1     -46.176  12.813  23.248  0.00  0.00    -0.239 NA
ATOM      7  C   UNL d   1     -47.801  14.152  22.661  0.00  0.00     0.197 A 
ATOM      8  O   UNL d   1     -48.624  14.133  22.548  0.00  0.00    -0.286 OA
ATOM      9  C   UNL d   1     -46.159  14.192  22.884  0.00  0.00     0.019 A 
ATOM     10  C   UNL d   1     -47.380  14.851  22.535  0.00  0.00     0.042 A 
ATOM     11  C   UNL d   1     -46.569  14.870  22.646  0.00  0.00     0.005 A 
ENDROOT
BRANCH   4  12
ATOM     12  C   UNL d   1     -48.623  12.754  22.914  0.00  0.00     0.000 A 
ATOM     13  C   UNL d   1     -48.931  12.597  22.169  0.00  0.00     0.000 A 
ATOM     14  C   UNL d   1     -49.743  12.577  22.059  0.00  0.00     0.000 A 
ATOM     15  C   UNL d   1     -50.246  12.716  22.693  0.00  0.00     0.000 A 
ATOM     16  C   UNL d   1     -49.940  12.876  23.450  0.00  0.00     0.000 A 
ATOM     17  C   UNL d   1     -51.064  12.696  22.581  0.00  0.00     0.000 C 
ATOM     18  C   UNL d   1     -49.128  12.896  23.561  0.00  0.00     0.000 A 
ENDBRANCH   4  12
BRANCH   1  19
ATOM     19  C   UNL d   1     -47.834  11.378  23.392  0.00  0.00     0.124 C 
ATOM     20  N   UNL d   1     -47.806  10.779  22.817  0.00  0.00    -0.146 N 
ENDBRANCH   1  19
BRANCH   2  21
ATOM     21  S   UNL d   1     -46.169  11.418  23.619  0.00  0.00    -0.062 SA
BRANCH  21  22
ATOM     22  C   UNL d   1     -45.390  11.332  23.396  0.00  0.00     0.105 C 
BRANCH  22  23
ATOM     23  C   UNL d   1     -44.976  10.639  23.596  0.00  0.00     0.303 C 
ATOM     24  O   UNL d   1     -45.372   9.921  23.695  0.00  0.00    -0.259 OA
BRANCH  23  25
ATOM     25  O   UNL d   1     -44.165  10.669  23.698  0.00  0.00    -0.295 OA
ATOM     26  C   UNL d   1     -43.720   9.968  23.657  0.00  0.00     0.185 C 
ENDBRANCH  23  25
ENDBRANCH  22  23
ENDBRANCH  21  22
ENDBRANCH   2  21
TORSDOF 6
ENDMDL
MODEL 3
REMARK VINA RESULT:      -6.0      1.221      4.032
REMARK  6 active torsions:
REMARK  status: ('A' for Active; 'I' for Inactive)
REMARK    1  A    between atoms: C_7  and  C_1 
REMARK    2  A    between atoms: S_9  and  C_2 
REMARK    3  A    between atoms: C_11  and  C_4 
REMARK    4  A    between atoms: C_15  and  S_9 
REMARK    5  A    between atoms: C_12  and  C_15 
REMARK    6  A    between atoms: O_21  and  C_12 
ROOT
ATOM      1  C   UNL d   1     -47.505  13.854  22.763  0.00  0.00     0.045 A 
ATOM      2  C   UNL d   1     -48.277  13.953  23.015  0.00  0.00     0.112 A 
ATOM      3  C   UNL d   1     -47.572  12.460  23.106  0.00  0.00     0.057 A 
ATOM      4  C   UNL d   1     -47.146  13.112  22.804  0.00  0.00     0.008 A 
ATOM      5  C   UNL d   1     -48.345  12.560  23.359  0.00  0.00     0.085 A 
ATOM      6  N   UNL d   1     -48.709  13.314  23.316  0.00  0.00    -0.239 NA
ATOM      7  C   UNL d   1     -47.213  11.729  23.145  0.00  0.00     0.197 A 
ATOM      8  O   UNL d   1     -46.429  11.628  22.889  0.00  0.00    -0.286 OA
ATOM      9  C   UNL d   1     -48.776  11.931  23.657  0.00  0.00     0.019 A 
ATOM     10  C   UNL d   1     -47.638  11.090  23.444  0.00  0.00     0.042 A 
ATOM     11  C   UNL d   1     -48.411  11.189  23.697  0.00  0.00     0.005 A 
ENDROOT
BRANCH   4  12
ATOM     12  C   UNL d   1     -46.379  13.014  22.554  0.00  0.00     0.000 A 
ATOM     13  C   UNL d   1     -45.782  12.882  23.102  0.00  0.00     0.000 A 
ATOM     14  C   UNL d   1     -45.009  12.782  22.850  0.00  0.00     0.000 A 
ATOM     15  C   UNL d   1     -44.833  12.814  22.048  0.00  0.00     0.000 A 
ATOM     16  C   UNL d   1     -45.433  12.947  21.487  0.00  0.00     0.000 A 
ATOM     17  C   UNL d   1     -44.053  12.713  21.793  0.00  0.00     0.000 C 
ATOM     18  C   UNL d   1     -46.206  13.047  21.739  0.00  0.00     0.000 A 
ENDBRANCH   4  12
BRANCH   1  19
ATOM     19  C   UNL d   1     -47.078  14.512  22.459  0.00  0.00     0.124 C 
ATOM     20  N   UNL d   1     -47.053  15.217  22.897  0.00  0.00    -0.146 N 
ENDBRANCH   1  19
BRANCH   2  21
ATOM     21  S   UNL d   1     -48.664  14.717  22.978  0.00  0.00    -0.062 SA
BRANCH  21  22
ATOM     22  C   UNL d   1     -49.468  14.765  23.105  0.00  0.00     0.105 C 
BRANCH  22  23
ATOM     23  C   UNL d   1     -49.879  15.457  22.898  0.00  0.00     0.303 C 
ATOM     24  O   UNL d   1     -49.951  15.688  22.108  0.00  0.00    -0.259 OA
BRANCH  23  25
ATOM     25  O   UNL d   1     -50.217  15.916  23.485  0.00  0.00    -0.295 OA
ATOM     26  C   UNL d   1     -51.012  15.793  23.696  0.00  0.00     0.185 C 
ENDBRANCH  23  25
ENDBRANCH  22  23
ENDBRANCH  21  22
ENDBRANCH   2  21
TORSDOF 6
ENDMDL
MODEL 4
REMARK VINA RESULT:      -5.5      8.864     10.513
REMARK  6 active torsions:
REMARK  status: ('A' for Active; 'I' for Inactive)
REMARK    1  A    between atoms: C_7  and  C_1 
REMARK    2  A    between atoms: S_9  and  C_2 
REMARK    3  A    between atoms: C_11  and  C_4 
REMARK    4  A    between atoms: C_15  and  S_9 
REMARK    5  A    between atoms: C_12  and  C_15 
REMARK    6  A    between atoms: O_21  and  C_12 
ROOT
ATOM      1  C   UNL d   1     -38.765  14.377  19.042  0.00  0.00     0.045 A 
ATOM      2  C   UNL d   1     -39.068  14.561  19.780  0.00  0.00     0.112 A 
ATOM      3  C   UNL d   1     -39.863  15.064  18.420  0.00  0.00     0.057 A 
ATOM      4  C   UNL d   1     -39.155  14.624  18.359  0.00  0.00     0.008 A 
ATOM      5  C   UNL d   1     -40.167  15.247  19.158  0.00  0.00     0.085 A 
ATOM      6  N   UNL d   1     -39.769  14.996  19.852  0.00  0.00    -0.239 NA
ATOM      7  C   UNL d   1     -40.245  15.305  17.741  0.00  0.00     0.197 A 
ATOM      8  O   UNL d   1     -39.937  15.119  16.992  0.00  0.00    -0.286 OA
ATOM      9  C   UNL d   1     -40.859  15.677  19.235  0.00  0.00     0.019 A 
ATOM     10  C   UNL d   1     -40.943  15.738  17.808  0.00  0.00     0.042 A 
ATOM     11  C   UNL d   1     -41.247  15.922  18.546  0.00  0.00     0.005 A 
ENDROOT
BRANCH   4  12
ATOM     12  C   UNL d   1     -38.853  14.442  17.626  0.00  0.00     0.000 A 
ATOM     13  C   UNL d   1     -38.340  14.964  17.252  0.00  0.00     0.000 A 
ATOM     14  C   UNL d   1     -38.037  14.780  16.514  0.00  0.00     0.000 A 
ATOM     15  C   UNL d   1     -38.246  14.074  16.149  0.00  0.00     0.000 A 
ATOM     16  C   UNL d   1     -38.765  13.541  16.523  0.00  0.00     0.000 A 
ATOM     17  C   UNL d   1     -37.940  13.889  15.404  0.00  0.00     0.000 C 
ATOM     18  C   UNL d   1     -39.069  13.725  17.261  0.00  0.00     0.000 A 
ENDBRANCH   4  12
BRANCH   1  19
ATOM     19  C   UNL d   1     -38.052  13.935  18.984  0.00  0.00     0.124 C 
ATOM     20  N   UNL d   1     -38.002  13.193  19.354  0.00  0.00    -0.146 N 
ENDBRANCH   1  19
BRANCH   2  21
ATOM     21  S   UNL d   1     -38.675  14.312  20.499  0.00  0.00    -0.062 SA
BRANCH  21  22
ATOM     22  C   UNL d   1     -38.900  14.637  21.212  0.00  0.00     0.105 C 
BRANCH  22  23
ATOM     23  C   UNL d   1     -38.511  14.412  21.911  0.00  0.00     0.303 C 
ATOM     24  O   UNL d   1     -38.616  13.658  22.232  0.00  0.00    -0.259 OA
BRANCH  23  25
ATOM     25  O   UNL d   1     -38.016  14.944  22.287  0.00  0.00    -0.295 OA
ATOM     26  C   UNL d   1     -38.169  15.160  23.075  0.00  0.00     0.185 C 
ENDBRANCH  23  25
ENDBRANCH  22  23
ENDBRANCH  21  22
ENDBRANCH   2  21
TORSDOF 6
ENDMDL
MODEL 5
REMARK VINA RESULT:      -4.8      8.138      9.992
REMARK  6 active torsions:
REMARK  status: ('A' for Active; 'I' for Inactive)
REMARK    1  A    between atoms: C_7  and  C_1 
REMARK    2  A    between atoms: S_9  and  C_2 
REMARK    3  A    between atoms: C_11  and  C_4 
REMARK    4  A    between atoms: C_15  and  S_9 
REMARK    5  A    between atoms: C_12  and  C_15 
REMARK    6  A    between atoms: O_21  and  C_12 
ROOT
ATOM      1  C   UNL d   1     -38.935  14.574  19.598  0.00  0.00     0.045 A 
ATOM      2  C   UNL d   1     -39.277  14.841  18.903  0.00  0.00     0.112 A 
ATOM      3  C   UNL d   1     -40.034  15.119  20.347  0.00  0.00     0.057 A 
ATOM      4  C   UNL d   1     -39.307  14.709  20.322  0.00  0.00     0.008 A 
ATOM      5  C   UNL d   1     -40.375  15.386  19.651  0.00  0.00     0.085 A 
ATOM      6  N   UNL d   1     -39.997  15.248  18.916  0.00  0.00    -0.239 NA
ATOM      7  C   UNL d   1     -40.397  15.250  21.065  0.00  0.00     0.197 A 
ATOM      8  O   UNL d   1     -40.051  14.980  21.770  0.00  0.00    -0.286 OA
ATOM      9  C   UNL d   1     -41.087  15.789  19.658  0.00  0.00     0.019 A 
ATOM     10  C   UNL d   1     -41.115  15.656  21.082  0.00  0.00     0.042 A 
ATOM     11  C   UNL d   1     -41.456  15.922  20.387  0.00  0.00     0.005 A 
ENDROOT
BRANCH   4  12
ATOM     12  C   UNL d   1     -38.968  14.444  21.012  0.00  0.00     0.000 A 
ATOM     13  C   UNL d   1     -39.180  13.712  21.319  0.00  0.00     0.000 A 
ATOM     14  C   UNL d   1     -38.839  13.446  22.014  0.00  0.00     0.000 A 
ATOM     15  C   UNL d   1     -38.285  13.911  22.403  0.00  0.00     0.000 A 
ATOM     16  C   UNL d   1     -38.066  14.654  22.098  0.00  0.00     0.000 A 
ATOM     17  C   UNL d   1     -37.941  13.642  23.105  0.00  0.00     0.000 C 
ATOM     18  C   UNL d   1     -38.407  14.921  21.403  0.00  0.00     0.000 A 
ENDBRANCH   4  12
BRANCH   1  19
ATOM     19  C   UNL d   1     -38.203  14.161  19.571  0.00  0.00     0.124 C 
ATOM     20  N   UNL d   1     -38.149  13.457  19.133  0.00  0.00    -0.146 N 
ENDBRANCH   1  19
BRANCH   2  21
ATOM     21  S   UNL d   1     -38.903  14.708  18.144  0.00  0.00    -0.062 SA
BRANCH  21  22
ATOM     22  C   UNL d   1     -39.105  15.182  17.511  0.00  0.00     0.105 C 
BRANCH  22  23
ATOM     23  C   UNL d   1     -38.736  15.068  16.775  0.00  0.00     0.303 C 
ATOM     24  O   UNL d   1     -38.924  14.418  16.301  0.00  0.00    -0.259 OA
BRANCH  23  25
ATOM     25  O   UNL d   1     -38.178  15.607  16.515  0.00  0.00    -0.295 OA
ATOM     26  C   UNL d   1     -38.142  15.804  15.709  0.00  0.00     0.185 C 
ENDBRANCH  23  25
ENDBRANCH  22  23
ENDBRANCH  21  22
ENDBRANCH   2  21
TORSDOF 6
ENDMDL
