MODEL 1
REMARK VINA RESULT:      21.8      0.000      0.000
REMARK  5 active torsions:
REMARK  status: ('A' for Active; 'I' for Inactive)
REMARK    1  A    between atoms: N_12  and  C_5 
REMARK    2  A    between atoms: C_21  and  N_9 
REMARK    3  A    between atoms: C_10  and  S_20 
REMARK    4  A    between atoms: S_20  and  C_26 
REMARK    5  A    between atoms: C_26  and  C_21 
ROOT
ATOM      1  C   UNL d   1     -41.482-121.352 -50.257  0.00  0.00     0.191 A 
ATOM      2  C   UNL d   1     -41.411-121.798 -50.942  0.00  0.00     0.173 A 
ATOM      3  N   UNL d   1     -41.446-120.555 -50.465  0.00  0.00    -0.042 NA
ATOM      4  N   UNL d   1     -41.569-121.726 -49.531  0.00  0.00    -0.240 N 
ATOM      5  C   UNL d   1     -41.353-120.514 -51.281  0.00  0.00     0.722 A 
ATOM      6  N   UNL d   1     -41.517-122.997 -50.171  0.00  0.00    -0.223 N 
ATOM      7  C   UNL d   1     -41.587-122.551 -49.487  0.00  0.00     0.343 A 
ATOM      8  C   UNL d   1     -41.428-122.620 -50.904  0.00  0.00     0.288 A 
ATOM      9  N   UNL d   1     -41.331-121.283 -51.582  0.00  0.00    -0.132 N 
ATOM     10  O   UNL d   1     -41.677-122.925 -48.747  0.00  0.00    -0.245 OA
ATOM     11  O   UNL d   1     -41.357-123.071 -51.596  0.00  0.00    -0.265 OA
ATOM     12  C   UNL d   1     -41.640-121.280 -48.847  0.00  0.00     0.105 C 
ATOM     13  C   UNL d   1     -41.534-123.817 -50.130  0.00  0.00     0.107 C 
ENDROOT
BRANCH   9  14
ATOM     14  C   UNL d   1     -41.245-121.493 -52.374  0.00  0.00     0.105 C 
BRANCH  14  15
ATOM     15  C   UNL d   1     -41.896-121.772 -52.806  0.00  0.00     0.057 C 
BRANCH  15  16
ATOM     16  S   UNL d   1     -41.790-122.388 -53.357  0.00  0.00    -0.059 SA
BRANCH  16  17
ATOM     17  C   UNL d   1     -41.942-122.246 -54.165  0.00  0.00     0.141 A 
ATOM     18  N   UNL d   1     -42.601-122.574 -54.519  0.00  0.00    -0.232 NA
ATOM     19  C   UNL d   1     -42.611-122.347 -55.301  0.00  0.00     0.088 A 
ATOM     20  C   UNL d   1     -43.145-122.515 -55.912  0.00  0.00     0.020 A 
ATOM     21  C   UNL d   1     -41.964-121.878 -55.443  0.00  0.00     0.049 A 
ATOM     22  C   UNL d   1     -43.016-122.204 -56.670  0.00  0.00     0.002 A 
ATOM     23  C   UNL d   1     -42.368-121.736 -56.808  0.00  0.00     0.001 A 
ATOM     24  C   UNL d   1     -41.835-121.570 -56.192  0.00  0.00     0.008 A 
ATOM     25  S   UNL d   1     -41.536-121.813 -54.723  0.00  0.00    -0.060 SA
ENDBRANCH  16  17
ENDBRANCH  15  16
ENDBRANCH  14  15
ENDBRANCH   9  14
BRANCH   5  26
ATOM     26  N   UNL d   1     -41.297-119.802 -51.685  0.00  0.00    -0.139 N 
ATOM     27  C   UNL d   1     -41.339-119.782 -52.501  0.00  0.00     0.098 A 
ATOM     28  C   UNL d   1     -41.281-119.059 -52.912  0.00  0.00     0.020 A 
ATOM     29  C   UNL d   1     -41.180-118.355 -52.480  0.00  0.00     0.003 A 
ATOM     30  C   UNL d   1     -41.138-118.379 -51.662  0.00  0.00     0.020 A 
ATOM     31  C   UNL d   1     -41.123-117.639 -52.886  0.00  0.00     0.000 C 
ATOM     32  C   UNL d   1     -41.196-119.101 -51.266  0.00  0.00     0.098 A 
ENDBRANCH   5  26
TORSDOF 5
ENDMDL
