MODEL 1
REMARK VINA RESULT:      -1.3      0.000      0.000
REMARK  3 active torsions:
REMARK  status: ('A' for Active; 'I' for Inactive)
REMARK    1  A    between atoms: C_17  and  N_4 
REMARK    2  A    between atoms: C_11  and  C_5 
REMARK       I    between atoms: N_13  and  C_11 
REMARK    3  A    between atoms: C_21  and  N_13 
ROOT
ATOM      1  C   UNL d   1      32.941  21.641 -21.634  0.00  0.00     0.155 A 
ATOM      2  C   UNL d   1      33.035  20.891 -21.307  0.00  0.00     0.091 A 
ATOM      3  N   UNL d   1      32.946  22.302 -21.136  0.00  0.00    -0.210 NA
ATOM      4  N   UNL d   1      32.844  21.724 -22.432  0.00  0.00    -0.275 N 
ATOM      5  C   UNL d   1      32.933  20.322 -22.603  0.00  0.00     0.094 A 
ATOM      6  C   UNL d   1      32.839  21.067 -22.928  0.00  0.00     0.175 A 
ATOM      7  N   UNL d   1      33.139  21.464 -19.995  0.00  0.00    -0.258 N 
ATOM      8  C   UNL d   1      33.044  22.223 -20.326  0.00  0.00     0.152 A 
ATOM      9  C   UNL d   1      33.136  20.797 -20.481  0.00  0.00     0.269 A 
ATOM     10  C   UNL d   1      33.031  20.226 -21.794  0.00  0.00     0.016 A 
ATOM     11  C   UNL d   1      33.048  22.878 -19.843  0.00  0.00     0.035 A 
ATOM     12  N   UNL d   1      32.740  21.154 -23.742  0.00  0.00    -0.128 N 
ATOM     13  C   UNL d   1      33.237  21.373 -19.188  0.00  0.00     0.084 A 
ATOM     14  O   UNL d   1      33.229  20.048 -20.166  0.00  0.00    -0.266 OA
ATOM     15  C   UNL d   1      33.241  22.040 -18.702  0.00  0.00     0.019 A 
ATOM     16  C   UNL d   1      33.145  22.800 -19.033  0.00  0.00     0.005 A 
ATOM     17  C   UNL d   1      32.953  23.629 -20.171  0.00  0.00     0.003 C 
ENDROOT
BRANCH   5  18
ATOM     18  C   UNL d   1      32.929  19.660 -23.091  0.00  0.00     0.282 C 
ATOM     19  N   UNL d   1      32.618  18.940 -22.822  0.00  0.00    -0.208 NA
ATOM     20  O   UNL d   1      33.239  19.711 -23.866  0.00  0.00    -0.265 OA
BRANCH  19  21
ATOM     21  C   UNL d   1      32.619  18.281 -23.319  0.00  0.00     0.085 A 
ATOM     22  C   UNL d   1      32.022  18.086 -23.846  0.00  0.00     0.019 A 
ATOM     23  C   UNL d   1      32.255  17.386 -24.227  0.00  0.00     0.002 A 
ATOM     24  C   UNL d   1      32.991  17.161 -23.927  0.00  0.00     0.002 A 
ATOM     25  C   UNL d   1      33.215  17.710 -23.370  0.00  0.00     0.019 A 
ENDBRANCH  19  21
ENDBRANCH   5  18
BRANCH   4  26
ATOM     26  C   UNL d   1      32.750  22.476 -22.759  0.00  0.00     0.067 A 
ATOM     27  C   UNL d   1      32.143  23.005 -22.576  0.00  0.00     0.018 A 
ATOM     28  C   UNL d   1      32.262  23.680 -23.026  0.00  0.00     0.002 A 
ATOM     29  C   UNL d   1      32.944  23.579 -23.495  0.00  0.00     0.002 A 
ATOM     30  C   UNL d   1      33.240  22.830 -23.323  0.00  0.00     0.018 A 
ENDBRANCH   4  26
TORSDOF 3
ENDMDL
MODEL 2
REMARK VINA RESULT:       0.7      2.079      6.006
REMARK  3 active torsions:
REMARK  status: ('A' for Active; 'I' for Inactive)
REMARK    1  A    between atoms: C_17  and  N_4 
REMARK    2  A    between atoms: C_11  and  C_5 
REMARK       I    between atoms: N_13  and  C_11 
REMARK    3  A    between atoms: C_21  and  N_13 
ROOT
ATOM      1  C   UNL d   1      31.225  17.383 -24.093  0.00  0.00     0.155 A 
ATOM      2  C   UNL d   1      30.806  18.061 -23.891  0.00  0.00     0.091 A 
ATOM      3  N   UNL d   1      30.821  16.742 -24.425  0.00  0.00    -0.210 NA
ATOM      4  N   UNL d   1      32.023  17.348 -23.967  0.00  0.00    -0.275 N 
ATOM      5  C   UNL d   1      32.010  18.660 -23.436  0.00  0.00     0.094 A 
ATOM      6  C   UNL d   1      32.426  17.985 -23.637  0.00  0.00     0.175 A 
ATOM      7  N   UNL d   1      29.587  17.459 -24.350  0.00  0.00    -0.258 N 
ATOM      8  C   UNL d   1      30.012  16.771 -24.555  0.00  0.00     0.152 A 
ATOM      9  C   UNL d   1      29.979  18.104 -24.019  0.00  0.00     0.269 A 
ATOM     10  C   UNL d   1      31.200  18.706 -23.560  0.00  0.00     0.016 A 
ATOM     11  C   UNL d   1      29.621  16.137 -24.882  0.00  0.00     0.035 A 
ATOM     12  N   UNL d   1      33.241  17.948 -23.509  0.00  0.00    -0.128 N 
ATOM     13  C   UNL d   1      28.780  17.500 -24.476  0.00  0.00     0.084 A 
ATOM     14  O   UNL d   1      29.572  18.784 -23.815  0.00  0.00    -0.266 OA
ATOM     15  C   UNL d   1      28.387  16.854 -24.808  0.00  0.00     0.019 A 
ATOM     16  C   UNL d   1      28.812  16.166 -25.012  0.00  0.00     0.005 A 
ATOM     17  C   UNL d   1      30.041  15.456 -25.084  0.00  0.00     0.003 C 
ENDROOT
BRANCH   5  18
ATOM     18  C   UNL d   1      32.405  19.301 -23.106  0.00  0.00     0.282 C 
ATOM     19  N   UNL d   1      32.187  19.593 -22.362  0.00  0.00    -0.208 NA
ATOM     20  O   UNL d   1      33.033  19.664 -23.523  0.00  0.00    -0.265 OA
BRANCH  19  21
ATOM     21  C   UNL d   1      32.589  20.237 -22.039  0.00  0.00     0.085 A 
ATOM     22  C   UNL d   1      32.806  20.314 -21.252  0.00  0.00     0.019 A 
ATOM     23  C   UNL d   1      33.196  21.043 -21.179  0.00  0.00     0.002 A 
ATOM     24  C   UNL d   1      33.214  21.404 -21.921  0.00  0.00     0.002 A 
ATOM     25  C   UNL d   1      32.842  20.910 -22.450  0.00  0.00     0.019 A 
ENDBRANCH  19  21
ENDBRANCH   5  18
BRANCH   4  26
ATOM     26  C   UNL d   1      32.443  16.667 -24.169  0.00  0.00     0.067 A 
ATOM     27  C   UNL d   1      32.823  16.536 -24.891  0.00  0.00     0.018 A 
ATOM     28  C   UNL d   1      33.169  15.793 -24.854  0.00  0.00     0.002 A 
ATOM     29  C   UNL d   1      33.008  15.453 -24.110  0.00  0.00     0.002 A 
ATOM     30  C   UNL d   1      32.558  16.002 -23.692  0.00  0.00     0.018 A 
ENDBRANCH   4  26
TORSDOF 3
ENDMDL
