MODEL 1
REMARK VINA RESULT:      75.0      0.000      0.000
REMARK  5 active torsions:
REMARK  status: ('A' for Active; 'I' for Inactive)
REMARK    1  A    between atoms: O_8  and  C_2 
REMARK    2  A    between atoms: C_10  and  C_3 
REMARK    3  A    between atoms: C_14  and  O_8 
REMARK    4  A    between atoms: N_9  and  C_10 
REMARK    5  A    between atoms: O_23  and  C_17 
ROOT
ATOM      1  C   UNL d   1     -54.746-100.932 -41.887  0.00  0.00     0.108 A 
ATOM      2  C   UNL d   1     -54.761-102.209 -40.819  0.00  0.00     0.164 A 
ATOM      3  C   UNL d   1     -54.738-100.292 -42.409  0.00  0.00     0.079 A 
ATOM      4  C   UNL d   1     -54.737-100.793 -41.061  0.00  0.00     0.064 A 
ATOM      5  C   UNL d   1     -54.745-101.424 -40.532  0.00  0.00     0.222 A 
ATOM      6  O   UNL d   1     -54.762-101.705 -42.175  0.00  0.00    -0.303 OA
ATOM      7  C   UNL d   1     -54.770-102.348 -41.640  0.00  0.00     0.150 A 
ATOM      8  C   UNL d   1     -54.721-100.008 -40.779  0.00  0.00     0.009 A 
ATOM      9  C   UNL d   1     -54.722 -99.520 -42.132  0.00  0.00     0.199 A 
ATOM     10  O   UNL d   1     -54.737-101.292 -39.718  0.00  0.00    -0.284 OA
ATOM     11  C   UNL d   1     -54.714 -99.377 -41.308  0.00  0.00     0.042 A 
ATOM     12  O   UNL d   1     -54.715 -98.887 -42.648  0.00  0.00    -0.286 OA
ENDROOT
BRANCH   2  13
ATOM     13  O   UNL d   1     -54.769-102.841 -40.291  0.00  0.00    -0.300 OA
BRANCH  13  14
ATOM     14  C   UNL d   1     -55.155-102.765 -39.575  0.00  0.00     0.122 A 
ATOM     15  C   UNL d   1     -55.971-102.752 -39.549  0.00  0.00     0.117 A 
ATOM     16  C   UNL d   1     -56.360-102.676 -38.830  0.00  0.00     0.026 A 
ATOM     17  C   UNL d   1     -55.919-102.612 -38.134  0.00  0.00     0.002 A 
ATOM     18  C   UNL d   1     -55.102-102.625 -38.159  0.00  0.00     0.002 A 
ATOM     19  C   UNL d   1     -54.713-102.702 -38.882  0.00  0.00     0.027 A 
BRANCH  15  20
ATOM     20  O   UNL d   1     -56.400-102.816 -40.249  0.00  0.00    -0.326 OA
ATOM     21  C   UNL d   1     -57.222-102.879 -40.227  0.00  0.00     0.181 C 
ENDBRANCH  15  20
ENDBRANCH  13  14
ENDBRANCH   2  13
BRANCH   3  22
ATOM     22  C   UNL d   1     -54.747-100.432 -43.217  0.00  0.00     0.086 C 
BRANCH  22  23
ATOM     23  N   UNL d   1     -55.270-100.014 -43.703  0.00  0.00    -0.300 N 
ATOM     24  C   UNL d   1     -55.021 -99.316 -44.065  0.00  0.00     0.100 A 
ATOM     25  C   UNL d   1     -55.540 -98.899 -44.549  0.00  0.00     0.100 A 
ATOM     26  N   UNL d   1     -56.308 -99.181 -44.672  0.00  0.00    -0.299 N 
ATOM     27  C   UNL d   1     -56.553 -99.880 -44.309  0.00  0.00     0.100 A 
ATOM     28  C   UNL d   1     -56.828 -98.764 -45.156  0.00  0.00     0.100 C 
ATOM     29  C   UNL d   1     -56.032-100.304 -43.819  0.00  0.00     0.100 A 
ENDBRANCH  22  23
ENDBRANCH   3  22
TORSDOF 5
ENDMDL
