MODEL 1
REMARK VINA RESULT:      -8.2      0.000      0.000
REMARK  5 active torsions:
REMARK  status: ('A' for Active; 'I' for Inactive)
REMARK    1  A    between atoms: C_8  and  S_1 
REMARK    2  A    between atoms: N_10  and  S_1 
REMARK    3  A    between atoms: C_6  and  C_17 
REMARK    4  A    between atoms: C_18  and  N_10 
REMARK    5  A    between atoms: O_24  and  C_19 
ROOT
ATOM      1  C   UNL d   1     -49.095  12.936  22.765  0.00  0.00     0.021 A 
ATOM      2  C   UNL d   1     -47.861  12.433  23.300  0.00  0.00     0.094 A 
ATOM      3  C   UNL d   1     -48.376  13.062  23.163  0.00  0.00     0.021 A 
ATOM      4  C   UNL d   1     -49.288  12.179  22.509  0.00  0.00     0.002 A 
ATOM      5  C   UNL d   1     -48.783  11.549  22.640  0.00  0.00     0.002 A 
ATOM      6  C   UNL d   1     -48.064  11.675  23.038  0.00  0.00     0.020 A 
ENDROOT
BRANCH   2   7
ATOM      7  N   UNL d   1     -47.152  12.557  23.692  0.00  0.00    -0.158 NA
BRANCH   7   8
ATOM      8  S   UNL d   1     -46.446  12.545  23.273  0.00  0.00     0.285 S 
ATOM      9  O   UNL d   1     -46.360  11.745  23.472  0.00  0.00    -0.198 OA
ATOM     10  O   UNL d   1     -46.526  13.345  23.070  0.00  0.00    -0.198 OA
BRANCH   8  11
ATOM     11  C   UNL d   1     -45.727  12.522  22.850  0.00  0.00     0.108 A 
ATOM     12  C   UNL d   1     -45.194  11.929  22.996  0.00  0.00     0.045 A 
ATOM     13  C   UNL d   1     -44.481  11.892  22.588  0.00  0.00     0.163 A 
ATOM     14  F   UNL d   1     -43.945  11.295  22.735  0.00  0.00    -0.202 F 
ATOM     15  C   UNL d   1     -44.314  12.475  22.020  0.00  0.00     0.121 A 
ATOM     16  C   UNL d   1     -44.856  13.078  21.872  0.00  0.00     0.027 A 
ATOM     17  C   UNL d   1     -45.578  13.112  22.287  0.00  0.00     0.015 A 
BRANCH  15  18
ATOM     18  O   UNL d   1     -43.618  12.451  21.611  0.00  0.00    -0.326 OA
ATOM     19  C   UNL d   1     -43.365  13.097  21.190  0.00  0.00     0.181 C 
ENDBRANCH  15  18
ENDBRANCH   8  11
ENDBRANCH   7   8
ENDBRANCH   2   7
BRANCH   1  20
ATOM     20  C   UNL d   1     -49.602  13.573  22.635  0.00  0.00     0.102 A 
ATOM     21  N   UNL d   1     -49.721  14.119  23.252  0.00  0.00    -0.162 NA
ATOM     22  N   UNL d   1     -50.232  14.767  23.128  0.00  0.00    -0.189 N 
ATOM     23  C   UNL d   1     -50.454  15.380  23.617  0.00  0.00     0.224 A 
ATOM     24  C   UNL d   1     -50.617  14.865  22.397  0.00  0.00     0.187 A 
ATOM     25  N   UNL d   1     -50.968  15.858  23.208  0.00  0.00    -0.124 NA
ATOM     26  N   UNL d   1     -51.063  15.534  22.459  0.00  0.00    -0.127 NA
ATOM     27  C   UNL d   1     -50.483  14.305  21.791  0.00  0.00     0.042 A 
ATOM     28  C   UNL d   1     -49.975  13.662  21.916  0.00  0.00     0.024 A 
ENDBRANCH   1  20
TORSDOF 5
ENDMDL
MODEL 2
REMARK VINA RESULT:      -7.1      2.514      5.531
REMARK  5 active torsions:
REMARK  status: ('A' for Active; 'I' for Inactive)
REMARK    1  A    between atoms: C_8  and  S_1 
REMARK    2  A    between atoms: N_10  and  S_1 
REMARK    3  A    between atoms: C_6  and  C_17 
REMARK    4  A    between atoms: C_18  and  N_10 
REMARK    5  A    between atoms: O_24  and  C_19 
ROOT
ATOM      1  C   UNL d   1     -45.658  12.631  22.799  0.00  0.00     0.021 A 
ATOM      2  C   UNL d   1     -46.567  13.730  22.964  0.00  0.00     0.094 A 
ATOM      3  C   UNL d   1     -46.301  12.983  23.190  0.00  0.00     0.021 A 
ATOM      4  C   UNL d   1     -45.289  13.033  22.184  0.00  0.00     0.002 A 
ATOM      5  C   UNL d   1     -45.545  13.775  21.953  0.00  0.00     0.002 A 
ATOM      6  C   UNL d   1     -46.188  14.127  22.344  0.00  0.00     0.020 A 
ENDROOT
BRANCH   2   7
ATOM      7  N   UNL d   1     -47.201  14.078  23.350  0.00  0.00    -0.158 NA
BRANCH   7   8
ATOM      8  S   UNL d   1     -47.938  14.094  22.990  0.00  0.00     0.285 S 
ATOM      9  O   UNL d   1     -48.161  13.444  23.452  0.00  0.00    -0.198 OA
ATOM     10  O   UNL d   1     -47.722  14.746  22.524  0.00  0.00    -0.198 OA
BRANCH   8  11
ATOM     11  C   UNL d   1     -48.691  14.103  22.629  0.00  0.00     0.108 A 
ATOM     12  C   UNL d   1     -49.247  14.640  22.874  0.00  0.00     0.045 A 
ATOM     13  C   UNL d   1     -49.994  14.662  22.530  0.00  0.00     0.163 A 
ATOM     14  F   UNL d   1     -50.552  15.202  22.776  0.00  0.00    -0.202 F 
ATOM     15  C   UNL d   1     -50.171  14.123  21.924  0.00  0.00     0.121 A 
ATOM     16  C   UNL d   1     -49.606  13.576  21.675  0.00  0.00     0.027 A 
ATOM     17  C   UNL d   1     -48.850  13.557  22.027  0.00  0.00     0.015 A 
BRANCH  15  18
ATOM     18  O   UNL d   1     -50.900  14.132  21.576  0.00  0.00    -0.326 OA
ATOM     19  C   UNL d   1     -51.064  13.643  20.950  0.00  0.00     0.181 C 
ENDBRANCH  15  18
ENDBRANCH   8  11
ENDBRANCH   7   8
ENDBRANCH   2   7
BRANCH   1  20
ATOM     20  C   UNL d   1     -45.402  11.883  23.035  0.00  0.00     0.102 A 
ATOM     21  N   UNL d   1     -44.585  11.724  23.032  0.00  0.00    -0.162 NA
ATOM     22  N   UNL d   1     -44.319  10.969  23.270  0.00  0.00    -0.189 N 
ATOM     23  C   UNL d   1     -43.568  10.655  23.324  0.00  0.00     0.224 A 
ATOM     24  C   UNL d   1     -44.863  10.385  23.506  0.00  0.00     0.187 A 
ATOM     25  N   UNL d   1     -43.632   9.889  23.588  0.00  0.00    -0.124 NA
ATOM     26  N   UNL d   1     -44.431   9.731  23.697  0.00  0.00    -0.127 NA
ATOM     27  C   UNL d   1     -45.678  10.567  23.500  0.00  0.00     0.042 A 
ATOM     28  C   UNL d   1     -45.942  11.317  23.264  0.00  0.00     0.024 A 
ENDBRANCH   1  20
TORSDOF 5
ENDMDL
MODEL 3
REMARK VINA RESULT:      -6.3      8.872     10.249
REMARK  5 active torsions:
REMARK  status: ('A' for Active; 'I' for Inactive)
REMARK    1  A    between atoms: C_8  and  S_1 
REMARK    2  A    between atoms: N_10  and  S_1 
REMARK    3  A    between atoms: C_6  and  C_17 
REMARK    4  A    between atoms: C_18  and  N_10 
REMARK    5  A    between atoms: O_24  and  C_19 
ROOT
ATOM      1  C   UNL d   1     -39.603  14.734  18.033  0.00  0.00     0.021 A 
ATOM      2  C   UNL d   1     -39.594  15.529  19.229  0.00  0.00     0.094 A 
ATOM      3  C   UNL d   1     -39.187  15.131  18.632  0.00  0.00     0.021 A 
ATOM      4  C   UNL d   1     -40.425  14.741  18.040  0.00  0.00     0.002 A 
ATOM      5  C   UNL d   1     -40.838  15.133  18.627  0.00  0.00     0.002 A 
ATOM      6  C   UNL d   1     -40.421  15.530  19.227  0.00  0.00     0.020 A 
ENDROOT
BRANCH   2   7
ATOM      7  N   UNL d   1     -39.183  15.921  19.820  0.00  0.00    -0.158 NA
BRANCH   7   8
ATOM      8  S   UNL d   1     -39.083  15.565  20.553  0.00  0.00     0.285 S 
ATOM      9  O   UNL d   1     -39.891  15.674  20.699  0.00  0.00    -0.198 OA
ATOM     10  O   UNL d   1     -38.273  15.452  20.412  0.00  0.00    -0.198 OA
BRANCH   8  11
ATOM     11  C   UNL d   1     -38.991  15.204  21.299  0.00  0.00     0.108 A 
ATOM     12  C   UNL d   1     -39.109  15.639  21.973  0.00  0.00     0.045 A 
ATOM     13  C   UNL d   1     -39.023  15.299  22.717  0.00  0.00     0.163 A 
ATOM     14  F   UNL d   1     -39.141  15.737  23.394  0.00  0.00    -0.202 F 
ATOM     15  C   UNL d   1     -38.811  14.498  22.768  0.00  0.00     0.121 A 
ATOM     16  C   UNL d   1     -38.691  14.054  22.084  0.00  0.00     0.027 A 
ATOM     17  C   UNL d   1     -38.780  14.403  21.331  0.00  0.00     0.015 A 
BRANCH  15  18
ATOM     18  O   UNL d   1     -38.723  14.150  23.492  0.00  0.00    -0.326 OA
ATOM     19  C   UNL d   1     -38.319  13.450  23.566  0.00  0.00     0.181 C 
ENDBRANCH  15  18
ENDBRANCH   8  11
ENDBRANCH   7   8
ENDBRANCH   2   7
BRANCH   1  20
ATOM     20  C   UNL d   1     -39.184  14.340  17.442  0.00  0.00     0.102 A 
ATOM     21  N   UNL d   1     -39.006  14.750  16.741  0.00  0.00    -0.162 NA
ATOM     22  N   UNL d   1     -38.582  14.358  16.138  0.00  0.00    -0.189 N 
ATOM     23  C   UNL d   1     -38.331  14.610  15.404  0.00  0.00     0.224 A 
ATOM     24  C   UNL d   1     -38.340  13.568  16.238  0.00  0.00     0.187 A 
ATOM     25  N   UNL d   1     -37.940  13.995  15.045  0.00  0.00    -0.124 NA
ATOM     26  N   UNL d   1     -37.950  13.359  15.565  0.00  0.00    -0.127 NA
ATOM     27  C   UNL d   1     -38.530  13.176  16.952  0.00  0.00     0.042 A 
ATOM     28  C   UNL d   1     -38.952  13.566  17.550  0.00  0.00     0.024 A 
ENDBRANCH   1  20
TORSDOF 5
ENDMDL
MODEL 4
REMARK VINA RESULT:      -5.6      8.615     10.081
REMARK  5 active torsions:
REMARK  status: ('A' for Active; 'I' for Inactive)
REMARK    1  A    between atoms: C_8  and  S_1 
REMARK    2  A    between atoms: N_10  and  S_1 
REMARK    3  A    between atoms: C_6  and  C_17 
REMARK    4  A    between atoms: C_18  and  N_10 
REMARK    5  A    between atoms: O_24  and  C_19 
ROOT
ATOM      1  C   UNL d   1     -40.023  14.795  20.070  0.00  0.00     0.021 A 
ATOM      2  C   UNL d   1     -40.131  15.373  18.760  0.00  0.00     0.094 A 
ATOM      3  C   UNL d   1     -39.727  15.293  19.474  0.00  0.00     0.021 A 
ATOM      4  C   UNL d   1     -40.723  14.383  19.941  0.00  0.00     0.002 A 
ATOM      5  C   UNL d   1     -41.131  14.456  19.236  0.00  0.00     0.002 A 
ATOM      6  C   UNL d   1     -40.834  14.954  18.640  0.00  0.00     0.020 A 
ENDROOT
BRANCH   2   7
ATOM      7  N   UNL d   1     -39.839  15.865  18.173  0.00  0.00    -0.158 NA
BRANCH   7   8
ATOM      8  S   UNL d   1     -39.452  15.541  17.525  0.00  0.00     0.285 S 
ATOM      9  O   UNL d   1     -40.189  15.406  17.172  0.00  0.00    -0.198 OA
ATOM     10  O   UNL d   1     -38.711  15.673  17.873  0.00  0.00    -0.198 OA
BRANCH   8  11
ATOM     11  C   UNL d   1     -39.068  15.210  16.862  0.00  0.00     0.108 A 
ATOM     12  C   UNL d   1     -38.733  15.698  16.307  0.00  0.00     0.045 A 
ATOM     13  C   UNL d   1     -38.351  15.389  15.648  0.00  0.00     0.163 A 
ATOM     14  F   UNL d   1     -38.014  15.880  15.091  0.00  0.00    -0.202 F 
ATOM     15  C   UNL d   1     -38.312  14.564  15.558  0.00  0.00     0.121 A 
ATOM     16  C   UNL d   1     -38.652  14.068  16.122  0.00  0.00     0.027 A 
ATOM     17  C   UNL d   1     -39.039  14.385  16.789  0.00  0.00     0.015 A 
BRANCH  15  18
ATOM     18  O   UNL d   1     -37.940  14.246  14.916  0.00  0.00    -0.326 OA
ATOM     19  C   UNL d   1     -38.256  13.604  14.533  0.00  0.00     0.181 C 
ENDBRANCH  15  18
ENDBRANCH   8  11
ENDBRANCH   7   8
ENDBRANCH   2   7
BRANCH   1  20
ATOM     20  C   UNL d   1     -39.609  14.723  20.780  0.00  0.00     0.102 A 
ATOM     21  N   UNL d   1     -39.598  15.372  21.300  0.00  0.00    -0.162 NA
ATOM     22  N   UNL d   1     -39.181  15.307  22.021  0.00  0.00    -0.189 N 
ATOM     23  C   UNL d   1     -39.073  15.838  22.630  0.00  0.00     0.224 A 
ATOM     24  C   UNL d   1     -38.783  14.603  22.215  0.00  0.00     0.187 A 
ATOM     25  N   UNL d   1     -38.616  15.480  23.199  0.00  0.00    -0.124 NA
ATOM     26  N   UNL d   1     -38.442  14.722  22.936  0.00  0.00    -0.127 NA
ATOM     27  C   UNL d   1     -38.807  13.964  21.677  0.00  0.00     0.042 A 
ATOM     28  C   UNL d   1     -39.222  14.029  20.961  0.00  0.00     0.024 A 
ENDBRANCH   1  20
TORSDOF 5
ENDMDL
MODEL 5
REMARK VINA RESULT:      -5.5      1.644      2.380
REMARK  5 active torsions:
REMARK  status: ('A' for Active; 'I' for Inactive)
REMARK    1  A    between atoms: C_8  and  S_1 
REMARK    2  A    between atoms: N_10  and  S_1 
REMARK    3  A    between atoms: C_6  and  C_17 
REMARK    4  A    between atoms: C_18  and  N_10 
REMARK    5  A    between atoms: O_24  and  C_19 
ROOT
ATOM      1  C   UNL d   1     -49.014  13.995  22.551  0.00  0.00     0.021 A 
ATOM      2  C   UNL d   1     -47.715  14.604  22.623  0.00  0.00     0.094 A 
ATOM      3  C   UNL d   1     -48.263  14.054  22.902  0.00  0.00     0.021 A 
ATOM      4  C   UNL d   1     -49.206  14.488  21.923  0.00  0.00     0.002 A 
ATOM      5  C   UNL d   1     -48.670  15.037  21.639  0.00  0.00     0.002 A 
ATOM      6  C   UNL d   1     -47.919  15.096  21.990  0.00  0.00     0.020 A 
ENDROOT
BRANCH   2   7
ATOM      7  N   UNL d   1     -46.974  14.663  22.969  0.00  0.00    -0.158 NA
BRANCH   7   8
ATOM      8  S   UNL d   1     -46.434  14.051  22.883  0.00  0.00     0.285 S 
ATOM      9  O   UNL d   1     -46.248  14.124  23.687  0.00  0.00    -0.198 OA
ATOM     10  O   UNL d   1     -46.616  13.973  22.078  0.00  0.00    -0.198 OA
BRANCH   8  11
ATOM     11  C   UNL d   1     -45.882  13.430  22.806  0.00  0.00     0.108 A 
ATOM     12  C   UNL d   1     -45.338  13.449  22.204  0.00  0.00     0.045 A 
ATOM     13  C   UNL d   1     -44.788  12.845  22.113  0.00  0.00     0.163 A 
ATOM     14  F   UNL d   1     -44.242  12.864  21.509  0.00  0.00    -0.202 F 
ATOM     15  C   UNL d   1     -44.796  12.212  22.651  0.00  0.00     0.121 A 
ATOM     16  C   UNL d   1     -45.349  12.192  23.262  0.00  0.00     0.027 A 
ATOM     17  C   UNL d   1     -45.906  12.806  23.351  0.00  0.00     0.015 A 
BRANCH  15  18
ATOM     18  O   UNL d   1     -44.261  11.611  22.574  0.00  0.00    -0.326 OA
ATOM     19  C   UNL d   1     -44.118  11.106  23.192  0.00  0.00     0.181 C 
ENDBRANCH  15  18
ENDBRANCH   8  11
ENDBRANCH   7   8
ENDBRANCH   2   7
BRANCH   1  20
ATOM     20  C   UNL d   1     -49.552  13.441  22.841  0.00  0.00     0.102 A 
ATOM     21  N   UNL d   1     -49.291  12.660  22.963  0.00  0.00    -0.162 NA
ATOM     22  N   UNL d   1     -49.831  12.094  23.255  0.00  0.00    -0.189 N 
ATOM     23  C   UNL d   1     -49.739  11.302  23.428  0.00  0.00     0.224 A 
ATOM     24  C   UNL d   1     -50.617  12.307  23.422  0.00  0.00     0.187 A 
ATOM     25  N   UNL d   1     -50.451  11.018  23.698  0.00  0.00    -0.124 NA
ATOM     26  N   UNL d   1     -50.985  11.642  23.691  0.00  0.00    -0.127 NA
ATOM     27  C   UNL d   1     -50.857  13.098  23.292  0.00  0.00     0.042 A 
ATOM     28  C   UNL d   1     -50.320  13.659  23.001  0.00  0.00     0.024 A 
ENDBRANCH   1  20
TORSDOF 5
ENDMDL
