MODEL 1
REMARK VINA RESULT:      15.5      0.000      0.000
REMARK  3 active torsions:
REMARK  status: ('A' for Active; 'I' for Inactive)
REMARK    1  A    between atoms: N_6  and  C_1 
REMARK    2  A    between atoms: C_7  and  N_2 
REMARK    3  A    between atoms: C_8  and  N_6 
ROOT
ATOM      1  C   UNL d   1      46.313 -18.223  43.780  0.00  0.00     0.735 A 
ATOM      2  N   UNL d   1      46.265 -19.042  43.672  0.00  0.00    -0.139 N 
ATOM      3  N   UNL d   1      46.459 -17.868  43.046  0.00  0.00    -0.059 NA
ATOM      4  C   UNL d   1      46.382 -19.198  42.870  0.00  0.00     0.100 A 
ATOM      5  C   UNL d   1      46.501 -18.468  42.486  0.00  0.00     0.116 A 
ATOM      6  C   UNL d   1      46.396 -19.899  42.437  0.00  0.00     0.020 A 
ATOM      7  C   UNL d   1      46.633 -18.458  41.670  0.00  0.00     0.021 A 
ATOM      8  C   UNL d   1      46.527 -19.881  41.627  0.00  0.00     0.002 A 
ATOM      9  C   UNL d   1      46.647 -19.158  41.237  0.00  0.00     0.002 A 
ENDROOT
BRANCH   1  10
ATOM     10  N   UNL d   1      46.230 -17.823  44.496  0.00  0.00    -0.061 NA
BRANCH  10  11
ATOM     11  C   UNL d   1      45.944 -17.054  44.513  0.00  0.00     0.100 A 
ATOM     12  C   UNL d   1      45.256 -16.891  44.930  0.00  0.00     0.020 A 
ATOM     13  C   UNL d   1      44.959 -16.122  44.953  0.00  0.00     0.002 A 
ATOM     14  C   UNL d   1      45.358 -15.510  44.553  0.00  0.00     0.000 A 
ATOM     15  C   UNL d   1      46.050 -15.682  44.135  0.00  0.00     0.002 A 
ATOM     16  C   UNL d   1      46.339 -16.448  44.116  0.00  0.00     0.020 A 
ENDBRANCH  10  11
ENDBRANCH   1  10
BRANCH   2  17
ATOM     17  C   UNL d   1      46.127 -19.601  44.260  0.00  0.00     0.082 C 
ATOM     18  C   UNL d   1      46.644 -19.659  44.904  0.00  0.00     0.020 C 
ATOM     19  C   UNL d   1      45.477 -20.104  44.215  0.00  0.00     0.020 C 
ENDBRANCH   2  17
TORSDOF 3
ENDMDL
MODEL 2
REMARK VINA RESULT:      17.0      0.798      2.009
REMARK  3 active torsions:
REMARK  status: ('A' for Active; 'I' for Inactive)
REMARK    1  A    between atoms: N_6  and  C_1 
REMARK    2  A    between atoms: C_7  and  N_2 
REMARK    3  A    between atoms: C_8  and  N_6 
ROOT
ATOM      1  C   UNL d   1      46.222 -17.651  43.599  0.00  0.00     0.735 A 
ATOM      2  N   UNL d   1      46.180 -18.319  43.112  0.00  0.00    -0.139 N 
ATOM      3  N   UNL d   1      46.392 -17.897  44.372  0.00  0.00    -0.059 NA
ATOM      4  C   UNL d   1      46.324 -18.982  43.582  0.00  0.00     0.100 A 
ATOM      5  C   UNL d   1      46.455 -18.717  44.361  0.00  0.00     0.116 A 
ATOM      6  C   UNL d   1      46.354 -19.788  43.410  0.00  0.00     0.020 A 
ATOM      7  C   UNL d   1      46.614 -19.269  44.954  0.00  0.00     0.021 A 
ATOM      8  C   UNL d   1      46.513 -20.330  44.005  0.00  0.00     0.002 A 
ATOM      9  C   UNL d   1      46.644 -20.074  44.783  0.00  0.00     0.002 A 
ENDROOT
BRANCH   1  10
ATOM     10  N   UNL d   1      46.113 -16.869  43.359  0.00  0.00    -0.061 NA
BRANCH  10  11
ATOM     11  C   UNL d   1      45.840 -16.305  43.890  0.00  0.00     0.100 A 
ATOM     12  C   UNL d   1      46.272 -15.617  44.002  0.00  0.00     0.020 A 
ATOM     13  C   UNL d   1      46.008 -15.044  44.532  0.00  0.00     0.002 A 
ATOM     14  C   UNL d   1      45.300 -15.164  44.955  0.00  0.00     0.000 A 
ATOM     15  C   UNL d   1      44.870 -15.860  44.837  0.00  0.00     0.002 A 
ATOM     16  C   UNL d   1      45.139 -16.424  44.309  0.00  0.00     0.020 A 
ENDBRANCH  10  11
ENDBRANCH   1  10
BRANCH   2  17
ATOM     17  C   UNL d   1      46.022 -18.320  42.305  0.00  0.00     0.082 C 
ATOM     18  C   UNL d   1      46.631 -18.167  41.765  0.00  0.00     0.020 C 
ATOM     19  C   UNL d   1      45.263 -18.473  42.027  0.00  0.00     0.020 C 
ENDBRANCH   2  17
TORSDOF 3
ENDMDL
