MODEL 1
REMARK VINA RESULT:      -2.1      0.000      0.000
REMARK  4 active torsions:
REMARK  status: ('A' for Active; 'I' for Inactive)
REMARK    1  A    between atoms: C_6  and  C_1 
REMARK    2  A    between atoms: C_8  and  N_3 
REMARK    3  A    between atoms: C_9  and  C_6 
REMARK    4  A    between atoms: N_7  and  C_9 
ROOT
ATOM      1  C   UNL d   1      56.965  -0.131  32.219  0.00  0.00     0.058 A 
ATOM      2  C   UNL d   1      57.099  -0.708  31.669  0.00  0.00     0.067 A 
ATOM      3  N   UNL d   1      57.688  -0.479  31.165  0.00  0.00    -0.306 N 
ATOM      4  C   UNL d   1      57.905   0.243  31.423  0.00  0.00     0.064 A 
ATOM      5  C   UNL d   1      57.431   0.450  32.098  0.00  0.00     0.022 A 
ATOM      6  C   UNL d   1      56.685  -1.421  31.638  0.00  0.00     0.019 C 
ATOM      7  C   UNL d   1      58.471   0.681  31.091  0.00  0.00     0.019 C 
ENDROOT
BRANCH   1   8
ATOM      8  C   UNL d   1      56.393  -0.143  32.853  0.00  0.00     0.214 C 
ATOM      9  O   UNL d   1      56.358  -0.762  33.361  0.00  0.00    -0.285 OA
BRANCH   8  10
ATOM     10  C   UNL d   1      55.826   0.502  32.984  0.00  0.00     0.123 C 
BRANCH  10  11
ATOM     11  N   UNL d   1      55.329   0.542  33.643  0.00  0.00    -0.300 N 
ATOM     12  C   UNL d   1      55.606   0.521  34.410  0.00  0.00     0.080 A 
ATOM     13  C   UNL d   1      55.077   0.564  35.104  0.00  0.00     0.019 A 
ATOM     14  C   UNL d   1      54.328   0.624  34.978  0.00  0.00     0.003 A 
ATOM     15  C   UNL d   1      54.027   0.648  34.193  0.00  0.00     0.019 A 
ATOM     16  C   UNL d   1      53.824   0.666  35.661  0.00  0.00     0.000 C 
ATOM     17  C   UNL d   1      54.521   0.607  33.529  0.00  0.00     0.080 A 
ENDBRANCH  10  11
ENDBRANCH   8  10
ENDBRANCH   1   8
BRANCH   3  18
ATOM     18  C   UNL d   1      58.061  -0.828  30.505  0.00  0.00     0.064 A 
ATOM     19  C   UNL d   1      58.139  -1.601  30.409  0.00  0.00     0.020 A 
ATOM     20  C   UNL d   1      58.530  -1.964  29.718  0.00  0.00     0.031 A 
ATOM     21  C   UNL d   1      58.819  -1.502  29.161  0.00  0.00     0.140 A 
ATOM     22  C   UNL d   1      58.756  -0.698  29.227  0.00  0.00     0.031 A 
ATOM     23  F   UNL d   1      59.210  -1.859  28.468  0.00  0.00    -0.204 F 
ATOM     24  C   UNL d   1      58.375  -0.384  29.905  0.00  0.00     0.020 A 
ENDBRANCH   3  18
TORSDOF 4
ENDMDL
MODEL 2
REMARK VINA RESULT:      -1.4      2.065      5.436
REMARK  4 active torsions:
REMARK  status: ('A' for Active; 'I' for Inactive)
REMARK    1  A    between atoms: C_6  and  C_1 
REMARK    2  A    between atoms: C_8  and  N_3 
REMARK    3  A    between atoms: C_9  and  C_6 
REMARK    4  A    between atoms: N_7  and  C_9 
ROOT
ATOM      1  C   UNL d   1      57.352  -0.568  31.375  0.00  0.00     0.058 A 
ATOM      2  C   UNL d   1      57.186  -0.054  31.976  0.00  0.00     0.067 A 
ATOM      3  N   UNL d   1      56.623  -0.370  32.463  0.00  0.00    -0.306 N 
ATOM      4  C   UNL d   1      56.456  -1.081  32.142  0.00  0.00     0.064 A 
ATOM      5  C   UNL d   1      56.932  -1.190  31.446  0.00  0.00     0.022 A 
ATOM      6  C   UNL d   1      57.547   0.682  32.068  0.00  0.00     0.019 C 
ATOM      7  C   UNL d   1      55.929  -1.587  32.438  0.00  0.00     0.019 C 
ENDROOT
BRANCH   1   8
ATOM      8  C   UNL d   1      57.911  -0.456  30.738  0.00  0.00     0.214 C 
ATOM      9  O   UNL d   1      58.512   0.071  30.808  0.00  0.00    -0.285 OA
BRANCH   8  10
ATOM     10  C   UNL d   1      57.865  -0.898  29.992  0.00  0.00     0.123 C 
BRANCH  10  11
ATOM     11  N   UNL d   1      58.524  -1.227  29.617  0.00  0.00    -0.300 N 
ATOM     12  C   UNL d   1      59.180  -0.790  29.408  0.00  0.00     0.080 A 
ATOM     13  C   UNL d   1      59.875  -1.143  29.012  0.00  0.00     0.019 A 
ATOM     14  C   UNL d   1      59.858  -1.889  28.860  0.00  0.00     0.003 A 
ATOM     15  C   UNL d   1      59.189  -2.353  29.070  0.00  0.00     0.019 A 
ATOM     16  C   UNL d   1      60.539  -2.220  28.475  0.00  0.00     0.000 C 
ATOM     17  C   UNL d   1      58.525  -2.027  29.446  0.00  0.00     0.080 A 
ENDBRANCH  10  11
ENDBRANCH   8  10
ENDBRANCH   1   8
BRANCH   3  18
ATOM     18  C   UNL d   1      56.237  -0.111  33.156  0.00  0.00     0.064 A 
ATOM     19  C   UNL d   1      55.465   0.009  33.203  0.00  0.00     0.020 A 
ATOM     20  C   UNL d   1      55.062   0.280  33.928  0.00  0.00     0.031 A 
ATOM     21  C   UNL d   1      55.486   0.411  34.569  0.00  0.00     0.140 A 
ATOM     22  C   UNL d   1      56.286   0.297  34.557  0.00  0.00     0.031 A 
ATOM     23  F   UNL d   1      55.089   0.681  35.297  0.00  0.00    -0.204 F 
ATOM     24  C   UNL d   1      56.640   0.036  33.842  0.00  0.00     0.020 A 
ENDBRANCH   3  18
TORSDOF 4
ENDMDL
MODEL 3
REMARK VINA RESULT:       0.4      2.192      3.957
REMARK  4 active torsions:
REMARK  status: ('A' for Active; 'I' for Inactive)
REMARK    1  A    between atoms: C_6  and  C_1 
REMARK    2  A    between atoms: C_8  and  N_3 
REMARK    3  A    between atoms: C_9  and  C_6 
REMARK    4  A    between atoms: N_7  and  C_9 
ROOT
ATOM      1  C   UNL d   1      58.685  -1.608  29.362  0.00  0.00     0.058 A 
ATOM      2  C   UNL d   1      59.367  -2.040  29.367  0.00  0.00     0.067 A 
ATOM      3  N   UNL d   1      59.236  -2.769  29.042  0.00  0.00    -0.306 N 
ATOM      4  C   UNL d   1      58.463  -2.764  28.843  0.00  0.00     0.064 A 
ATOM      5  C   UNL d   1      58.127  -2.013  29.055  0.00  0.00     0.022 A 
ATOM      6  C   UNL d   1      60.086  -1.766  29.663  0.00  0.00     0.019 C 
ATOM      7  C   UNL d   1      58.089  -3.370  28.504  0.00  0.00     0.019 C 
ENDROOT
BRANCH   1   8
ATOM      8  C   UNL d   1      58.575  -0.811  29.651  0.00  0.00     0.214 C 
ATOM      9  O   UNL d   1      59.203  -0.325  29.760  0.00  0.00    -0.285 OA
BRANCH   8  10
ATOM     10  C   UNL d   1      57.792  -0.486  29.840  0.00  0.00     0.123 C 
BRANCH  10  11
ATOM     11  N   UNL d   1      57.554  -0.294  30.608  0.00  0.00    -0.300 N 
ATOM     12  C   UNL d   1      57.007  -0.732  31.025  0.00  0.00     0.080 A 
ATOM     13  C   UNL d   1      56.758  -0.525  31.837  0.00  0.00     0.019 A 
ATOM     14  C   UNL d   1      57.069   0.090  32.160  0.00  0.00     0.003 A 
ATOM     15  C   UNL d   1      57.635   0.553  31.742  0.00  0.00     0.019 A 
ATOM     16  C   UNL d   1      56.820   0.281  32.949  0.00  0.00     0.000 C 
ATOM     17  C   UNL d   1      57.877   0.364  30.971  0.00  0.00     0.080 A 
ENDBRANCH  10  11
ENDBRANCH   8  10
ENDBRANCH   1   8
BRANCH   3  18
ATOM     18  C   UNL d   1      59.710  -3.440  28.898  0.00  0.00     0.064 A 
ATOM     19  C   UNL d   1      60.493  -3.417  28.859  0.00  0.00     0.020 A 
ATOM     20  C   UNL d   1      60.988  -4.120  28.708  0.00  0.00     0.031 A 
ATOM     21  C   UNL d   1      60.643  -4.811  28.606  0.00  0.00     0.140 A 
ATOM     22  C   UNL d   1      59.837  -4.872  28.640  0.00  0.00     0.031 A 
ATOM     23  F   UNL d   1      61.133  -5.516  28.455  0.00  0.00    -0.204 F 
ATOM     24  C   UNL d   1      59.392  -4.175  28.786  0.00  0.00     0.020 A 
ENDBRANCH   3  18
TORSDOF 4
ENDMDL
