MODEL 1
REMARK VINA RESULT:      19.0      0.000      0.000
REMARK  4 active torsions:
REMARK  status: ('A' for Active; 'I' for Inactive)
REMARK    1  A    between atoms: N_4  and  C_1 
REMARK    2  A    between atoms: S_8  and  C_2 
REMARK    3  A    between atoms: N_6  and  C_9 
REMARK    4  A    between atoms: C_16  and  S_8 
ROOT
ATOM      1  S   UNL d   1      14.437  11.822  -1.861  0.00  0.00    -0.066 SA
ENDROOT
BRANCH   1   2
ATOM      2  C   UNL d   1      14.321  12.222  -1.147  0.00  0.00     0.136 A 
ATOM      3  C   UNL d   1      14.820  12.685  -0.681  0.00  0.00     0.232 A 
ATOM      4  N   UNL d   1      14.371  12.932  -0.026  0.00  0.00    -0.201 NA
ATOM      5  C   UNL d   1      13.607  12.619  -0.100  0.00  0.00     0.185 A 
ATOM      6  N   UNL d   1      13.601  12.191  -0.789  0.00  0.00    -0.279 N 
ATOM      7  C   UNL d   1      12.939  11.780  -1.080  0.00  0.00     0.101 C 
BRANCH   3   8
ATOM      8  N   UNL d   1      15.613  12.871  -0.829  0.00  0.00    -0.093 N 
ATOM      9  O   UNL d   1      15.873  13.655  -0.781  0.00  0.00    -0.530 OA
ATOM     10  O   UNL d   1      16.157  12.270  -1.028  0.00  0.00    -0.530 OA
ENDBRANCH   3   8
ENDBRANCH   1   2
BRANCH   1  11
ATOM     11  C   UNL d   1      14.066  12.047  -2.552  0.00  0.00     0.031 A 
ATOM     12  C   UNL d   1      14.372  11.780  -3.277  0.00  0.00     0.008 A 
ATOM     13  C   UNL d   1      14.003  12.003  -3.982  0.00  0.00     0.024 A 
ATOM     14  C   UNL d   1      13.347  12.478  -3.966  0.00  0.00     0.127 A 
ATOM     15  C   UNL d   1      13.044  12.742  -3.238  0.00  0.00     0.024 A 
ATOM     16  C   UNL d   1      13.405  12.525  -2.555  0.00  0.00     0.008 A 
BRANCH  14  17
ATOM     17  N   UNL d   1      12.980  12.699  -4.669  0.00  0.00    -0.114 N 
ATOM     18  O   UNL d   1      12.823  12.126  -5.242  0.00  0.00    -0.532 OA
ATOM     19  O   UNL d   1      12.772  13.483  -4.800  0.00  0.00    -0.532 OA
ENDBRANCH  14  17
ENDBRANCH   1  11
TORSDOF 4
ENDMDL
