MODEL 1
REMARK VINA RESULT:      -2.5      0.000      0.000
REMARK  6 active torsions:
REMARK  status: ('A' for Active; 'I' for Inactive)
REMARK    1  A    between atoms: C_21  and  C_3 
REMARK    2  A    between atoms: S_17  and  C_5 
REMARK    3  A    between atoms: C_11  and  C_16 
REMARK       I    between atoms: N_14  and  C_11 
REMARK    4  A    between atoms: C_19  and  N_14 
REMARK    5  A    between atoms: C_16  and  C_20 
REMARK    6  A    between atoms: C_20  and  S_17 
ROOT
ATOM      1  C   UNL d   1      57.366   0.676  33.372  0.00  0.00     0.092 A 
ATOM      2  C   UNL d   1      56.197   0.675  34.196  0.00  0.00     0.057 A 
ATOM      3  C   UNL d   1      57.016   0.677  34.123  0.00  0.00     0.016 A 
ATOM      4  N   UNL d   1      56.068   0.669  32.777  0.00  0.00    -0.239 NA
ATOM      5  C   UNL d   1      56.892   0.672  32.699  0.00  0.00     0.120 A 
ATOM      6  C   UNL d   1      55.723   0.670  33.523  0.00  0.00     0.081 A 
ATOM      7  C   UNL d   1      55.854   0.676  34.942  0.00  0.00     0.193 A 
ATOM      8  C   UNL d   1      58.195   0.679  33.307  0.00  0.00     0.103 C 
ATOM      9  N   UNL d   1      59.025   0.682  33.235  0.00  0.00    -0.191 NA
ATOM     10  C   UNL d   1      54.558   0.669  34.344  0.00  0.00     0.042 A 
ATOM     11  C   UNL d   1      55.032   0.673  35.017  0.00  0.00     0.019 A 
ATOM     12  C   UNL d   1      54.905   0.668  33.597  0.00  0.00    -0.003 A 
ATOM     13  O   UNL d   1      56.328   0.680  35.615  0.00  0.00    -0.287 OA
ATOM     14  C   UNL d   1      53.882   0.665  33.875  0.00  0.00     0.009 C 
ATOM     15  C   UNL d   1      54.207   0.670  35.095  0.00  0.00     0.009 C 
ENDROOT
BRANCH   3  16
ATOM     16  C   UNL d   1      57.490   0.682  34.795  0.00  0.00     0.001 C 
ATOM     17  C   UNL d   1      57.865  -0.008  35.040  0.00  0.00     0.000 C 
ENDBRANCH   3  16
BRANCH   5  18
ATOM     18  S   UNL d   1      57.240   0.671  31.951  0.00  0.00    -0.067 SA
BRANCH  18  19
ATOM     19  C   UNL d   1      57.170   0.002  31.471  0.00  0.00     0.042 C 
BRANCH  19  20
ATOM     20  C   UNL d   1      57.484   0.011  30.706  0.00  0.00     0.070 C 
BRANCH  20  21
ATOM     21  C   UNL d   1      57.854  -0.667  30.403  0.00  0.00     0.280 C 
ATOM     22  N   UNL d   1      58.298  -0.619  29.708  0.00  0.00    -0.208 NA
ATOM     23  O   UNL d   1      57.778  -1.392  30.794  0.00  0.00    -0.265 OA
BRANCH  22  24
ATOM     24  C   UNL d   1      58.668  -1.297  29.404  0.00  0.00     0.085 A 
ATOM     25  C   UNL d   1      58.220  -1.969  29.226  0.00  0.00     0.019 A 
ATOM     26  C   UNL d   1      58.591  -2.638  28.925  0.00  0.00     0.002 A 
ATOM     27  C   UNL d   1      59.409  -2.647  28.798  0.00  0.00     0.000 A 
ATOM     28  C   UNL d   1      59.854  -1.978  28.975  0.00  0.00     0.002 A 
ATOM     29  C   UNL d   1      59.783  -3.332  28.491  0.00  0.00     0.000 C 
ATOM     30  C   UNL d   1      59.485  -1.301  29.278  0.00  0.00     0.019 A 
ENDBRANCH  22  24
ENDBRANCH  20  21
ENDBRANCH  19  20
ENDBRANCH  18  19
ENDBRANCH   5  18
TORSDOF 6
ENDMDL
MODEL 2
REMARK VINA RESULT:      -0.3      1.086      2.260
REMARK  6 active torsions:
REMARK  status: ('A' for Active; 'I' for Inactive)
REMARK    1  A    between atoms: C_21  and  C_3 
REMARK    2  A    between atoms: S_17  and  C_5 
REMARK    3  A    between atoms: C_11  and  C_16 
REMARK       I    between atoms: N_14  and  C_11 
REMARK    4  A    between atoms: C_19  and  N_14 
REMARK    5  A    between atoms: C_16  and  C_20 
REMARK    6  A    between atoms: C_20  and  S_17 
ROOT
ATOM      1  C   UNL d   1      55.923   0.659  33.264  0.00  0.00     0.092 A 
ATOM      2  C   UNL d   1      56.541   0.661  34.554  0.00  0.00     0.057 A 
ATOM      3  C   UNL d   1      55.862   0.661  34.090  0.00  0.00     0.016 A 
ATOM      4  N   UNL d   1      57.347   0.658  33.379  0.00  0.00    -0.239 NA
ATOM      5  C   UNL d   1      56.666   0.657  32.908  0.00  0.00     0.120 A 
ATOM      6  C   UNL d   1      57.283   0.660  34.198  0.00  0.00     0.081 A 
ATOM      7  C   UNL d   1      56.476   0.663  35.373  0.00  0.00     0.193 A 
ATOM      8  C   UNL d   1      55.231   0.658  32.802  0.00  0.00     0.103 C 
ATOM      9  N   UNL d   1      54.543   0.657  32.335  0.00  0.00    -0.191 NA
ATOM     10  C   UNL d   1      57.899   0.663  35.484  0.00  0.00     0.042 A 
ATOM     11  C   UNL d   1      57.157   0.664  35.840  0.00  0.00     0.019 A 
ATOM     12  C   UNL d   1      57.961   0.661  34.662  0.00  0.00    -0.003 A 
ATOM     13  O   UNL d   1      55.734   0.664  35.728  0.00  0.00    -0.287 OA
ATOM     14  C   UNL d   1      58.718   0.663  35.405  0.00  0.00     0.009 C 
ATOM     15  C   UNL d   1      57.838   0.665  36.311  0.00  0.00     0.009 C 
ENDROOT
BRANCH   3  16
ATOM     16  C   UNL d   1      55.120   0.662  34.445  0.00  0.00     0.001 C 
ATOM     17  C   UNL d   1      54.511   0.208  34.130  0.00  0.00     0.000 C 
ENDBRANCH   3  16
BRANCH   5  18
ATOM     18  S   UNL d   1      56.728   0.656  32.086  0.00  0.00    -0.067 SA
BRANCH  18  19
ATOM     19  C   UNL d   1      57.404   0.343  31.730  0.00  0.00     0.042 C 
BRANCH  19  20
ATOM     20  C   UNL d   1      57.573   0.522  30.940  0.00  0.00     0.070 C 
BRANCH  20  21
ATOM     21  C   UNL d   1      58.111   0.055  30.515  0.00  0.00     0.280 C 
ATOM     22  N   UNL d   1      58.828   0.377  30.262  0.00  0.00    -0.208 NA
ATOM     23  O   UNL d   1      57.931  -0.734  30.344  0.00  0.00    -0.265 OA
BRANCH  22  24
ATOM     24  C   UNL d   1      59.366  -0.090  29.838  0.00  0.00     0.085 A 
ATOM     25  C   UNL d   1      59.164  -0.380  29.090  0.00  0.00     0.019 A 
ATOM     26  C   UNL d   1      59.701  -0.842  28.674  0.00  0.00     0.002 A 
ATOM     27  C   UNL d   1      60.443  -1.022  28.993  0.00  0.00     0.000 A 
ATOM     28  C   UNL d   1      60.644  -0.734  29.737  0.00  0.00     0.002 A 
ATOM     29  C   UNL d   1      60.987  -1.494  28.564  0.00  0.00     0.000 C 
ATOM     30  C   UNL d   1      60.106  -0.267  30.162  0.00  0.00     0.019 A 
ENDBRANCH  22  24
ENDBRANCH  20  21
ENDBRANCH  19  20
ENDBRANCH  18  19
ENDBRANCH   5  18
TORSDOF 6
ENDMDL
