MODEL 1
REMARK VINA RESULT:      -3.6      0.000      0.000
REMARK  3 active torsions:
REMARK  status: ('A' for Active; 'I' for Inactive)
REMARK    1  A    between atoms: C_2  and  C_3 
REMARK    2  A    between atoms: C_5  and  C_2 
REMARK    3  A    between atoms: C_3  and  C_6 
ROOT
ATOM      1  N   UNL d   1      32.937  19.644 -23.351  0.00  0.00    -0.246 NA
ATOM      2  C   UNL d   1      32.869  18.902 -23.703  0.00  0.00     0.081 A 
ATOM      3  C   UNL d   1      33.127  19.684 -22.534  0.00  0.00     0.081 A 
ATOM      4  C   UNL d   1      32.987  18.210 -23.251  0.00  0.00     0.018 A 
ATOM      5  C   UNL d   1      33.171  18.281 -22.461  0.00  0.00     0.003 A 
ATOM      6  C   UNL d   1      33.240  19.025 -22.105  0.00  0.00     0.019 A 
ATOM      7  C   UNL d   1      32.681  18.845 -24.508  0.00  0.00     0.019 A 
ATOM      8  C   UNL d   1      32.915  17.481 -23.618  0.00  0.00     0.002 A 
ATOM      9  C   UNL d   1      32.616  18.088 -24.845  0.00  0.00     0.002 A 
ATOM     10  C   UNL d   1      32.729  17.430 -24.415  0.00  0.00     0.000 A 
ENDROOT
BRANCH   3  11
ATOM     11  C   UNL d   1      33.204  20.420 -22.148  0.00  0.00     0.019 C 
BRANCH  11  12
ATOM     12  C   UNL d   1      32.578  20.749 -21.740  0.00  0.00     0.005 C 
BRANCH  12  13
ATOM     13  C   UNL d   1      32.623  21.532 -21.485  0.00  0.00     0.039 A 
ATOM     14  C   UNL d   1      32.098  21.811 -20.933  0.00  0.00     0.196 A 
ATOM     15  O   UNL d   1      31.492  21.317 -20.602  0.00  0.00    -0.287 OA
ATOM     16  C   UNL d   1      32.141  22.595 -20.677  0.00  0.00     0.042 A 
ATOM     17  C   UNL d   1      32.731  23.089 -20.994  0.00  0.00     0.003 A 
ATOM     18  C   UNL d   1      33.241  22.823 -21.528  0.00  0.00     0.000 A 
ATOM     19  C   UNL d   1      33.197  22.039 -21.784  0.00  0.00     0.003 A 
ENDBRANCH  12  13
ENDBRANCH  11  12
ENDBRANCH   3  11
TORSDOF 3
ENDMDL
MODEL 2
REMARK VINA RESULT:      -3.3      1.263      4.429
REMARK  3 active torsions:
REMARK  status: ('A' for Active; 'I' for Inactive)
REMARK    1  A    between atoms: C_2  and  C_3 
REMARK    2  A    between atoms: C_5  and  C_2 
REMARK    3  A    between atoms: C_3  and  C_6 
ROOT
ATOM      1  N   UNL d   1      33.068  21.467 -22.126  0.00  0.00    -0.246 NA
ATOM      2  C   UNL d   1      32.848  22.185 -21.786  0.00  0.00     0.081 A 
ATOM      3  C   UNL d   1      32.878  20.758 -21.720  0.00  0.00     0.081 A 
ATOM      4  C   UNL d   1      32.445  22.199 -21.055  0.00  0.00     0.018 A 
ATOM      5  C   UNL d   1      32.274  21.494 -20.685  0.00  0.00     0.003 A 
ATOM      6  C   UNL d   1      32.495  20.771 -21.024  0.00  0.00     0.019 A 
ATOM      7  C   UNL d   1      33.028  22.896 -22.174  0.00  0.00     0.019 A 
ATOM      8  C   UNL d   1      32.234  22.922 -20.733  0.00  0.00     0.002 A 
ATOM      9  C   UNL d   1      32.798  23.609 -21.816  0.00  0.00     0.002 A 
ATOM     10  C   UNL d   1      32.415  23.622 -21.120  0.00  0.00     0.000 A 
ENDROOT
BRANCH   3  11
ATOM     11  C   UNL d   1      33.086  20.014 -22.036  0.00  0.00     0.019 C 
BRANCH  11  12
ATOM     12  C   UNL d   1      32.957  19.840 -22.823  0.00  0.00     0.005 C 
BRANCH  12  13
ATOM     13  C   UNL d   1      33.037  19.063 -23.089  0.00  0.00     0.039 A 
ATOM     14  C   UNL d   1      33.003  18.898 -23.883  0.00  0.00     0.196 A 
ATOM     15  O   UNL d   1      32.886  19.508 -24.461  0.00  0.00    -0.287 OA
ATOM     16  C   UNL d   1      33.084  18.121 -24.149  0.00  0.00     0.042 A 
ATOM     17  C   UNL d   1      33.199  17.514 -23.592  0.00  0.00     0.003 A 
ATOM     18  C   UNL d   1      33.232  17.670 -22.823  0.00  0.00     0.000 A 
ATOM     19  C   UNL d   1      33.152  18.447 -22.556  0.00  0.00     0.003 A 
ENDBRANCH  12  13
ENDBRANCH  11  12
ENDBRANCH   3  11
TORSDOF 3
ENDMDL
MODEL 3
REMARK VINA RESULT:      -2.9      3.258      4.802
REMARK  3 active torsions:
REMARK  status: ('A' for Active; 'I' for Inactive)
REMARK    1  A    between atoms: C_2  and  C_3 
REMARK    2  A    between atoms: C_5  and  C_2 
REMARK    3  A    between atoms: C_3  and  C_6 
ROOT
ATOM      1  N   UNL d   1      29.615  17.232 -24.051  0.00  0.00    -0.246 NA
ATOM      2  C   UNL d   1      28.985  16.727 -23.884  0.00  0.00     0.081 A 
ATOM      3  C   UNL d   1      30.256  16.936 -24.504  0.00  0.00     0.081 A 
ATOM      4  C   UNL d   1      28.993  15.940 -24.162  0.00  0.00     0.018 A 
ATOM      5  C   UNL d   1      29.629  15.681 -24.599  0.00  0.00     0.003 A 
ATOM      6  C   UNL d   1      30.263  16.187 -24.768  0.00  0.00     0.019 A 
ATOM      7  C   UNL d   1      28.343  17.004 -23.438  0.00  0.00     0.019 A 
ATOM      8  C   UNL d   1      28.358  15.453 -23.986  0.00  0.00     0.002 A 
ATOM      9  C   UNL d   1      27.718  16.480 -23.281  0.00  0.00     0.002 A 
ATOM     10  C   UNL d   1      27.725  15.731 -23.545  0.00  0.00     0.000 A 
ENDROOT
BRANCH   3  11
ATOM     11  C   UNL d   1      30.909  17.421 -24.690  0.00  0.00     0.019 C 
BRANCH  11  12
ATOM     12  C   UNL d   1      31.579  17.423 -24.225  0.00  0.00     0.005 C 
BRANCH  12  13
ATOM     13  C   UNL d   1      32.139  18.022 -24.316  0.00  0.00     0.039 A 
ATOM     14  C   UNL d   1      32.672  18.177 -23.724  0.00  0.00     0.196 A 
ATOM     15  O   UNL d   1      32.673  17.736 -22.998  0.00  0.00    -0.287 OA
ATOM     16  C   UNL d   1      33.232  18.776 -23.815  0.00  0.00     0.042 A 
ATOM     17  C   UNL d   1      33.241  19.215 -24.521  0.00  0.00     0.003 A 
ATOM     18  C   UNL d   1      32.727  19.069 -25.097  0.00  0.00     0.000 A 
ATOM     19  C   UNL d   1      32.167  18.470 -25.006  0.00  0.00     0.003 A 
ENDBRANCH  12  13
ENDBRANCH  11  12
ENDBRANCH   3  11
TORSDOF 3
ENDMDL
