MODEL 1
REMARK VINA RESULT:      -5.9      0.000      0.000
REMARK  4 active torsions:
REMARK  status: ('A' for Active; 'I' for Inactive)
REMARK    1  A    between atoms: C_2  and  C_1 
REMARK    2  A    between atoms: C_15  and  C_8 
REMARK    3  A    between atoms: C_9  and  C_15 
REMARK    4  A    between atoms: C_18  and  C_10 
ROOT
ATOM      1  C   UNL d   1     -39.831  15.141  17.925  0.00  0.00     0.094 A 
ATOM      2  N   UNL d   1     -39.555  15.275  18.690  0.00  0.00    -0.238 NA
ATOM      3  C   UNL d   1     -40.143  15.678  19.106  0.00  0.00     0.113 A 
ATOM      4  S   UNL d   1     -40.781  15.794  18.604  0.00  0.00    -0.066 SA
ATOM      5  C   UNL d   1     -40.591  15.462  17.872  0.00  0.00     0.056 A 
ENDROOT
BRANCH   3   6
ATOM      6  C   UNL d   1     -40.094  15.922  19.896  0.00  0.00     0.051 C 
BRANCH   6   7
ATOM      7  C   UNL d   1     -40.126  15.358  20.499  0.00  0.00     0.113 A 
ATOM      8  N   UNL d   1     -39.486  15.059  20.923  0.00  0.00    -0.238 NA
ATOM      9  C   UNL d   1     -39.773  14.512  21.469  0.00  0.00     0.088 A 
ATOM     10  C   UNL d   1     -40.593  14.473  21.382  0.00  0.00     0.056 A 
ATOM     11  S   UNL d   1     -40.811  14.994  20.784  0.00  0.00    -0.066 SA
BRANCH   9  12
ATOM     12  C   UNL d   1     -39.316  14.081  22.007  0.00  0.00     0.018 A 
ATOM     13  C   UNL d   1     -39.440  14.161  22.809  0.00  0.00     0.002 A 
ATOM     14  C   UNL d   1     -38.982  13.730  23.343  0.00  0.00     0.007 A 
ATOM     15  C   UNL d   1     -38.398  13.217  23.064  0.00  0.00     0.035 A 
ATOM     16  C   UNL d   1     -38.274  13.136  22.263  0.00  0.00     0.007 A 
ATOM     17 BR   UNL d   1     -37.941  12.786  23.598  0.00  0.00    -0.049 Br
ATOM     18  C   UNL d   1     -38.732  13.568  21.725  0.00  0.00     0.002 A 
ENDBRANCH   9  12
ENDBRANCH   6   7
ENDBRANCH   3   6
BRANCH   1  19
ATOM     19  C   UNL d   1     -39.423  14.755  17.321  0.00  0.00     0.082 A 
ATOM     20  C   UNL d   1     -39.273  15.146  16.609  0.00  0.00     0.302 A 
ATOM     21  O   UNL d   1     -38.865  14.761  16.005  0.00  0.00    -0.273 OA
ATOM     22  O   UNL d   1     -39.533  15.921  16.502  0.00  0.00    -0.259 OA
ATOM     23  C   UNL d   1     -38.605  13.985  16.112  0.00  0.00     0.103 A 
ATOM     24  C   UNL d   1     -38.755  13.594  16.824  0.00  0.00     0.023 A 
ATOM     25  C   UNL d   1     -38.197  13.599  15.508  0.00  0.00     0.025 A 
ATOM     26  C   UNL d   1     -39.163  13.980  17.428  0.00  0.00     0.009 A 
ATOM     27  C   UNL d   1     -38.495  12.819  16.931  0.00  0.00     0.002 A 
ATOM     28  C   UNL d   1     -38.089  12.437  16.329  0.00  0.00     0.000 A 
ATOM     29  C   UNL d   1     -37.940  12.828  15.616  0.00  0.00     0.002 A 
ENDBRANCH   1  19
TORSDOF 4
ENDMDL
MODEL 2
REMARK VINA RESULT:      -5.6      7.901      9.725
REMARK  4 active torsions:
REMARK  status: ('A' for Active; 'I' for Inactive)
REMARK    1  A    between atoms: C_2  and  C_1 
REMARK    2  A    between atoms: C_15  and  C_8 
REMARK    3  A    between atoms: C_9  and  C_15 
REMARK    4  A    between atoms: C_18  and  C_10 
ROOT
ATOM      1  C   UNL d   1     -48.045  14.186  22.778  0.00  0.00     0.094 A 
ATOM      2  N   UNL d   1     -47.311  13.910  23.032  0.00  0.00    -0.238 NA
ATOM      3  C   UNL d   1     -46.731  14.419  22.738  0.00  0.00     0.113 A 
ATOM      4  S   UNL d   1     -47.101  15.008  22.303  0.00  0.00    -0.066 SA
ATOM      5  C   UNL d   1     -47.914  14.867  22.326  0.00  0.00     0.056 A 
ENDROOT
BRANCH   3   6
ATOM      6  C   UNL d   1     -45.917  14.344  22.862  0.00  0.00     0.051 C 
BRANCH   6   7
ATOM      7  C   UNL d   1     -45.531  13.651  22.631  0.00  0.00     0.113 A 
ATOM      8  N   UNL d   1     -45.381  12.994  23.106  0.00  0.00    -0.238 NA
ATOM      9  C   UNL d   1     -44.985  12.433  22.649  0.00  0.00     0.088 A 
ATOM     10  C   UNL d   1     -44.890  12.744  21.891  0.00  0.00     0.056 A 
ATOM     11  S   UNL d   1     -45.226  13.495  21.880  0.00  0.00    -0.066 SA
BRANCH   9  12
ATOM     12  C   UNL d   1     -44.729  11.691  22.911  0.00  0.00     0.018 A 
ATOM     13  C   UNL d   1     -43.966  11.444  22.766  0.00  0.00     0.002 A 
ATOM     14  C   UNL d   1     -43.714  10.704  23.027  0.00  0.00     0.007 A 
ATOM     15  C   UNL d   1     -44.236  10.212  23.436  0.00  0.00     0.035 A 
ATOM     16  C   UNL d   1     -45.000  10.458  23.581  0.00  0.00     0.007 A 
ATOM     17 BR   UNL d   1     -43.985   9.471  23.698  0.00  0.00    -0.049 Br
ATOM     18  C   UNL d   1     -45.255  11.201  23.320  0.00  0.00     0.002 A 
ENDBRANCH   9  12
ENDBRANCH   6   7
ENDBRANCH   3   6
BRANCH   1  19
ATOM     19  C   UNL d   1     -48.777  13.846  22.945  0.00  0.00     0.082 A 
ATOM     20  C   UNL d   1     -49.463  14.306  22.916  0.00  0.00     0.302 A 
ATOM     21  O   UNL d   1     -50.195  13.965  23.082  0.00  0.00    -0.273 OA
ATOM     22  O   UNL d   1     -49.415  15.105  22.721  0.00  0.00    -0.259 OA
ATOM     23  C   UNL d   1     -50.244  13.165  23.277  0.00  0.00     0.103 A 
ATOM     24  C   UNL d   1     -49.558  12.705  23.306  0.00  0.00     0.023 A 
ATOM     25  C   UNL d   1     -50.976  12.825  23.444  0.00  0.00     0.025 A 
ATOM     26  C   UNL d   1     -48.826  13.046  23.140  0.00  0.00     0.009 A 
ATOM     27  C   UNL d   1     -49.607  11.906  23.501  0.00  0.00     0.002 A 
ATOM     28  C   UNL d   1     -50.336  11.568  23.667  0.00  0.00     0.000 A 
ATOM     29  C   UNL d   1     -51.022  12.028  23.638  0.00  0.00     0.002 A 
ENDBRANCH   1  19
TORSDOF 4
ENDMDL
MODEL 3
REMARK VINA RESULT:      -5.5      1.119      1.589
REMARK  4 active torsions:
REMARK  status: ('A' for Active; 'I' for Inactive)
REMARK    1  A    between atoms: C_2  and  C_1 
REMARK    2  A    between atoms: C_15  and  C_8 
REMARK    3  A    between atoms: C_9  and  C_15 
REMARK    4  A    between atoms: C_18  and  C_10 
ROOT
ATOM      1  C   UNL d   1     -38.500  14.983  17.390  0.00  0.00     0.094 A 
ATOM      2  N   UNL d   1     -39.219  15.054  17.788  0.00  0.00    -0.238 NA
ATOM      3  C   UNL d   1     -39.103  15.549  18.438  0.00  0.00     0.113 A 
ATOM      4  S   UNL d   1     -38.318  15.785  18.446  0.00  0.00    -0.066 SA
ATOM      5  C   UNL d   1     -37.942  15.437  17.799  0.00  0.00     0.056 A 
ENDROOT
BRANCH   3   6
ATOM      6  C   UNL d   1     -39.683  15.768  18.986  0.00  0.00     0.051 C 
BRANCH   6   7
ATOM      7  C   UNL d   1     -39.809  15.299  19.655  0.00  0.00     0.113 A 
ATOM      8  N   UNL d   1     -39.245  15.085  20.216  0.00  0.00    -0.238 NA
ATOM      9  C   UNL d   1     -39.614  14.617  20.785  0.00  0.00     0.088 A 
ATOM     10  C   UNL d   1     -40.408  14.541  20.575  0.00  0.00     0.056 A 
ATOM     11  S   UNL d   1     -40.529  14.962  19.879  0.00  0.00    -0.066 SA
BRANCH   9  12
ATOM     12  C   UNL d   1     -39.247  14.283  21.448  0.00  0.00     0.018 A 
ATOM     13  C   UNL d   1     -39.375  14.597  22.189  0.00  0.00     0.002 A 
ATOM     14  C   UNL d   1     -39.008  14.263  22.848  0.00  0.00     0.007 A 
ATOM     15  C   UNL d   1     -38.512  13.610  22.756  0.00  0.00     0.035 A 
ATOM     16  C   UNL d   1     -38.384  13.296  22.015  0.00  0.00     0.007 A 
ATOM     17 BR   UNL d   1     -38.145  13.275  23.415  0.00  0.00    -0.049 Br
ATOM     18  C   UNL d   1     -38.750  13.629  21.352  0.00  0.00     0.002 A 
ENDBRANCH   9  12
ENDBRANCH   6   7
ENDBRANCH   3   6
BRANCH   1  19
ATOM     19  C   UNL d   1     -38.362  14.540  16.708  0.00  0.00     0.082 A 
ATOM     20  C   UNL d   1     -38.234  13.726  16.764  0.00  0.00     0.302 A 
ATOM     21  O   UNL d   1     -38.096  13.283  16.082  0.00  0.00    -0.273 OA
ATOM     22  O   UNL d   1     -38.243  13.357  17.501  0.00  0.00    -0.259 OA
ATOM     23  C   UNL d   1     -38.087  13.653  15.345  0.00  0.00     0.103 A 
ATOM     24  C   UNL d   1     -38.215  14.467  15.289  0.00  0.00     0.023 A 
ATOM     25  C   UNL d   1     -37.949  13.210  14.663  0.00  0.00     0.025 A 
ATOM     26  C   UNL d   1     -38.353  14.910  15.972  0.00  0.00     0.009 A 
ATOM     27  C   UNL d   1     -38.206  14.836  14.552  0.00  0.00     0.002 A 
ATOM     28  C   UNL d   1     -38.069  14.393  13.874  0.00  0.00     0.000 A 
ATOM     29  C   UNL d   1     -37.940  13.579  13.930  0.00  0.00     0.002 A 
ENDBRANCH   1  19
TORSDOF 4
ENDMDL
MODEL 4
REMARK VINA RESULT:      -4.6      4.418      6.791
REMARK  4 active torsions:
REMARK  status: ('A' for Active; 'I' for Inactive)
REMARK    1  A    between atoms: C_2  and  C_1 
REMARK    2  A    between atoms: C_15  and  C_8 
REMARK    3  A    between atoms: C_9  and  C_15 
REMARK    4  A    between atoms: C_18  and  C_10 
ROOT
ATOM      1  C   UNL d   1     -43.650  12.959  21.632  0.00  0.00     0.094 A 
ATOM      2  N   UNL d   1     -42.953  13.291  21.923  0.00  0.00    -0.238 NA
ATOM      3  C   UNL d   1     -42.390  13.273  21.319  0.00  0.00     0.113 A 
ATOM      4  S   UNL d   1     -42.733  12.933  20.657  0.00  0.00    -0.066 SA
ATOM      5  C   UNL d   1     -43.513  12.737  20.847  0.00  0.00     0.056 A 
ENDROOT
BRANCH   3   6
ATOM      6  C   UNL d   1     -41.613  13.552  21.376  0.00  0.00     0.051 C 
BRANCH   6   7
ATOM      7  C   UNL d   1     -41.335  14.098  20.822  0.00  0.00     0.113 A 
ATOM      8  N   UNL d   1     -41.015  13.925  20.083  0.00  0.00    -0.238 NA
ATOM      9  C   UNL d   1     -40.811  14.636  19.719  0.00  0.00     0.088 A 
ATOM     10  C   UNL d   1     -41.006  15.250  20.234  0.00  0.00     0.056 A 
ATOM     11  S   UNL d   1     -41.328  14.919  20.915  0.00  0.00    -0.066 SA
BRANCH   9  12
ATOM     12  C   UNL d   1     -40.472  14.715  18.968  0.00  0.00     0.018 A 
ATOM     13  C   UNL d   1     -40.797  15.225  18.422  0.00  0.00     0.002 A 
ATOM     14  C   UNL d   1     -40.457  15.301  17.674  0.00  0.00     0.007 A 
ATOM     15  C   UNL d   1     -39.786  14.860  17.479  0.00  0.00     0.035 A 
ATOM     16  C   UNL d   1     -39.461  14.350  18.025  0.00  0.00     0.007 A 
ATOM     17 BR   UNL d   1     -39.446  14.937  16.732  0.00  0.00    -0.049 Br
ATOM     18  C   UNL d   1     -39.801  14.272  18.776  0.00  0.00     0.002 A 
ENDBRANCH   9  12
ENDBRANCH   6   7
ENDBRANCH   3   6
BRANCH   1  19
ATOM     19  C   UNL d   1     -44.355  12.866  22.049  0.00  0.00     0.082 A 
ATOM     20  C   UNL d   1     -44.470  12.198  22.521  0.00  0.00     0.302 A 
ATOM     21  O   UNL d   1     -45.175  12.105  22.938  0.00  0.00    -0.273 OA
ATOM     22  O   UNL d   1     -43.880  11.625  22.576  0.00  0.00    -0.259 OA
ATOM     23  C   UNL d   1     -45.766  12.678  22.883  0.00  0.00     0.103 A 
ATOM     24  C   UNL d   1     -45.651  13.346  22.411  0.00  0.00     0.023 A 
ATOM     25  C   UNL d   1     -46.471  12.584  23.300  0.00  0.00     0.025 A 
ATOM     26  C   UNL d   1     -44.945  13.439  21.994  0.00  0.00     0.009 A 
ATOM     27  C   UNL d   1     -46.241  13.918  22.357  0.00  0.00     0.002 A 
ATOM     28  C   UNL d   1     -46.943  13.824  22.772  0.00  0.00     0.000 A 
ATOM     29  C   UNL d   1     -47.058  13.156  23.244  0.00  0.00     0.002 A 
ENDBRANCH   1  19
TORSDOF 4
ENDMDL
MODEL 5
REMARK VINA RESULT:      -3.9      5.728      7.828
REMARK  4 active torsions:
REMARK  status: ('A' for Active; 'I' for Inactive)
REMARK    1  A    between atoms: C_2  and  C_1 
REMARK    2  A    between atoms: C_15  and  C_8 
REMARK    3  A    between atoms: C_9  and  C_15 
REMARK    4  A    between atoms: C_18  and  C_10 
ROOT
ATOM      1  C   UNL d   1     -45.862  13.209  22.313  0.00  0.00     0.094 A 
ATOM      2  N   UNL d   1     -45.420  13.212  21.616  0.00  0.00    -0.238 NA
ATOM      3  C   UNL d   1     -44.770  12.715  21.724  0.00  0.00     0.113 A 
ATOM      4  S   UNL d   1     -44.806  12.404  22.482  0.00  0.00    -0.066 SA
ATOM      5  C   UNL d   1     -45.481  12.707  22.849  0.00  0.00     0.056 A 
ENDROOT
BRANCH   3   6
ATOM      6  C   UNL d   1     -44.183  12.560  21.162  0.00  0.00     0.051 C 
BRANCH   6   7
ATOM      7  C   UNL d   1     -43.414  12.834  21.288  0.00  0.00     0.113 A 
ATOM      8  N   UNL d   1     -43.068  13.497  20.942  0.00  0.00    -0.238 NA
ATOM      9  C   UNL d   1     -42.297  13.561  21.226  0.00  0.00     0.088 A 
ATOM     10  C   UNL d   1     -42.166  12.936  21.749  0.00  0.00     0.056 A 
ATOM     11  S   UNL d   1     -42.855  12.487  21.787  0.00  0.00    -0.066 SA
BRANCH   9  12
ATOM     12  C   UNL d   1     -41.753  14.150  21.020  0.00  0.00     0.018 A 
ATOM     13  C   UNL d   1     -41.023  13.948  20.719  0.00  0.00     0.002 A 
ATOM     14  C   UNL d   1     -40.484  14.538  20.514  0.00  0.00     0.007 A 
ATOM     15  C   UNL d   1     -40.684  15.333  20.615  0.00  0.00     0.035 A 
ATOM     16  C   UNL d   1     -41.414  15.534  20.917  0.00  0.00     0.007 A 
ATOM     17 BR   UNL d   1     -40.144  15.922  20.411  0.00  0.00    -0.049 Br
ATOM     18  C   UNL d   1     -41.957  14.945  21.123  0.00  0.00     0.002 A 
ENDBRANCH   9  12
ENDBRANCH   6   7
ENDBRANCH   3   6
BRANCH   1  19
ATOM     19  C   UNL d   1     -46.558  13.629  22.449  0.00  0.00     0.082 A 
ATOM     20  C   UNL d   1     -46.529  14.365  22.822  0.00  0.00     0.302 A 
ATOM     21  O   UNL d   1     -47.225  14.786  22.959  0.00  0.00    -0.273 OA
ATOM     22  O   UNL d   1     -45.805  14.680  23.057  0.00  0.00    -0.259 OA
ATOM     23  C   UNL d   1     -47.951  14.471  22.723  0.00  0.00     0.103 A 
ATOM     24  C   UNL d   1     -47.980  13.734  22.351  0.00  0.00     0.023 A 
ATOM     25  C   UNL d   1     -48.647  14.891  22.860  0.00  0.00     0.025 A 
ATOM     26  C   UNL d   1     -47.283  13.314  22.214  0.00  0.00     0.009 A 
ATOM     27  C   UNL d   1     -48.704  13.420  22.116  0.00  0.00     0.002 A 
ATOM     28  C   UNL d   1     -49.396  13.839  22.253  0.00  0.00     0.000 A 
ATOM     29  C   UNL d   1     -49.368  14.576  22.625  0.00  0.00     0.002 A 
ENDBRANCH   1  19
TORSDOF 4
ENDMDL
MODEL 6
REMARK VINA RESULT:      -3.6      1.930      2.469
REMARK  4 active torsions:
REMARK  status: ('A' for Active; 'I' for Inactive)
REMARK    1  A    between atoms: C_2  and  C_1 
REMARK    2  A    between atoms: C_15  and  C_8 
REMARK    3  A    between atoms: C_9  and  C_15 
REMARK    4  A    between atoms: C_18  and  C_10 
ROOT
ATOM      1  C   UNL d   1     -38.595  14.835  17.807  0.00  0.00     0.094 A 
ATOM      2  N   UNL d   1     -39.313  15.143  18.069  0.00  0.00    -0.238 NA
ATOM      3  C   UNL d   1     -39.180  15.524  18.789  0.00  0.00     0.113 A 
ATOM      4  S   UNL d   1     -38.384  15.453  18.975  0.00  0.00    -0.066 SA
ATOM      5  C   UNL d   1     -38.019  15.027  18.369  0.00  0.00     0.056 A 
ENDROOT
BRANCH   3   6
ATOM      6  C   UNL d   1     -39.754  15.910  19.244  0.00  0.00     0.051 C 
BRANCH   6   7
ATOM      7  C   UNL d   1     -40.092  15.521  19.889  0.00  0.00     0.113 A 
ATOM      8  N   UNL d   1     -40.739  15.011  19.868  0.00  0.00    -0.238 NA
ATOM      9  C   UNL d   1     -40.885  14.752  20.637  0.00  0.00     0.088 A 
ATOM     10  C   UNL d   1     -40.328  15.102  21.134  0.00  0.00     0.056 A 
ATOM     11  S   UNL d   1     -39.838  15.576  20.673  0.00  0.00    -0.066 SA
BRANCH   9  12
ATOM     12  C   UNL d   1     -41.488  14.231  20.865  0.00  0.00     0.018 A 
ATOM     13  C   UNL d   1     -42.234  14.514  21.031  0.00  0.00     0.002 A 
ATOM     14  C   UNL d   1     -42.832  13.993  21.257  0.00  0.00     0.007 A 
ATOM     15  C   UNL d   1     -42.674  13.185  21.317  0.00  0.00     0.035 A 
ATOM     16  C   UNL d   1     -41.928  12.902  21.151  0.00  0.00     0.007 A 
ATOM     17 BR   UNL d   1     -43.272  12.664  21.543  0.00  0.00    -0.049 Br
ATOM     18  C   UNL d   1     -41.326  13.423  20.923  0.00  0.00     0.002 A 
ENDBRANCH   9  12
ENDBRANCH   6   7
ENDBRANCH   3   6
BRANCH   1  19
ATOM     19  C   UNL d   1     -38.472  14.411  17.110  0.00  0.00     0.082 A 
ATOM     20  C   UNL d   1     -38.494  13.585  17.120  0.00  0.00     0.302 A 
ATOM     21  O   UNL d   1     -38.371  13.162  16.423  0.00  0.00    -0.273 OA
ATOM     22  O   UNL d   1     -38.638  13.185  17.826  0.00  0.00    -0.259 OA
ATOM     23  C   UNL d   1     -38.227  13.562  15.716  0.00  0.00     0.103 A 
ATOM     24  C   UNL d   1     -38.206  14.387  15.706  0.00  0.00     0.023 A 
ATOM     25  C   UNL d   1     -38.105  13.138  15.020  0.00  0.00     0.025 A 
ATOM     26  C   UNL d   1     -38.328  14.811  16.404  0.00  0.00     0.009 A 
ATOM     27  C   UNL d   1     -38.062  14.788  15.000  0.00  0.00     0.002 A 
ATOM     28  C   UNL d   1     -37.940  14.364  14.308  0.00  0.00     0.000 A 
ATOM     29  C   UNL d   1     -37.962  13.538  14.317  0.00  0.00     0.002 A 
ENDBRANCH   1  19
TORSDOF 4
ENDMDL
MODEL 7
REMARK VINA RESULT:      -3.5      6.452      7.944
REMARK  4 active torsions:
REMARK  status: ('A' for Active; 'I' for Inactive)
REMARK    1  A    between atoms: C_2  and  C_1 
REMARK    2  A    between atoms: C_15  and  C_8 
REMARK    3  A    between atoms: C_9  and  C_15 
REMARK    4  A    between atoms: C_18  and  C_10 
ROOT
ATOM      1  C   UNL d   1     -44.277  13.043  21.787  0.00  0.00     0.094 A 
ATOM      2  N   UNL d   1     -44.650  13.308  22.473  0.00  0.00    -0.238 NA
ATOM      3  C   UNL d   1     -45.439  13.065  22.445  0.00  0.00     0.113 A 
ATOM      4  S   UNL d   1     -45.556  12.652  21.746  0.00  0.00    -0.066 SA
ATOM      5  C   UNL d   1     -44.839  12.636  21.337  0.00  0.00     0.056 A 
ENDROOT
BRANCH   3   6
ATOM      6  C   UNL d   1     -46.010  13.215  23.024  0.00  0.00     0.051 C 
BRANCH   6   7
ATOM      7  C   UNL d   1     -46.654  13.701  22.845  0.00  0.00     0.113 A 
ATOM      8  N   UNL d   1     -47.415  13.452  22.649  0.00  0.00    -0.238 NA
ATOM      9  C   UNL d   1     -47.877  14.121  22.515  0.00  0.00     0.088 A 
ATOM     10  C   UNL d   1     -47.401  14.785  22.628  0.00  0.00     0.056 A 
ATOM     11  S   UNL d   1     -46.647  14.526  22.831  0.00  0.00    -0.066 SA
BRANCH   9  12
ATOM     12  C   UNL d   1     -48.678  14.121  22.304  0.00  0.00     0.018 A 
ATOM     13  C   UNL d   1     -49.221  14.531  22.753  0.00  0.00     0.002 A 
ATOM     14  C   UNL d   1     -50.018  14.529  22.541  0.00  0.00     0.007 A 
ATOM     15  C   UNL d   1     -50.265  14.112  21.873  0.00  0.00     0.035 A 
ATOM     16  C   UNL d   1     -49.722  13.703  21.423  0.00  0.00     0.007 A 
ATOM     17 BR   UNL d   1     -51.062  14.110  21.660  0.00  0.00    -0.049 Br
ATOM     18  C   UNL d   1     -48.922  13.702  21.634  0.00  0.00     0.002 A 
ENDBRANCH   9  12
ENDBRANCH   6   7
ENDBRANCH   3   6
BRANCH   1  19
ATOM     19  C   UNL d   1     -43.486  13.162  21.587  0.00  0.00     0.082 A 
ATOM     20  C   UNL d   1     -42.945  12.541  21.654  0.00  0.00     0.302 A 
ATOM     21  O   UNL d   1     -42.155  12.660  21.453  0.00  0.00    -0.273 OA
ATOM     22  O   UNL d   1     -43.196  11.803  21.921  0.00  0.00    -0.259 OA
ATOM     23  C   UNL d   1     -41.903  13.399  21.186  0.00  0.00     0.103 A 
ATOM     24  C   UNL d   1     -42.444  14.020  21.118  0.00  0.00     0.023 A 
ATOM     25  C   UNL d   1     -41.112  13.518  20.985  0.00  0.00     0.025 A 
ATOM     26  C   UNL d   1     -43.235  13.900  21.319  0.00  0.00     0.009 A 
ATOM     27  C   UNL d   1     -42.192  14.758  20.851  0.00  0.00     0.002 A 
ATOM     28  C   UNL d   1     -41.405  14.875  20.652  0.00  0.00     0.000 A 
ATOM     29  C   UNL d   1     -40.864  14.254  20.719  0.00  0.00     0.002 A 
ENDBRANCH   1  19
TORSDOF 4
ENDMDL
MODEL 8
REMARK VINA RESULT:      -3.2      3.534      4.496
REMARK  4 active torsions:
REMARK  status: ('A' for Active; 'I' for Inactive)
REMARK    1  A    between atoms: C_2  and  C_1 
REMARK    2  A    between atoms: C_15  and  C_8 
REMARK    3  A    between atoms: C_9  and  C_15 
REMARK    4  A    between atoms: C_18  and  C_10 
ROOT
ATOM      1  C   UNL d   1     -40.906  14.361  20.097  0.00  0.00     0.094 A 
ATOM      2  N   UNL d   1     -41.202  13.637  20.358  0.00  0.00    -0.238 NA
ATOM      3  C   UNL d   1     -41.589  13.763  21.076  0.00  0.00     0.113 A 
ATOM      4  S   UNL d   1     -41.534  14.560  21.262  0.00  0.00    -0.066 SA
ATOM      5  C   UNL d   1     -41.112  14.933  20.658  0.00  0.00     0.056 A 
ENDROOT
BRANCH   3   6
ATOM      6  C   UNL d   1     -41.966  13.182  21.529  0.00  0.00     0.051 C 
BRANCH   6   7
ATOM      7  C   UNL d   1     -42.780  13.065  21.446  0.00  0.00     0.113 A 
ATOM      8  N   UNL d   1     -43.351  13.174  22.029  0.00  0.00    -0.238 NA
ATOM      9  C   UNL d   1     -44.087  12.993  21.703  0.00  0.00     0.088 A 
ATOM     10  C   UNL d   1     -43.969  12.772  20.918  0.00  0.00     0.056 A 
ATOM     11  S   UNL d   1     -43.164  12.816  20.758  0.00  0.00    -0.066 SA
BRANCH   9  12
ATOM     12  C   UNL d   1     -44.813  13.029  22.100  0.00  0.00     0.018 A 
ATOM     13  C   UNL d   1     -45.280  13.694  22.041  0.00  0.00     0.002 A 
ATOM     14  C   UNL d   1     -46.003  13.727  22.438  0.00  0.00     0.007 A 
ATOM     15  C   UNL d   1     -46.253  13.085  22.894  0.00  0.00     0.035 A 
ATOM     16  C   UNL d   1     -45.785  12.420  22.952  0.00  0.00     0.007 A 
ATOM     17 BR   UNL d   1     -46.975  13.118  23.290  0.00  0.00    -0.049 Br
ATOM     18  C   UNL d   1     -45.059  12.385  22.556  0.00  0.00     0.002 A 
ENDBRANCH   9  12
ENDBRANCH   6   7
ENDBRANCH   3   6
BRANCH   1  19
ATOM     19  C   UNL d   1     -40.481  14.491  19.403  0.00  0.00     0.082 A 
ATOM     20  C   UNL d   1     -39.661  14.395  19.396  0.00  0.00     0.302 A 
ATOM     21  O   UNL d   1     -39.236  14.525  18.702  0.00  0.00    -0.273 OA
ATOM     22  O   UNL d   1     -39.267  14.168  20.084  0.00  0.00    -0.259 OA
ATOM     23  C   UNL d   1     -39.630  14.752  18.013  0.00  0.00     0.103 A 
ATOM     24  C   UNL d   1     -40.450  14.848  18.019  0.00  0.00     0.023 A 
ATOM     25  C   UNL d   1     -39.205  14.882  17.319  0.00  0.00     0.025 A 
ATOM     26  C   UNL d   1     -40.875  14.718  18.715  0.00  0.00     0.009 A 
ATOM     27  C   UNL d   1     -40.843  15.075  17.331  0.00  0.00     0.002 A 
ATOM     28  C   UNL d   1     -40.419  15.204  16.641  0.00  0.00     0.000 A 
ATOM     29  C   UNL d   1     -39.598  15.108  16.635  0.00  0.00     0.002 A 
ENDBRANCH   1  19
TORSDOF 4
ENDMDL
MODEL 9
REMARK VINA RESULT:      -3.1      6.046      7.942
REMARK  4 active torsions:
REMARK  status: ('A' for Active; 'I' for Inactive)
REMARK    1  A    between atoms: C_2  and  C_1 
REMARK    2  A    between atoms: C_15  and  C_8 
REMARK    3  A    between atoms: C_9  and  C_15 
REMARK    4  A    between atoms: C_18  and  C_10 
ROOT
ATOM      1  C   UNL d   1     -46.006  12.916  22.346  0.00  0.00     0.094 A 
ATOM      2  N   UNL d   1     -45.369  12.393  22.345  0.00  0.00    -0.238 NA
ATOM      3  C   UNL d   1     -44.680  12.830  22.215  0.00  0.00     0.113 A 
ATOM      4  S   UNL d   1     -44.887  13.620  22.136  0.00  0.00    -0.066 SA
ATOM      5  C   UNL d   1     -45.706  13.677  22.217  0.00  0.00     0.056 A 
ENDROOT
BRANCH   3   6
ATOM      6  C   UNL d   1     -43.914  12.520  22.173  0.00  0.00     0.051 C 
BRANCH   6   7
ATOM      7  C   UNL d   1     -43.368  12.855  21.651  0.00  0.00     0.113 A 
ATOM      8  N   UNL d   1     -42.706  13.302  21.856  0.00  0.00    -0.238 NA
ATOM      9  C   UNL d   1     -42.320  13.522  21.162  0.00  0.00     0.088 A 
ATOM     10  C   UNL d   1     -42.744  13.211  20.526  0.00  0.00     0.056 A 
ATOM     11  S   UNL d   1     -43.390  12.799  20.828  0.00  0.00    -0.066 SA
BRANCH   9  12
ATOM     12  C   UNL d   1     -41.629  13.975  21.116  0.00  0.00     0.018 A 
ATOM     13  C   UNL d   1     -41.669  14.767  20.927  0.00  0.00     0.002 A 
ATOM     14  C   UNL d   1     -40.979  15.217  20.882  0.00  0.00     0.007 A 
ATOM     15  C   UNL d   1     -40.247  14.864  21.029  0.00  0.00     0.035 A 
ATOM     16  C   UNL d   1     -40.207  14.072  21.219  0.00  0.00     0.007 A 
ATOM     17 BR   UNL d   1     -39.557  15.313  20.985  0.00  0.00    -0.049 Br
ATOM     18  C   UNL d   1     -40.898  13.619  21.264  0.00  0.00     0.002 A 
ENDBRANCH   9  12
ENDBRANCH   6   7
ENDBRANCH   3   6
BRANCH   1  19
ATOM     19  C   UNL d   1     -46.799  12.718  22.456  0.00  0.00     0.082 A 
ATOM     20  C   UNL d   1     -47.030  12.305  23.133  0.00  0.00     0.302 A 
ATOM     21  O   UNL d   1     -47.823  12.106  23.243  0.00  0.00    -0.273 OA
ATOM     22  O   UNL d   1     -46.469  12.091  23.698  0.00  0.00    -0.259 OA
ATOM     23  C   UNL d   1     -48.385  12.320  22.678  0.00  0.00     0.103 A 
ATOM     24  C   UNL d   1     -48.153  12.733  22.001  0.00  0.00     0.023 A 
ATOM     25  C   UNL d   1     -49.177  12.121  22.788  0.00  0.00     0.025 A 
ATOM     26  C   UNL d   1     -47.360  12.931  21.891  0.00  0.00     0.009 A 
ATOM     27  C   UNL d   1     -48.715  12.946  21.436  0.00  0.00     0.002 A 
ATOM     28  C   UNL d   1     -49.503  12.747  21.548  0.00  0.00     0.000 A 
ATOM     29  C   UNL d   1     -49.735  12.334  22.225  0.00  0.00     0.002 A 
ENDBRANCH   1  19
TORSDOF 4
ENDMDL
