MODEL 1
REMARK VINA RESULT:      -4.8      0.000      0.000
REMARK  4 active torsions:
REMARK  status: ('A' for Active; 'I' for Inactive)
REMARK    1  A    between atoms: C_8  and  C_6 
REMARK    2  A    between atoms: C_9  and  C_8 
REMARK       I    between atoms: N_11  and  C_9 
REMARK       I    between atoms: C_10  and  N_12 
REMARK    3  A    between atoms: C_17  and  N_11 
REMARK    4  A    between atoms: N_12  and  C_18 
ROOT
ATOM      1  N   UNL d   1      57.742   0.533  32.501  0.00  0.00    -0.207 NA
ATOM      2  N   UNL d   1      57.118  -0.670  31.512  0.00  0.00    -0.240 NA
ATOM      3  C   UNL d   1      57.943   0.280  31.755  0.00  0.00     0.297 A 
ATOM      4  C   UNL d   1      57.150   0.263  33.009  0.00  0.00     0.086 A 
ATOM      5  C   UNL d   1      56.619  -0.767  32.156  0.00  0.00     0.083 A 
ATOM      6  C   UNL d   1      57.730  -0.128  31.422  0.00  0.00     0.144 A 
ATOM      7  C   UNL d   1      56.603  -0.351  32.873  0.00  0.00     0.035 A 
ATOM      8  O   UNL d   1      58.570   0.680  31.403  0.00  0.00    -0.264 OA
ATOM      9  C   UNL d   1      56.050  -0.538  33.458  0.00  0.00     0.003 A 
ATOM     10  C   UNL d   1      56.077  -1.376  32.022  0.00  0.00     0.019 A 
ATOM     11  C   UNL d   1      57.136   0.679  33.723  0.00  0.00     0.019 A 
ATOM     12  C   UNL d   1      55.514  -1.570  32.611  0.00  0.00     0.002 A 
ATOM     13  C   UNL d   1      56.580   0.487  34.303  0.00  0.00     0.002 A 
ATOM     14  C   UNL d   1      56.038  -0.121  34.170  0.00  0.00     0.000 A 
ATOM     15  C   UNL d   1      55.502  -1.153  33.322  0.00  0.00     0.000 A 
ENDROOT
BRANCH   6  16
ATOM     16  C   UNL d   1      58.115  -0.189  30.696  0.00  0.00     0.086 C 
BRANCH  16  17
ATOM     17  C   UNL d   1      57.766   0.147  30.019  0.00  0.00     0.281 C 
ATOM     18  N   UNL d   1      58.050  -0.052  29.268  0.00  0.00    -0.208 NA
ATOM     19  O   UNL d   1      57.138   0.678  30.094  0.00  0.00    -0.265 OA
BRANCH  18  20
ATOM     20  C   UNL d   1      58.678  -0.583  29.187  0.00  0.00     0.085 A 
ATOM     21  C   UNL d   1      59.450  -0.307  29.235  0.00  0.00     0.021 A 
ATOM     22  C   UNL d   1      60.081  -0.830  29.156  0.00  0.00     0.021 A 
ATOM     23  C   UNL d   1      59.933  -1.638  29.028  0.00  0.00     0.085 A 
ATOM     24  C   UNL d   1      59.156  -1.911  28.981  0.00  0.00     0.021 A 
ATOM     25  C   UNL d   1      58.529  -1.384  29.061  0.00  0.00     0.021 A 
BRANCH  23  26
ATOM     26  N   UNL d   1      60.550  -2.155  28.950  0.00  0.00    -0.208 NA
ATOM     27  C   UNL d   1      60.511  -2.891  29.299  0.00  0.00     0.279 C 
ATOM     28  O   UNL d   1      59.856  -3.108  29.723  0.00  0.00    -0.265 OA
ATOM     29  C   UNL d   1      61.133  -3.414  29.221  0.00  0.00     0.068 C 
ENDBRANCH  23  26
ENDBRANCH  18  20
ENDBRANCH  16  17
ENDBRANCH   6  16
TORSDOF 4
ENDMDL
MODEL 2
REMARK VINA RESULT:      -3.5      1.326      5.083
REMARK  4 active torsions:
REMARK  status: ('A' for Active; 'I' for Inactive)
REMARK    1  A    between atoms: C_8  and  C_6 
REMARK    2  A    between atoms: C_9  and  C_8 
REMARK       I    between atoms: N_11  and  C_9 
REMARK       I    between atoms: C_10  and  N_12 
REMARK    3  A    between atoms: C_17  and  N_11 
REMARK    4  A    between atoms: N_12  and  C_18 
ROOT
ATOM      1  N   UNL d   1      58.430  -2.570  29.627  0.00  0.00    -0.207 NA
ATOM      2  N   UNL d   1      59.246  -1.105  29.574  0.00  0.00    -0.240 NA
ATOM      3  C   UNL d   1      58.229  -1.824  29.878  0.00  0.00     0.297 A 
ATOM      4  C   UNL d   1      59.119  -2.837  29.259  0.00  0.00     0.086 A 
ATOM      5  C   UNL d   1      59.813  -1.577  29.216  0.00  0.00     0.083 A 
ATOM      6  C   UNL d   1      58.507  -1.329  29.859  0.00  0.00     0.144 A 
ATOM      7  C   UNL d   1      59.792  -2.389  29.051  0.00  0.00     0.035 A 
ATOM      8  O   UNL d   1      57.487  -1.756  30.228  0.00  0.00    -0.264 OA
ATOM      9  C   UNL d   1      60.429  -2.763  28.682  0.00  0.00     0.003 A 
ATOM     10  C   UNL d   1      60.479  -1.134  29.010  0.00  0.00     0.019 A 
ATOM     11  C   UNL d   1      59.094  -3.647  29.096  0.00  0.00     0.019 A 
ATOM     12  C   UNL d   1      61.130  -1.508  28.636  0.00  0.00     0.002 A 
ATOM     13  C   UNL d   1      59.736  -4.014  28.727  0.00  0.00     0.002 A 
ATOM     14  C   UNL d   1      60.402  -3.572  28.521  0.00  0.00     0.000 A 
ATOM     15  C   UNL d   1      61.103  -2.316  28.474  0.00  0.00     0.000 A 
ENDROOT
BRANCH   6  16
ATOM     16  C   UNL d   1      58.081  -0.704  30.186  0.00  0.00     0.086 C 
BRANCH  16  17
ATOM     17  C   UNL d   1      57.986  -0.002  29.748  0.00  0.00     0.281 C 
ATOM     18  N   UNL d   1      57.707   0.682  30.121  0.00  0.00    -0.208 NA
ATOM     19  O   UNL d   1      58.169   0.015  28.943  0.00  0.00    -0.265 OA
BRANCH  18  20
ATOM     20  C   UNL d   1      57.523   0.670  30.927  0.00  0.00     0.085 A 
ATOM     21  C   UNL d   1      56.736   0.651  31.162  0.00  0.00     0.021 A 
ATOM     22  C   UNL d   1      56.545   0.639  31.963  0.00  0.00     0.021 A 
ATOM     23  C   UNL d   1      57.150   0.646  32.531  0.00  0.00     0.085 A 
ATOM     24  C   UNL d   1      57.939   0.664  32.291  0.00  0.00     0.021 A 
ATOM     25  C   UNL d   1      58.125   0.676  31.489  0.00  0.00     0.021 A 
BRANCH  23  26
ATOM     26  N   UNL d   1      56.966   0.634  33.319  0.00  0.00    -0.208 NA
ATOM     27  C   UNL d   1      56.455   0.069  33.609  0.00  0.00     0.279 C 
ATOM     28  O   UNL d   1      56.129  -0.481  33.112  0.00  0.00    -0.265 OA
ATOM     29  C   UNL d   1      56.268   0.056  34.404  0.00  0.00     0.068 C 
ENDBRANCH  23  26
ENDBRANCH  18  20
ENDBRANCH  16  17
ENDBRANCH   6  16
TORSDOF 4
ENDMDL
