MODEL 1
REMARK VINA RESULT:      -3.6      0.000      0.000
REMARK  4 active torsions:
REMARK  status: ('A' for Active; 'I' for Inactive)
REMARK    1  A    between atoms: N_7  and  S_1 
REMARK    2  A    between atoms: C_8  and  S_1 
REMARK    3  A    between atoms: C_16  and  N_7 
REMARK    4  A    between atoms: C_15  and  C_16 
ROOT
ATOM      1  C   UNL d   1      33.086  18.743 -23.146  0.00  0.00     0.112 C 
ENDROOT
BRANCH   1   2
ATOM      2  C   UNL d   1      33.089  19.511 -22.851  0.00  0.00     0.020 A 
ATOM      3  C   UNL d   1      32.942  19.651 -22.045  0.00  0.00     0.003 A 
ATOM      4  C   UNL d   1      32.946  20.425 -21.756  0.00  0.00     0.018 A 
ATOM      5  C   UNL d   1      32.821  20.731 -20.998  0.00  0.00     0.019 A 
ATOM      6  C   UNL d   1      33.095  21.061 -22.261  0.00  0.00     0.064 A 
ATOM      7  C   UNL d   1      32.893  21.548 -21.039  0.00  0.00     0.064 A 
ATOM      8  C   UNL d   1      32.810  22.071 -20.406  0.00  0.00     0.019 C 
ATOM      9  N   UNL d   1      33.062  21.751 -21.818  0.00  0.00    -0.304 N 
ATOM     10  C   UNL d   1      33.178  22.520 -22.102  0.00  0.00     0.099 C 
ATOM     11  C   UNL d   1      33.241  20.928 -23.060  0.00  0.00     0.018 A 
ATOM     12  C   UNL d   1      33.239  20.154 -23.361  0.00  0.00     0.003 A 
ENDBRANCH   1   2
BRANCH   1  13
ATOM     13  N   UNL d   1      32.445  18.468 -23.585  0.00  0.00    -0.157 NA
BRANCH  13  14
ATOM     14  S   UNL d   1      32.441  17.698 -23.877  0.00  0.00     0.285 S 
ATOM     15  O   UNL d   1      32.654  16.959 -24.184  0.00  0.00    -0.198 OA
ATOM     16  O   UNL d   1      33.241  17.927 -23.886  0.00  0.00    -0.198 OA
BRANCH  14  17
ATOM     17  C   UNL d   1      31.738  17.286 -23.950  0.00  0.00     0.105 A 
ATOM     18  C   UNL d   1      31.195  17.506 -24.531  0.00  0.00     0.013 A 
ATOM     19  C   UNL d   1      30.481  17.090 -24.607  0.00  0.00     0.001 A 
ATOM     20  C   UNL d   1      30.317  16.459 -24.101  0.00  0.00     0.000 A 
ATOM     21  C   UNL d   1      30.870  16.242 -23.517  0.00  0.00     0.001 A 
ATOM     22  C   UNL d   1      29.609  16.044 -24.173  0.00  0.00     0.000 C 
ATOM     23  C   UNL d   1      31.573  16.658 -23.448  0.00  0.00     0.013 A 
ENDBRANCH  14  17
ENDBRANCH  13  14
ENDBRANCH   1  13
TORSDOF 4
ENDMDL
MODEL 2
REMARK VINA RESULT:      -2.4      1.174      1.930
REMARK  4 active torsions:
REMARK  status: ('A' for Active; 'I' for Inactive)
REMARK    1  A    between atoms: N_7  and  S_1 
REMARK    2  A    between atoms: C_8  and  S_1 
REMARK    3  A    between atoms: C_16  and  N_7 
REMARK    4  A    between atoms: C_15  and  C_16 
ROOT
ATOM      1  C   UNL d   1      32.213  17.167 -23.538  0.00  0.00     0.112 C 
ENDROOT
BRANCH   1   2
ATOM      2  C   UNL d   1      32.426  17.953 -23.417  0.00  0.00     0.020 A 
ATOM      3  C   UNL d   1      32.507  18.250 -22.646  0.00  0.00     0.003 A 
ATOM      4  C   UNL d   1      32.721  19.040 -22.531  0.00  0.00     0.018 A 
ATOM      5  C   UNL d   1      32.842  19.485 -21.844  0.00  0.00     0.019 A 
ATOM      6  C   UNL d   1      32.855  19.537 -23.177  0.00  0.00     0.064 A 
ATOM      7  C   UNL d   1      33.048  20.248 -22.068  0.00  0.00     0.064 A 
ATOM      8  C   UNL d   1      33.218  20.871 -21.554  0.00  0.00     0.019 C 
ATOM      9  N   UNL d   1      33.056  20.279 -22.890  0.00  0.00    -0.304 N 
ATOM     10  C   UNL d   1      33.236  20.947 -23.345  0.00  0.00     0.099 C 
ATOM     11  C   UNL d   1      32.775  19.247 -23.943  0.00  0.00     0.018 A 
ATOM     12  C   UNL d   1      32.561  18.455 -24.069  0.00  0.00     0.003 A 
ENDBRANCH   1   2
BRANCH   1  13
ATOM     13  N   UNL d   1      31.465  16.979 -23.829  0.00  0.00    -0.157 NA
BRANCH  13  14
ATOM     14  S   UNL d   1      31.125  16.249 -23.660  0.00  0.00     0.285 S 
ATOM     15  O   UNL d   1      30.993  15.454 -23.469  0.00  0.00    -0.198 OA
ATOM     16  O   UNL d   1      31.945  16.121 -23.607  0.00  0.00    -0.198 OA
BRANCH  14  17
ATOM     17  C   UNL d   1      30.311  16.160 -23.659  0.00  0.00     0.105 A 
ATOM     18  C   UNL d   1      29.917  16.023 -22.947  0.00  0.00     0.013 A 
ATOM     19  C   UNL d   1      29.091  15.933 -22.944  0.00  0.00     0.001 A 
ATOM     20  C   UNL d   1      28.670  15.981 -23.652  0.00  0.00     0.000 A 
ATOM     21  C   UNL d   1      29.075  16.120 -24.367  0.00  0.00     0.001 A 
ATOM     22  C   UNL d   1      27.851  15.892 -23.653  0.00  0.00     0.000 C 
ATOM     23  C   UNL d   1      29.890  16.207 -24.362  0.00  0.00     0.013 A 
ENDBRANCH  14  17
ENDBRANCH  13  14
ENDBRANCH   1  13
TORSDOF 4
ENDMDL
MODEL 3
REMARK VINA RESULT:      -2.3      3.083      6.123
REMARK  4 active torsions:
REMARK  status: ('A' for Active; 'I' for Inactive)
REMARK    1  A    between atoms: N_7  and  S_1 
REMARK    2  A    between atoms: C_8  and  S_1 
REMARK    3  A    between atoms: C_16  and  N_7 
REMARK    4  A    between atoms: C_15  and  C_16 
ROOT
ATOM      1  C   UNL d   1      32.998  22.071 -20.878  0.00  0.00     0.112 C 
ENDROOT
BRANCH   1   2
ATOM      2  C   UNL d   1      33.046  21.321 -21.214  0.00  0.00     0.020 A 
ATOM      3  C   UNL d   1      33.044  21.231 -22.040  0.00  0.00     0.003 A 
ATOM      4  C   UNL d   1      33.092  20.475 -22.370  0.00  0.00     0.018 A 
ATOM      5  C   UNL d   1      33.103  20.216 -23.155  0.00  0.00     0.019 A 
ATOM      6  C   UNL d   1      33.142  19.808 -21.886  0.00  0.00     0.064 A 
ATOM      7  C   UNL d   1      33.158  19.396 -23.152  0.00  0.00     0.064 A 
ATOM      8  C   UNL d   1      33.185  18.913 -23.821  0.00  0.00     0.019 C 
ATOM      9  N   UNL d   1      33.183  19.146 -22.369  0.00  0.00    -0.304 N 
ATOM     10  C   UNL d   1      33.238  18.359 -22.117  0.00  0.00     0.099 C 
ATOM     11  C   UNL d   1      33.144  19.892 -21.068  0.00  0.00     0.018 A 
ATOM     12  C   UNL d   1      33.096  20.647 -20.725  0.00  0.00     0.003 A 
ENDBRANCH   1   2
BRANCH   1  13
ATOM     13  N   UNL d   1      32.942  22.158 -20.061  0.00  0.00    -0.157 NA
BRANCH  13  14
ATOM     14  S   UNL d   1      32.800  22.898 -19.730  0.00  0.00     0.285 S 
ATOM     15  O   UNL d   1      32.644  23.702 -19.609  0.00  0.00    -0.198 OA
ATOM     16  O   UNL d   1      32.771  23.021 -20.552  0.00  0.00    -0.198 OA
BRANCH  14  17
ATOM     17  C   UNL d   1      32.787  22.994 -18.917  0.00  0.00     0.105 A 
ATOM     18  C   UNL d   1      32.314  23.582 -18.584  0.00  0.00     0.013 A 
ATOM     19  C   UNL d   1      32.298  23.680 -17.760  0.00  0.00     0.001 A 
ATOM     20  C   UNL d   1      32.756  23.190 -17.278  0.00  0.00     0.000 A 
ATOM     21  C   UNL d   1      33.231  22.599 -17.622  0.00  0.00     0.001 A 
ATOM     22  C   UNL d   1      32.743  23.285 -16.460  0.00  0.00     0.000 C 
ATOM     23  C   UNL d   1      33.241  22.507 -18.437  0.00  0.00     0.013 A 
ENDBRANCH  14  17
ENDBRANCH  13  14
ENDBRANCH   1  13
TORSDOF 4
ENDMDL
MODEL 4
REMARK VINA RESULT:      -2.1      1.531      5.021
REMARK  4 active torsions:
REMARK  status: ('A' for Active; 'I' for Inactive)
REMARK    1  A    between atoms: N_7  and  S_1 
REMARK    2  A    between atoms: C_8  and  S_1 
REMARK    3  A    between atoms: C_16  and  N_7 
REMARK    4  A    between atoms: C_15  and  C_16 
ROOT
ATOM      1  C   UNL d   1      33.080  19.680 -23.478  0.00  0.00     0.112 C 
ENDROOT
BRANCH   1   2
ATOM      2  C   UNL d   1      32.840  18.892 -23.480  0.00  0.00     0.020 A 
ATOM      3  C   UNL d   1      32.247  18.637 -24.002  0.00  0.00     0.003 A 
ATOM      4  C   UNL d   1      32.010  17.845 -23.999  0.00  0.00     0.018 A 
ATOM      5  C   UNL d   1      31.446  17.436 -24.445  0.00  0.00     0.019 A 
ATOM      6  C   UNL d   1      32.359  17.305 -23.481  0.00  0.00     0.064 A 
ATOM      7  C   UNL d   1      31.450  16.652 -24.201  0.00  0.00     0.064 A 
ATOM      8  C   UNL d   1      30.970  16.052 -24.503  0.00  0.00     0.019 C 
ATOM      9  N   UNL d   1      32.013  16.572 -23.607  0.00  0.00    -0.304 N 
ATOM     10  C   UNL d   1      32.195  15.870 -23.207  0.00  0.00     0.099 C 
ATOM     11  C   UNL d   1      32.947  17.553 -22.961  0.00  0.00     0.018 A 
ATOM     12  C   UNL d   1      33.192  18.347 -22.956  0.00  0.00     0.003 A 
ENDBRANCH   1   2
BRANCH   1  13
ATOM     13  N   UNL d   1      33.237  20.064 -22.766  0.00  0.00    -0.157 NA
BRANCH  13  14
ATOM     14  S   UNL d   1      33.211  20.886 -22.724  0.00  0.00     0.285 S 
ATOM     15  O   UNL d   1      33.191  21.695 -22.900  0.00  0.00    -0.198 OA
ATOM     16  O   UNL d   1      33.241  20.714 -23.537  0.00  0.00    -0.198 OA
BRANCH  14  17
ATOM     17  C   UNL d   1      33.177  21.263 -21.998  0.00  0.00     0.105 A 
ATOM     18  C   UNL d   1      33.096  22.083 -21.968  0.00  0.00     0.013 A 
ATOM     19  C   UNL d   1      33.061  22.468 -21.232  0.00  0.00     0.001 A 
ATOM     20  C   UNL d   1      33.108  22.028 -20.536  0.00  0.00     0.000 A 
ATOM     21  C   UNL d   1      33.191  21.199 -20.574  0.00  0.00     0.001 A 
ATOM     22  C   UNL d   1      33.075  22.405 -19.805  0.00  0.00     0.000 C 
ATOM     23  C   UNL d   1      33.224  20.827 -21.304  0.00  0.00     0.013 A 
ENDBRANCH  14  17
ENDBRANCH  13  14
ENDBRANCH   1  13
TORSDOF 4
ENDMDL
