MODEL 1
REMARK VINA RESULT:      21.7      0.000      0.000
REMARK  2 active torsions:
REMARK  status: ('A' for Active; 'I' for Inactive)
REMARK    1  A    between atoms: N_2  and  C_9 
REMARK    2  A    between atoms: C_11  and  C_7 
ROOT
ATOM      1  C   UNL d   1     -51.887  24.442  33.376  0.00  0.00     0.110 A 
ATOM      2  C   UNL d   1     -53.159  24.048  33.423  0.00  0.00     0.332 A 
ATOM      3  C   UNL d   1     -51.900  23.623  33.380  0.00  0.00     0.060 A 
ATOM      4  S   UNL d   1     -52.679  23.378  33.409  0.00  0.00    -0.018 SA
ATOM      5  O   UNL d   1     -52.658  24.708  33.402  0.00  0.00    -0.268 OA
ATOM      6  C   UNL d   1     -51.170  24.845  33.349  0.00  0.00     0.027 A 
ATOM      7  C   UNL d   1     -51.176  23.198  33.356  0.00  0.00     0.051 A 
ATOM      8  C   UNL d   1     -50.457  24.433  33.325  0.00  0.00     0.044 A 
ATOM      9  O   UNL d   1     -53.985  24.060  33.452  0.00  0.00    -0.251 OA
ATOM     10  C   UNL d   1     -50.462  23.614  33.329  0.00  0.00     0.196 A 
ATOM     11  O   UNL d   1     -49.744  23.189  33.306  0.00  0.00    -0.286 OA
ENDROOT
BRANCH   6  12
ATOM     12  C   UNL d   1     -51.161  25.670  33.344  0.00  0.00     0.002 A 
ATOM     13  C   UNL d   1     -50.436  26.071  33.368  0.00  0.00     0.002 A 
ATOM     14  C   UNL d   1     -50.423  26.901  33.364  0.00  0.00     0.024 A 
ATOM     15  C   UNL d   1     -51.135  27.324  33.336  0.00  0.00     0.127 A 
ATOM     16  C   UNL d   1     -51.853  26.923  33.313  0.00  0.00     0.024 A 
ATOM     17  C   UNL d   1     -51.866  26.093  33.317  0.00  0.00     0.002 A 
BRANCH  15  18
ATOM     18  N   UNL d   1     -51.128  28.158  33.332  0.00  0.00    -0.114 N 
ATOM     19  O   UNL d   1     -50.410  28.561  33.353  0.00  0.00    -0.532 OA
ATOM     20  O   UNL d   1     -51.836  28.575  33.307  0.00  0.00    -0.532 OA
ENDBRANCH  15  18
ENDBRANCH   6  12
TORSDOF 2
ENDMDL
MODEL 2
REMARK VINA RESULT:      24.6      0.695      2.037
REMARK  2 active torsions:
REMARK  status: ('A' for Active; 'I' for Inactive)
REMARK    1  A    between atoms: N_2  and  C_9 
REMARK    2  A    between atoms: C_11  and  C_7 
ROOT
ATOM      1  C   UNL d   1     -51.184  24.501  33.307  0.00  0.00     0.110 A 
ATOM      2  C   UNL d   1     -50.162  23.644  33.307  0.00  0.00     0.332 A 
ATOM      3  C   UNL d   1     -51.489  23.741  33.306  0.00  0.00     0.060 A 
ATOM      4  S   UNL d   1     -50.865  23.213  33.307  0.00  0.00    -0.018 SA
ATOM      5  O   UNL d   1     -50.369  24.447  33.307  0.00  0.00    -0.268 OA
ATOM      6  C   UNL d   1     -51.688  25.151  33.306  0.00  0.00     0.027 A 
ATOM      7  C   UNL d   1     -52.322  23.631  33.306  0.00  0.00     0.051 A 
ATOM      8  C   UNL d   1     -52.506  25.048  33.306  0.00  0.00     0.044 A 
ATOM      9  O   UNL d   1     -49.396  23.335  33.307  0.00  0.00    -0.251 OA
ATOM     10  C   UNL d   1     -52.819  24.291  33.306  0.00  0.00     0.196 A 
ATOM     11  O   UNL d   1     -53.646  24.178  33.306  0.00  0.00    -0.286 OA
ENDROOT
BRANCH   6  12
ATOM     12  C   UNL d   1     -51.377  25.915  33.307  0.00  0.00     0.002 A 
ATOM     13  C   UNL d   1     -51.890  26.566  33.306  0.00  0.00     0.002 A 
ATOM     14  C   UNL d   1     -51.580  27.336  33.306  0.00  0.00     0.024 A 
ATOM     15  C   UNL d   1     -50.759  27.449  33.307  0.00  0.00     0.127 A 
ATOM     16  C   UNL d   1     -50.253  26.801  33.308  0.00  0.00     0.024 A 
ATOM     17  C   UNL d   1     -50.562  26.031  33.307  0.00  0.00     0.002 A 
BRANCH  15  18
ATOM     18  N   UNL d   1     -50.442  28.221  33.307  0.00  0.00    -0.114 N 
ATOM     19  O   UNL d   1     -50.948  28.871  33.308  0.00  0.00    -0.532 OA
ATOM     20  O   UNL d   1     -49.628  28.331  33.307  0.00  0.00    -0.532 OA
ENDBRANCH  15  18
ENDBRANCH   6  12
TORSDOF 2
ENDMDL
