MODEL 1
REMARK VINA RESULT:      31.3      0.000      0.000
REMARK  4 active torsions:
REMARK  status: ('A' for Active; 'I' for Inactive)
REMARK    1  A    between atoms: C_8  and  C_1 
REMARK    2  A    between atoms: C_3  and  C_2 
REMARK    3  A    between atoms: O_14  and  C_8 
REMARK    4  A    between atoms: C_16  and  O_14 
ROOT
ATOM      1  C   UNL d   1      60.075  49.397  50.688  0.00  0.00     0.091 A 
ATOM      2  C   UNL d   1      59.459  49.583  50.169  0.00  0.00     0.036 A 
ATOM      3  C   UNL d   1      60.790  49.408  50.271  0.00  0.00     0.138 A 
ATOM      4  C   UNL d   1      59.816  49.705  49.435  0.00  0.00     0.039 A 
ATOM      5  S   UNL d   1      60.610  49.599  49.503  0.00  0.00    -0.065 SA
ATOM      6  N   UNL d   1      61.548  49.251  50.590  0.00  0.00    -0.141 N 
ENDROOT
BRANCH   2   7
ATOM      7  C   UNL d   1      58.696  49.614  50.419  0.00  0.00     0.101 A 
ATOM      8  O   UNL d   1      58.149  49.635  51.003  0.00  0.00    -0.307 OA
ATOM      9  C   UNL d   1      57.431  49.668  50.661  0.00  0.00     0.100 A 
ATOM     10  C   UNL d   1      56.714  49.697  51.086  0.00  0.00     0.027 C 
ATOM     11  C   UNL d   1      57.493  49.670  49.863  0.00  0.00     0.027 A 
ATOM     12  C   UNL d   1      58.313  49.635  49.724  0.00  0.00     0.027 A 
ENDBRANCH   2   7
BRANCH   1  13
ATOM     13  C   UNL d   1      60.008  49.229  51.481  0.00  0.00     0.302 C 
ATOM     14  O   UNL d   1      59.523  48.659  51.759  0.00  0.00    -0.259 OA
BRANCH  13  15
ATOM     15  O   UNL d   1      60.470  49.674  52.027  0.00  0.00    -0.271 OA
BRANCH  15  16
ATOM     16  C   UNL d   1      60.535  49.417  52.781  0.00  0.00     0.126 C 
ATOM     17  C   UNL d   1      61.182  49.682  53.250  0.00  0.00     0.029 C 
ENDBRANCH  15  16
ENDBRANCH  13  15
ENDBRANCH   1  13
TORSDOF 4
ENDMDL
MODEL 2
REMARK VINA RESULT:      33.1      1.208      2.932
REMARK  4 active torsions:
REMARK  status: ('A' for Active; 'I' for Inactive)
REMARK    1  A    between atoms: C_8  and  C_1 
REMARK    2  A    between atoms: C_3  and  C_2 
REMARK    3  A    between atoms: O_14  and  C_8 
REMARK    4  A    between atoms: C_16  and  O_14 
ROOT
ATOM      1  C   UNL d   1      58.746  49.558  50.275  0.00  0.00     0.091 A 
ATOM      2  C   UNL d   1      59.567  49.632  50.310  0.00  0.00     0.036 A 
ATOM      3  C   UNL d   1      58.509  49.566  49.482  0.00  0.00     0.138 A 
ATOM      4  C   UNL d   1      59.821  49.684  49.526  0.00  0.00     0.039 A 
ATOM      5  S   UNL d   1      59.184  49.644  49.037  0.00  0.00    -0.065 SA
ATOM      6  N   UNL d   1      57.723  49.504  49.202  0.00  0.00    -0.141 N 
ENDROOT
BRANCH   2   7
ATOM      7  C   UNL d   1      59.958  49.641  51.013  0.00  0.00     0.101 A 
ATOM      8  O   UNL d   1      59.962  49.666  51.813  0.00  0.00    -0.307 OA
ATOM      9  C   UNL d   1      60.721  49.650  52.052  0.00  0.00     0.100 A 
ATOM     10  C   UNL d   1      60.958  49.667  52.851  0.00  0.00     0.027 C 
ATOM     11  C   UNL d   1      61.218  49.615  51.425  0.00  0.00     0.027 A 
ATOM     12  C   UNL d   1      60.711  49.610  50.765  0.00  0.00     0.027 A 
ENDBRANCH   2   7
BRANCH   1  13
ATOM     13  C   UNL d   1      58.236  49.488  50.905  0.00  0.00     0.302 C 
ATOM     14  O   UNL d   1      58.491  49.461  51.662  0.00  0.00    -0.259 OA
BRANCH  13  15
ATOM     15  O   UNL d   1      57.409  49.441  50.750  0.00  0.00    -0.271 OA
BRANCH  15  16
ATOM     16  C   UNL d   1      56.895  49.704  51.304  0.00  0.00     0.126 C 
ATOM     17  C   UNL d   1      56.475  49.142  51.770  0.00  0.00     0.029 C 
ENDBRANCH  15  16
ENDBRANCH  13  15
ENDBRANCH   1  13
TORSDOF 4
ENDMDL
