MODEL 1
REMARK VINA RESULT:     -10.0      0.000      0.000
REMARK  1 active torsions:
REMARK  status: ('A' for Active; 'I' for Inactive)
REMARK    1  A    between atoms: C_7  and  C_4 
ROOT
ATOM      1  N   UNL d   1      52.644  32.719  53.301  0.00  0.00    -0.211 NA
ATOM      2  C   UNL d   1      53.324  32.459  53.690  0.00  0.00     0.140 A 
ATOM      3  C   UNL d   1      53.711  32.961  54.219  0.00  0.00     0.051 A 
ATOM      4  C   UNL d   1      52.351  33.484  53.441  0.00  0.00     0.183 A 
ATOM      5  C   UNL d   1      53.418  33.726  54.358  0.00  0.00     0.104 A 
ATOM      6  O   UNL d   1      52.738  33.985  53.969  0.00  0.00    -0.289 OA
ATOM      7  S   UNL d   1      53.619  31.700  53.554  0.00  0.00    -0.057 SA
ATOM      8  C   UNL d   1      54.390  32.706  54.609  0.00  0.00     0.004 A 
ATOM      9  C   UNL d   1      53.804  34.215  54.879  0.00  0.00     0.025 A 
ATOM     10  C   UNL d   1      54.769  33.201  55.128  0.00  0.00     0.000 A 
ATOM     11  C   UNL d   1      54.484  33.955  55.268  0.00  0.00     0.002 A 
ENDROOT
BRANCH   4  12
ATOM     12  C   UNL d   1      51.671  33.743  53.051  0.00  0.00     0.041 A 
ATOM     13  C   UNL d   1      50.932  33.646  53.410  0.00  0.00     0.004 A 
ATOM     14  C   UNL d   1      50.252  33.901  53.027  0.00  0.00     0.007 A 
ATOM     15  C   UNL d   1      50.304  34.260  52.275  0.00  0.00     0.035 A 
ATOM     16  C   UNL d   1      51.043  34.355  51.921  0.00  0.00     0.007 A 
ATOM     17 BR   UNL d   1      49.621  34.519  51.886  0.00  0.00    -0.049 Br
ATOM     18  C   UNL d   1      51.730  34.097  52.307  0.00  0.00     0.004 A 
ENDBRANCH   4  12
TORSDOF 1
ENDMDL
MODEL 2
REMARK VINA RESULT:      -9.4      1.280      2.017
REMARK  1 active torsions:
REMARK  status: ('A' for Active; 'I' for Inactive)
REMARK    1  A    between atoms: C_7  and  C_4 
ROOT
ATOM      1  N   UNL d   1      52.939  32.995  53.494  0.00  0.00    -0.211 NA
ATOM      2  C   UNL d   1      53.543  32.461  53.670  0.00  0.00     0.140 A 
ATOM      3  C   UNL d   1      53.446  31.660  53.493  0.00  0.00     0.051 A 
ATOM      4  C   UNL d   1      52.236  32.729  53.141  0.00  0.00     0.183 A 
ATOM      5  C   UNL d   1      52.743  31.394  53.140  0.00  0.00     0.104 A 
ATOM      6  O   UNL d   1      52.140  31.928  52.965  0.00  0.00    -0.289 OA
ATOM      7  S   UNL d   1      54.244  32.722  54.021  0.00  0.00    -0.057 SA
ATOM      8  C   UNL d   1      54.046  31.124  53.667  0.00  0.00     0.004 A 
ATOM      9  C   UNL d   1      52.654  30.605  52.969  0.00  0.00     0.025 A 
ATOM     10  C   UNL d   1      53.948  30.338  53.493  0.00  0.00     0.000 A 
ATOM     11  C   UNL d   1      53.258  30.070  53.145  0.00  0.00     0.002 A 
ENDROOT
BRANCH   4  12
ATOM     12  C   UNL d   1      51.633  33.264  52.966  0.00  0.00     0.041 A 
ATOM     13  C   UNL d   1      50.956  33.287  53.440  0.00  0.00     0.004 A 
ATOM     14  C   UNL d   1      50.352  33.817  53.271  0.00  0.00     0.007 A 
ATOM     15  C   UNL d   1      50.420  34.335  52.619  0.00  0.00     0.035 A 
ATOM     16  C   UNL d   1      51.096  34.309  52.148  0.00  0.00     0.007 A 
ATOM     17 BR   UNL d   1      49.813  34.871  52.445  0.00  0.00    -0.049 Br
ATOM     18  C   UNL d   1      51.707  33.773  52.319  0.00  0.00     0.004 A 
ENDBRANCH   4  12
TORSDOF 1
ENDMDL
MODEL 3
REMARK VINA RESULT:      -9.1      2.122      3.163
REMARK  1 active torsions:
REMARK  status: ('A' for Active; 'I' for Inactive)
REMARK    1  A    between atoms: C_7  and  C_4 
ROOT
ATOM      1  N   UNL d   1      52.370  33.001  52.922  0.00  0.00    -0.211 NA
ATOM      2  C   UNL d   1      52.254  33.817  52.967  0.00  0.00     0.140 A 
ATOM      3  C   UNL d   1      52.625  34.251  53.564  0.00  0.00     0.051 A 
ATOM      4  C   UNL d   1      52.857  32.617  53.475  0.00  0.00     0.183 A 
ATOM      5  C   UNL d   1      53.112  33.867  54.117  0.00  0.00     0.104 A 
ATOM      6  O   UNL d   1      53.227  33.051  54.071  0.00  0.00    -0.289 OA
ATOM      7  S   UNL d   1      51.770  34.201  52.419  0.00  0.00    -0.057 SA
ATOM      8  C   UNL d   1      52.512  35.064  53.613  0.00  0.00     0.004 A 
ATOM      9  C   UNL d   1      53.473  34.300  54.701  0.00  0.00     0.025 A 
ATOM     10  C   UNL d   1      52.877  35.489  54.200  0.00  0.00     0.000 A 
ATOM     11  C   UNL d   1      53.358  35.116  54.747  0.00  0.00     0.002 A 
ENDROOT
BRANCH   4  12
ATOM     12  C   UNL d   1      52.972  31.802  53.428  0.00  0.00     0.041 A 
ATOM     13  C   UNL d   1      53.646  31.463  53.767  0.00  0.00     0.004 A 
ATOM     14  C   UNL d   1      53.766  30.653  53.725  0.00  0.00     0.007 A 
ATOM     15  C   UNL d   1      53.208  30.166  53.339  0.00  0.00     0.035 A 
ATOM     16  C   UNL d   1      52.537  30.506  53.002  0.00  0.00     0.007 A 
ATOM     17 BR   UNL d   1      53.325  29.347  53.294  0.00  0.00    -0.049 Br
ATOM     18  C   UNL d   1      52.415  31.326  53.045  0.00  0.00     0.004 A 
ENDBRANCH   4  12
TORSDOF 1
ENDMDL
MODEL 4
REMARK VINA RESULT:      -9.0      2.106      3.215
REMARK  1 active torsions:
REMARK  status: ('A' for Active; 'I' for Inactive)
REMARK    1  A    between atoms: C_7  and  C_4 
ROOT
ATOM      1  N   UNL d   1      54.022  32.640  54.385  0.00  0.00    -0.211 NA
ATOM      2  C   UNL d   1      54.124  33.432  54.593  0.00  0.00     0.140 A 
ATOM      3  C   UNL d   1      53.580  33.997  54.336  0.00  0.00     0.051 A 
ATOM      4  C   UNL d   1      53.373  32.412  53.918  0.00  0.00     0.183 A 
ATOM      5  C   UNL d   1      52.932  33.769  53.869  0.00  0.00     0.104 A 
ATOM      6  O   UNL d   1      52.830  32.977  53.661  0.00  0.00    -0.289 OA
ATOM      7  S   UNL d   1      54.767  33.662  55.057  0.00  0.00    -0.057 SA
ATOM      8  C   UNL d   1      53.679  34.788  54.541  0.00  0.00     0.004 A 
ATOM      9  C   UNL d   1      52.400  34.330  53.619  0.00  0.00     0.025 A 
ATOM     10  C   UNL d   1      53.143  35.342  54.287  0.00  0.00     0.000 A 
ATOM     11  C   UNL d   1      52.503  35.122  53.827  0.00  0.00     0.002 A 
ENDROOT
BRANCH   4  12
ATOM     12  C   UNL d   1      53.272  31.620  53.711  0.00  0.00     0.041 A 
ATOM     13  C   UNL d   1      52.952  31.428  52.973  0.00  0.00     0.004 A 
ATOM     14  C   UNL d   1      52.848  30.642  52.761  0.00  0.00     0.007 A 
ATOM     15  C   UNL d   1      53.066  30.033  53.289  0.00  0.00     0.035 A 
ATOM     16  C   UNL d   1      53.384  30.228  54.024  0.00  0.00     0.007 A 
ATOM     17 BR   UNL d   1      52.963  29.238  53.079  0.00  0.00    -0.049 Br
ATOM     18  C   UNL d   1      53.489  31.022  54.240  0.00  0.00     0.004 A 
ENDBRANCH   4  12
TORSDOF 1
ENDMDL
MODEL 5
REMARK VINA RESULT:      -8.3      2.613      3.943
REMARK  1 active torsions:
REMARK  status: ('A' for Active; 'I' for Inactive)
REMARK    1  A    between atoms: C_7  and  C_4 
ROOT
ATOM      1  N   UNL d   1      53.111  32.273  53.471  0.00  0.00    -0.211 NA
ATOM      2  C   UNL d   1      52.647  31.693  53.111  0.00  0.00     0.140 A 
ATOM      3  C   UNL d   1      52.806  30.895  53.249  0.00  0.00     0.051 A 
ATOM      4  C   UNL d   1      53.737  32.053  53.972  0.00  0.00     0.183 A 
ATOM      5  C   UNL d   1      53.432  30.676  53.750  0.00  0.00     0.104 A 
ATOM      6  O   UNL d   1      53.896  31.255  54.109  0.00  0.00    -0.289 OA
ATOM      7  S   UNL d   1      52.024  31.908  52.613  0.00  0.00    -0.057 SA
ATOM      8  C   UNL d   1      52.345  30.315  52.892  0.00  0.00     0.004 A 
ATOM      9  C   UNL d   1      53.584  29.889  53.881  0.00  0.00     0.025 A 
ATOM     10  C   UNL d   1      52.504  29.531  53.029  0.00  0.00     0.000 A 
ATOM     11  C   UNL d   1      53.119  29.310  53.521  0.00  0.00     0.002 A 
ENDROOT
BRANCH   4  12
ATOM     12  C   UNL d   1      54.201  32.633  54.331  0.00  0.00     0.041 A 
ATOM     13  C   UNL d   1      54.071  32.827  55.124  0.00  0.00     0.004 A 
ATOM     14  C   UNL d   1      54.529  33.403  55.488  0.00  0.00     0.007 A 
ATOM     15  C   UNL d   1      55.128  33.795  55.059  0.00  0.00     0.035 A 
ATOM     16  C   UNL d   1      55.256  33.598  54.268  0.00  0.00     0.007 A 
ATOM     17 BR   UNL d   1      55.593  34.377  55.422  0.00  0.00    -0.049 Br
ATOM     18  C   UNL d   1      54.793  33.016  53.900  0.00  0.00     0.004 A 
ENDBRANCH   4  12
TORSDOF 1
ENDMDL
