MODEL 1
REMARK VINA RESULT:      -0.4      0.000      0.000
REMARK  2 active torsions:
REMARK  status: ('A' for Active; 'I' for Inactive)
REMARK    1  A    between atoms: C_2  and  CA_1 
REMARK    2  A    between atoms: C_3  and  CA_1 
ROOT
ATOM      1  C   UNL d   1      45.412 -13.458  44.143  0.00  0.00     0.025 A 
ATOM      2  C   UNL d   1      45.783 -12.733  44.307  0.00  0.00     0.002 A 
ATOM      3  C   UNL d   1      44.905 -13.522  43.496  0.00  0.00     0.002 A 
ATOM      4  C   UNL d   1      46.291 -12.669  44.955  0.00  0.00     0.000 C 
ATOM      5  C   UNL d   1      45.645 -12.080  43.826  0.00  0.00     0.000 A 
ATOM      6  C   UNL d   1      44.768 -12.860  43.013  0.00  0.00     0.000 A 
ATOM      7  C   UNL d   1      45.137 -12.144  43.178  0.00  0.00     0.000 A 
ENDROOT
BRANCH   1   8
ATOM      8  CA  UNL d   1      45.553 -14.112  44.629  0.00  0.00     0.167 C 
ATOM      9  N   UNL d   1      46.314 -14.271  44.898  0.00  0.00    -0.142 N 
BRANCH   8  10
ATOM     10  C   UNL d   1      44.928 -14.605  44.842  0.00  0.00     0.231 C 
ATOM     11  O   UNL d   1      44.170 -14.301  44.949  0.00  0.00    -0.643 OA
ATOM     12  OXT UNL d   1      45.059 -15.415  44.952  0.00  0.00    -0.643 OA
ENDBRANCH   8  10
ENDBRANCH   1   8
TORSDOF 2
ENDMDL
