MODEL 1
REMARK VINA RESULT:      -6.6      0.000      0.000
REMARK  4 active torsions:
REMARK  status: ('A' for Active; 'I' for Inactive)
REMARK    1  A    between atoms: C_12  and  N_3 
REMARK    2  A    between atoms: C_10  and  C_5 
REMARK       I    between atoms: N_11  and  C_10 
REMARK    3  A    between atoms: C_24  and  C_12 
REMARK    4  A    between atoms: C_25  and  N_14 
ROOT
ATOM      1  C   UNL d   1     -47.802  13.576  23.170  0.00  0.00     0.154 A 
ATOM      2  C   UNL d   1     -47.319  14.168  22.859  0.00  0.00     0.093 A 
ATOM      3  N   UNL d   1     -47.330  12.910  23.305  0.00  0.00    -0.286 N 
ATOM      4  N   UNL d   1     -48.599  13.724  23.286  0.00  0.00    -0.210 NA
ATOM      5  C   UNL d   1     -46.563  13.088  23.080  0.00  0.00     0.122 A 
ATOM      6  C   UNL d   1     -47.639  14.903  22.667  0.00  0.00     0.269 A 
ATOM      7  N   UNL d   1     -48.441  15.044  22.786  0.00  0.00    -0.258 N 
ATOM      8  C   UNL d   1     -48.923  14.451  23.097  0.00  0.00     0.152 A 
ATOM      9  C   UNL d   1     -46.549  13.870  22.801  0.00  0.00     0.030 A 
ATOM     10  C   UNL d   1     -48.761  15.779  22.595  0.00  0.00     0.084 A 
ATOM     11  O   UNL d   1     -47.157  15.495  22.356  0.00  0.00    -0.266 OA
ATOM     12  C   UNL d   1     -49.721  14.599  23.214  0.00  0.00     0.038 A 
ATOM     13  C   UNL d   1     -49.566  15.922  22.714  0.00  0.00     0.019 A 
ATOM     14  C   UNL d   1     -50.049  15.329  23.025  0.00  0.00     0.005 A 
ENDROOT
BRANCH   5  15
ATOM     15  C   UNL d   1     -45.913  12.581  23.122  0.00  0.00     0.281 C 
ATOM     16  N   UNL d   1     -45.291  12.663  22.589  0.00  0.00    -0.268 N 
ATOM     17  C   UNL d   1     -45.318  13.251  22.014  0.00  0.00     0.102 A 
ATOM     18  C   UNL d   1     -44.638  12.154  22.631  0.00  0.00     0.102 A 
ATOM     19  C   UNL d   1     -44.694  13.336  21.478  0.00  0.00     0.100 A 
ATOM     20  N   UNL d   1     -44.042  12.826  21.520  0.00  0.00    -0.300 N 
ATOM     21  C   UNL d   1     -44.016  12.235  22.098  0.00  0.00     0.100 A 
ATOM     22  O   UNL d   1     -45.885  11.993  23.697  0.00  0.00    -0.265 OA
BRANCH  20  23
ATOM     23  C   UNL d   1     -43.409  12.907  20.981  0.00  0.00     0.080 C 
ATOM     24  C   UNL d   1     -42.681  13.212  21.233  0.00  0.00     0.021 C 
ENDBRANCH  20  23
ENDBRANCH   5  15
BRANCH   3  25
ATOM     25  C   UNL d   1     -47.594  12.190  23.615  0.00  0.00     0.082 C 
BRANCH  25  26
ATOM     26  C   UNL d   1     -48.212  11.787  23.256  0.00  0.00     0.018 A 
ATOM     27  C   UNL d   1     -48.870  11.555  23.698  0.00  0.00     0.002 A 
ATOM     28  C   UNL d   1     -49.492  11.151  23.340  0.00  0.00     0.000 A 
ATOM     29  C   UNL d   1     -49.458  10.977  22.542  0.00  0.00     0.000 A 
ATOM     30  C   UNL d   1     -48.801  11.208  22.096  0.00  0.00     0.000 A 
ATOM     31  C   UNL d   1     -48.179  11.612  22.454  0.00  0.00     0.002 A 
ENDBRANCH  25  26
ENDBRANCH   3  25
TORSDOF 4
ENDMDL
MODEL 2
REMARK VINA RESULT:      -5.7      1.402      3.012
REMARK  4 active torsions:
REMARK  status: ('A' for Active; 'I' for Inactive)
REMARK    1  A    between atoms: C_12  and  N_3 
REMARK    2  A    between atoms: C_10  and  C_5 
REMARK       I    between atoms: N_11  and  C_10 
REMARK    3  A    between atoms: C_24  and  C_12 
REMARK    4  A    between atoms: C_25  and  N_14 
ROOT
ATOM      1  C   UNL d   1     -48.269  12.872  23.088  0.00  0.00     0.154 A 
ATOM      2  C   UNL d   1     -48.224  12.071  22.893  0.00  0.00     0.093 A 
ATOM      3  N   UNL d   1     -47.517  13.201  22.982  0.00  0.00    -0.286 N 
ATOM      4  N   UNL d   1     -48.983  13.189  23.334  0.00  0.00    -0.210 NA
ATOM      5  C   UNL d   1     -47.013  12.609  22.723  0.00  0.00     0.122 A 
ATOM      6  C   UNL d   1     -48.895  11.596  22.947  0.00  0.00     0.269 A 
ATOM      7  N   UNL d   1     -49.609  11.921  23.195  0.00  0.00    -0.258 N 
ATOM      8  C   UNL d   1     -49.653  12.722  23.389  0.00  0.00     0.152 A 
ATOM      9  C   UNL d   1     -47.446  11.903  22.666  0.00  0.00     0.030 A 
ATOM     10  C   UNL d   1     -50.280  11.446  23.248  0.00  0.00     0.084 A 
ATOM     11  O   UNL d   1     -48.851  10.796  22.752  0.00  0.00    -0.266 OA
ATOM     12  C   UNL d   1     -50.368  13.039  23.635  0.00  0.00     0.038 A 
ATOM     13  C   UNL d   1     -50.998  11.771  23.496  0.00  0.00     0.019 A 
ATOM     14  C   UNL d   1     -51.042  12.572  23.691  0.00  0.00     0.005 A 
ENDROOT
BRANCH   5  15
ATOM     15  C   UNL d   1     -46.210  12.696  22.549  0.00  0.00     0.281 C 
ATOM     16  N   UNL d   1     -45.667  12.137  22.817  0.00  0.00    -0.268 N 
ATOM     17  C   UNL d   1     -45.926  11.493  23.258  0.00  0.00     0.102 A 
ATOM     18  C   UNL d   1     -44.862  12.224  22.642  0.00  0.00     0.102 A 
ATOM     19  C   UNL d   1     -45.382  10.931  23.528  0.00  0.00     0.100 A 
ATOM     20  N   UNL d   1     -44.577  11.018  23.353  0.00  0.00    -0.300 N 
ATOM     21  C   UNL d   1     -44.318  11.667  22.909  0.00  0.00     0.100 A 
ATOM     22  O   UNL d   1     -45.951  13.340  22.107  0.00  0.00    -0.265 OA
BRANCH  20  23
ATOM     23  C   UNL d   1     -44.024  10.454  23.623  0.00  0.00     0.080 C 
ATOM     24  C   UNL d   1     -44.235   9.654  23.676  0.00  0.00     0.021 C 
ENDBRANCH  20  23
ENDBRANCH   5  15
BRANCH   3  25
ATOM     25  C   UNL d   1     -47.317  13.992  23.115  0.00  0.00     0.082 C 
BRANCH  25  26
ATOM     26  C   UNL d   1     -47.696  14.589  22.701  0.00  0.00     0.018 A 
ATOM     27  C   UNL d   1     -48.080  15.197  23.108  0.00  0.00     0.002 A 
ATOM     28  C   UNL d   1     -48.462  15.799  22.696  0.00  0.00     0.000 A 
ATOM     29  C   UNL d   1     -48.462  15.796  21.877  0.00  0.00     0.000 A 
ATOM     30  C   UNL d   1     -48.078  15.189  21.467  0.00  0.00     0.000 A 
ATOM     31  C   UNL d   1     -47.696  14.587  21.879  0.00  0.00     0.002 A 
ENDBRANCH  25  26
ENDBRANCH   3  25
TORSDOF 4
ENDMDL
MODEL 3
REMARK VINA RESULT:      -4.4      5.896      8.301
REMARK  4 active torsions:
REMARK  status: ('A' for Active; 'I' for Inactive)
REMARK    1  A    between atoms: C_12  and  N_3 
REMARK    2  A    between atoms: C_10  and  C_5 
REMARK       I    between atoms: N_11  and  C_10 
REMARK    3  A    between atoms: C_24  and  C_12 
REMARK    4  A    between atoms: C_25  and  N_14 
ROOT
ATOM      1  C   UNL d   1     -40.079  15.568  20.979  0.00  0.00     0.154 A 
ATOM      2  C   UNL d   1     -39.344  15.692  20.626  0.00  0.00     0.093 A 
ATOM      3  N   UNL d   1     -40.639  15.482  20.377  0.00  0.00    -0.286 N 
ATOM      4  N   UNL d   1     -40.136  15.551  21.797  0.00  0.00    -0.210 NA
ATOM      5  C   UNL d   1     -40.255  15.552  19.657  0.00  0.00     0.122 A 
ATOM      6  C   UNL d   1     -38.674  15.798  21.093  0.00  0.00     0.269 A 
ATOM      7  N   UNL d   1     -38.739  15.779  21.913  0.00  0.00    -0.258 N 
ATOM      8  C   UNL d   1     -39.474  15.655  22.267  0.00  0.00     0.152 A 
ATOM      9  C   UNL d   1     -39.448  15.683  19.804  0.00  0.00     0.030 A 
ATOM     10  C   UNL d   1     -38.069  15.885  22.380  0.00  0.00     0.084 A 
ATOM     11  O   UNL d   1     -37.940  15.922  20.739  0.00  0.00    -0.266 OA
ATOM     12  C   UNL d   1     -39.532  15.637  23.084  0.00  0.00     0.038 A 
ATOM     13  C   UNL d   1     -38.133  15.866  23.204  0.00  0.00     0.019 A 
ATOM     14  C   UNL d   1     -38.868  15.742  23.558  0.00  0.00     0.005 A 
ENDROOT
BRANCH   5  15
ATOM     15  C   UNL d   1     -40.605  15.502  18.911  0.00  0.00     0.281 C 
ATOM     16  N   UNL d   1     -40.189  15.171  18.282  0.00  0.00    -0.268 N 
ATOM     17  C   UNL d   1     -39.425  14.891  18.397  0.00  0.00     0.102 A 
ATOM     18  C   UNL d   1     -40.541  15.120  17.533  0.00  0.00     0.102 A 
ATOM     19  C   UNL d   1     -39.006  14.558  17.767  0.00  0.00     0.100 A 
ATOM     20  N   UNL d   1     -39.357  14.508  17.018  0.00  0.00    -0.300 N 
ATOM     21  C   UNL d   1     -40.127  14.790  16.903  0.00  0.00     0.100 A 
ATOM     22  O   UNL d   1     -41.370  15.782  18.795  0.00  0.00    -0.265 OA
BRANCH  20  23
ATOM     23  C   UNL d   1     -38.939  14.173  16.378  0.00  0.00     0.080 C 
ATOM     24  C   UNL d   1     -38.286  14.567  16.053  0.00  0.00     0.021 C 
ENDBRANCH  20  23
ENDBRANCH   5  15
BRANCH   3  25
ATOM     25  C   UNL d   1     -41.448  15.348  20.489  0.00  0.00     0.082 C 
BRANCH  25  26
ATOM     26  C   UNL d   1     -41.713  14.617  20.750  0.00  0.00     0.018 A 
ATOM     27  C   UNL d   1     -41.258  13.940  20.624  0.00  0.00     0.002 A 
ATOM     28  C   UNL d   1     -41.522  13.205  20.885  0.00  0.00     0.000 A 
ATOM     29  C   UNL d   1     -42.240  13.144  21.272  0.00  0.00     0.000 A 
ATOM     30  C   UNL d   1     -42.699  13.820  21.399  0.00  0.00     0.000 A 
ATOM     31  C   UNL d   1     -42.435  14.555  21.138  0.00  0.00     0.002 A 
ENDBRANCH  25  26
ENDBRANCH   3  25
TORSDOF 4
ENDMDL
MODEL 4
REMARK VINA RESULT:      -3.6      4.780      8.994
REMARK  4 active torsions:
REMARK  status: ('A' for Active; 'I' for Inactive)
REMARK    1  A    between atoms: C_12  and  N_3 
REMARK    2  A    between atoms: C_10  and  C_5 
REMARK       I    between atoms: N_11  and  C_10 
REMARK    3  A    between atoms: C_24  and  C_12 
REMARK    4  A    between atoms: C_25  and  N_14 
ROOT
ATOM      1  C   UNL d   1     -39.416  15.001  18.843  0.00  0.00     0.154 A 
ATOM      2  C   UNL d   1     -40.122  14.903  18.427  0.00  0.00     0.093 A 
ATOM      3  N   UNL d   1     -39.603  15.077  19.645  0.00  0.00    -0.286 N 
ATOM      4  N   UNL d   1     -38.705  15.006  18.436  0.00  0.00    -0.210 NA
ATOM      5  C   UNL d   1     -40.417  15.028  19.724  0.00  0.00     0.122 A 
ATOM      6  C   UNL d   1     -40.109  14.812  17.608  0.00  0.00     0.269 A 
ATOM      7  N   UNL d   1     -39.391  14.818  17.206  0.00  0.00    -0.258 N 
ATOM      8  C   UNL d   1     -38.685  14.916  17.622  0.00  0.00     0.152 A 
ATOM      9  C   UNL d   1     -40.746  14.919  18.970  0.00  0.00     0.030 A 
ATOM     10  C   UNL d   1     -39.378  14.727  16.388  0.00  0.00     0.084 A 
ATOM     11  O   UNL d   1     -40.814  14.714  17.192  0.00  0.00    -0.266 OA
ATOM     12  C   UNL d   1     -37.974  14.922  17.216  0.00  0.00     0.038 A 
ATOM     13  C   UNL d   1     -38.657  14.734  15.983  0.00  0.00     0.019 A 
ATOM     14  C   UNL d   1     -37.952  14.831  16.399  0.00  0.00     0.005 A 
ENDROOT
BRANCH   5  15
ATOM     15  C   UNL d   1     -40.841  15.076  20.432  0.00  0.00     0.281 C 
ATOM     16  N   UNL d   1     -41.388  14.492  20.625  0.00  0.00    -0.268 N 
ATOM     17  C   UNL d   1     -41.512  13.861  20.113  0.00  0.00     0.102 A 
ATOM     18  C   UNL d   1     -41.814  14.542  21.335  0.00  0.00     0.102 A 
ATOM     19  C   UNL d   1     -42.062  13.273  20.306  0.00  0.00     0.100 A 
ATOM     20  N   UNL d   1     -42.487  13.322  21.016  0.00  0.00    -0.300 N 
ATOM     21  C   UNL d   1     -42.361  13.959  21.530  0.00  0.00     0.100 A 
ATOM     22  O   UNL d   1     -40.717  15.708  20.943  0.00  0.00    -0.265 OA
BRANCH  20  23
ATOM     23  C   UNL d   1     -43.043  12.732  21.215  0.00  0.00     0.080 C 
ATOM     24  C   UNL d   1     -43.786  12.942  21.517  0.00  0.00     0.021 C 
ENDBRANCH  20  23
ENDBRANCH   5  15
BRANCH   3  25
ATOM     25  C   UNL d   1     -39.057  15.186  20.256  0.00  0.00     0.082 C 
BRANCH  25  26
ATOM     26  C   UNL d   1     -38.686  14.540  20.598  0.00  0.00     0.018 A 
ATOM     27  C   UNL d   1     -38.601  14.494  21.418  0.00  0.00     0.002 A 
ATOM     28  C   UNL d   1     -38.228  13.846  21.764  0.00  0.00     0.000 A 
ATOM     29  C   UNL d   1     -37.940  13.243  21.293  0.00  0.00     0.000 A 
ATOM     30  C   UNL d   1     -38.023  13.285  20.471  0.00  0.00     0.000 A 
ATOM     31  C   UNL d   1     -38.396  13.933  20.125  0.00  0.00     0.002 A 
ENDBRANCH  25  26
ENDBRANCH   3  25
TORSDOF 4
ENDMDL
