MODEL 1
REMARK VINA RESULT:      -1.3      0.000      0.000
REMARK  7 active torsions:
REMARK  status: ('A' for Active; 'I' for Inactive)
REMARK    1  A    between atoms: C_13  and  N_2 
REMARK    2  A    between atoms: C_7  and  C_4 
REMARK    3  A    between atoms: O_19  and  C_7 
REMARK    4  A    between atoms: C_9  and  C_18 
REMARK    5  A    between atoms: C_20  and  C_13 
REMARK    6  A    between atoms: O_16  and  C_15 
REMARK    7  A    between atoms: C_18  and  O_16 
ROOT
ATOM      1  C   UNL d   1     -42.872-122.641 -49.593  0.00  0.00     0.265 A 
ATOM      2  N   UNL d   1     -42.604-123.411 -49.465  0.00  0.00    -0.272 N 
ATOM      3  C   UNL d   1     -42.652-122.239 -50.274  0.00  0.00     0.059 A 
ATOM      4  C   UNL d   1     -42.162-122.602 -50.830  0.00  0.00     0.029 A 
ATOM      5  C   UNL d   1     -41.894-123.369 -50.705  0.00  0.00     0.021 A 
ATOM      6  C   UNL d   1     -42.114-123.775 -50.021  0.00  0.00     0.083 A 
ATOM      7  O   UNL d   1     -43.361-122.277 -49.037  0.00  0.00    -0.267 OA
ATOM      8  C   UNL d   1     -41.942-122.196 -51.514  0.00  0.00     0.100 A 
ATOM      9  C   UNL d   1     -42.920-121.469 -50.402  0.00  0.00     0.005 A 
ATOM     10  C   UNL d   1     -42.700-121.063 -51.086  0.00  0.00     0.002 A 
ATOM     11  C   UNL d   1     -42.211-121.426 -51.642  0.00  0.00     0.025 A 
ENDROOT
BRANCH   8  12
ATOM     12  O   UNL d   1     -41.452-122.560 -52.070  0.00  0.00    -0.303 OA
BRANCH  12  13
ATOM     13  C   UNL d   1     -41.126-122.116 -52.684  0.00  0.00     0.147 C 
BRANCH  13  14
ATOM     14  C   UNL d   1     -41.283-122.320 -53.468  0.00  0.00     0.125 A 
ATOM     15  O   UNL d   1     -41.520-121.865 -54.122  0.00  0.00    -0.300 OA
ATOM     16  C   UNL d   1     -41.590-122.379 -54.766  0.00  0.00     0.163 A 
ATOM     17  C   UNL d   1     -41.402-123.133 -54.521  0.00  0.00     0.032 A 
ATOM     18  C   UNL d   1     -41.211-123.100 -53.715  0.00  0.00     0.029 A 
BRANCH  16  19
ATOM     19  C   UNL d   1     -41.817-122.164 -55.543  0.00  0.00     0.319 C 
ATOM     20  O   UNL d   1     -41.281-121.797 -56.040  0.00  0.00    -0.257 OA
BRANCH  19  21
ATOM     21  O   UNL d   1     -42.594-122.325 -55.811  0.00  0.00    -0.294 OA
ATOM     22  C   UNL d   1     -42.859-122.019 -56.531  0.00  0.00     0.185 C 
ENDBRANCH  19  21
ENDBRANCH  16  19
ENDBRANCH  13  14
ENDBRANCH  12  13
ENDBRANCH   8  12
BRANCH   2  23
ATOM     23  C   UNL d   1     -42.829-123.817 -48.772  0.00  0.00     0.083 C 
BRANCH  23  24
ATOM     24  C   UNL d   1     -42.390-123.734 -48.079  0.00  0.00     0.018 A 
ATOM     25  C   UNL d   1     -42.775-123.572 -47.369  0.00  0.00     0.002 A 
ATOM     26  C   UNL d   1     -42.337-123.488 -46.676  0.00  0.00     0.000 A 
ATOM     27  C   UNL d   1     -41.515-123.566 -46.695  0.00  0.00     0.000 A 
ATOM     28  C   UNL d   1     -41.136-123.727 -47.406  0.00  0.00     0.000 A 
ATOM     29  C   UNL d   1     -41.575-123.811 -48.099  0.00  0.00     0.002 A 
ENDBRANCH  23  24
ENDBRANCH   2  23
TORSDOF 7
ENDMDL
