MODEL 1
REMARK VINA RESULT:      -4.2      0.000      0.000
REMARK  4 active torsions:
REMARK  status: ('A' for Active; 'I' for Inactive)
REMARK    1  A    between atoms: N_4  and  C_1 
REMARK    2  A    between atoms: S_8  and  C_2 
REMARK    3  A    between atoms: N_6  and  C_9 
REMARK    4  A    between atoms: C_16  and  S_8 
ROOT
ATOM      1  S   UNL d   1     -41.303-122.173 -53.278  0.00  0.00    -0.066 SA
ENDROOT
BRANCH   1   2
ATOM      2  C   UNL d   1     -41.726-122.521 -53.898  0.00  0.00     0.136 A 
ATOM      3  C   UNL d   1     -42.272-122.219 -54.438  0.00  0.00     0.232 A 
ATOM      4  N   UNL d   1     -42.499-122.854 -54.925  0.00  0.00    -0.201 NA
ATOM      5  C   UNL d   1     -42.091-123.532 -54.678  0.00  0.00     0.185 A 
ATOM      6  N   UNL d   1     -41.628-123.305 -54.053  0.00  0.00    -0.279 N 
ATOM      7  C   UNL d   1     -41.123-123.816 -53.633  0.00  0.00     0.101 C 
BRANCH   3   8
ATOM      8  N   UNL d   1     -42.545-121.439 -54.490  0.00  0.00    -0.093 N 
ATOM      9  O   UNL d   1     -42.059-120.850 -54.807  0.00  0.00    -0.530 OA
ATOM     10  O   UNL d   1     -43.310-121.242 -54.223  0.00  0.00    -0.530 OA
ENDBRANCH   3   8
ENDBRANCH   1   2
BRANCH   1  11
ATOM     11  C   UNL d   1     -41.491-122.304 -52.496  0.00  0.00     0.031 A 
ATOM     12  C   UNL d   1     -41.755-121.665 -52.035  0.00  0.00     0.008 A 
ATOM     13  C   UNL d   1     -41.949-121.787 -51.240  0.00  0.00     0.024 A 
ATOM     14  C   UNL d   1     -41.881-122.526 -50.914  0.00  0.00     0.127 A 
ATOM     15  C   UNL d   1     -41.616-123.162 -51.379  0.00  0.00     0.024 A 
ATOM     16  C   UNL d   1     -41.429-123.040 -52.149  0.00  0.00     0.008 A 
BRANCH  14  17
ATOM     17  N   UNL d   1     -42.073-122.646 -50.122  0.00  0.00    -0.114 N 
ATOM     18  O   UNL d   1     -41.491-122.555 -49.544  0.00  0.00    -0.532 OA
ATOM     19  O   UNL d   1     -42.838-122.855 -49.909  0.00  0.00    -0.532 OA
ENDBRANCH  14  17
ENDBRANCH   1  11
TORSDOF 4
ENDMDL
MODEL 2
REMARK VINA RESULT:      -3.8      1.156      3.552
REMARK  4 active torsions:
REMARK  status: ('A' for Active; 'I' for Inactive)
REMARK    1  A    between atoms: N_4  and  C_1 
REMARK    2  A    between atoms: S_8  and  C_2 
REMARK    3  A    between atoms: N_6  and  C_9 
REMARK    4  A    between atoms: C_16  and  S_8 
ROOT
ATOM      1  S   UNL d   1     -41.123-122.131 -52.576  0.00  0.00    -0.066 SA
ENDROOT
BRANCH   1   2
ATOM      2  C   UNL d   1     -41.439-122.597 -51.970  0.00  0.00     0.136 A 
ATOM      3  C   UNL d   1     -41.790-122.409 -51.248  0.00  0.00     0.232 A 
ATOM      4  N   UNL d   1     -41.993-123.131 -50.887  0.00  0.00    -0.201 NA
ATOM      5  C   UNL d   1     -41.764-123.747 -51.391  0.00  0.00     0.185 A 
ATOM      6  N   UNL d   1     -41.430-123.399 -52.043  0.00  0.00    -0.279 N 
ATOM      7  C   UNL d   1     -41.123-123.818 -52.693  0.00  0.00     0.101 C 
BRANCH   3   8
ATOM      8  N   UNL d   1     -41.918-121.652 -50.937  0.00  0.00    -0.093 N 
ATOM      9  O   UNL d   1     -41.289-121.119 -50.868  0.00  0.00    -0.530 OA
ATOM     10  O   UNL d   1     -42.681-121.422 -50.690  0.00  0.00    -0.530 OA
ENDBRANCH   3   8
ENDBRANCH   1   2
BRANCH   1  11
ATOM     11  C   UNL d   1     -41.475-122.074 -53.309  0.00  0.00     0.031 A 
ATOM     12  C   UNL d   1     -42.141-121.584 -53.398  0.00  0.00     0.008 A 
ATOM     13  C   UNL d   1     -42.505-121.520 -54.137  0.00  0.00     0.024 A 
ATOM     14  C   UNL d   1     -42.214-121.931 -54.772  0.00  0.00     0.127 A 
ATOM     15  C   UNL d   1     -41.548-122.419 -54.678  0.00  0.00     0.024 A 
ATOM     16  C   UNL d   1     -41.196-122.481 -53.960  0.00  0.00     0.008 A 
BRANCH  14  17
ATOM     17  N   UNL d   1     -42.577-121.866 -55.507  0.00  0.00    -0.114 N 
ATOM     18  O   UNL d   1     -42.298-121.310 -56.050  0.00  0.00    -0.532 OA
ATOM     19  O   UNL d   1     -43.212-122.349 -55.701  0.00  0.00    -0.532 OA
ENDBRANCH  14  17
ENDBRANCH   1  11
TORSDOF 4
ENDMDL
MODEL 3
REMARK VINA RESULT:      -2.8      1.731      3.940
REMARK  4 active torsions:
REMARK  status: ('A' for Active; 'I' for Inactive)
REMARK    1  A    between atoms: N_4  and  C_1 
REMARK    2  A    between atoms: S_8  and  C_2 
REMARK    3  A    between atoms: N_6  and  C_9 
REMARK    4  A    between atoms: C_16  and  S_8 
ROOT
ATOM      1  S   UNL d   1     -41.901-122.331 -50.147  0.00  0.00    -0.066 SA
ENDROOT
BRANCH   1   2
ATOM      2  C   UNL d   1     -42.337-122.847 -49.670  0.00  0.00     0.136 A 
ATOM      3  C   UNL d   1     -43.148-122.957 -49.565  0.00  0.00     0.232 A 
ATOM      4  N   UNL d   1     -43.234-123.565 -49.003  0.00  0.00    -0.201 NA
ATOM      5  C   UNL d   1     -42.478-123.816 -48.774  0.00  0.00     0.185 A 
ATOM      6  N   UNL d   1     -41.950-123.366 -49.192  0.00  0.00    -0.279 N 
ATOM      7  C   UNL d   1     -41.123-123.435 -49.131  0.00  0.00     0.101 C 
BRANCH   3   8
ATOM      8  N   UNL d   1     -43.761-122.547 -49.941  0.00  0.00    -0.093 N 
ATOM      9  O   UNL d   1     -43.821-121.725 -49.863  0.00  0.00    -0.530 OA
ATOM     10  O   UNL d   1     -44.322-122.958 -50.402  0.00  0.00    -0.530 OA
ENDBRANCH   3   8
ENDBRANCH   1   2
BRANCH   1  11
ATOM     11  C   UNL d   1     -41.731-122.499 -50.927  0.00  0.00     0.031 A 
ATOM     12  C   UNL d   1     -41.551-121.873 -51.443  0.00  0.00     0.008 A 
ATOM     13  C   UNL d   1     -41.378-122.033 -52.235  0.00  0.00     0.024 A 
ATOM     14  C   UNL d   1     -41.384-122.797 -52.507  0.00  0.00     0.127 A 
ATOM     15  C   UNL d   1     -41.565-123.420 -51.987  0.00  0.00     0.024 A 
ATOM     16  C   UNL d   1     -41.732-123.262 -51.219  0.00  0.00     0.008 A 
BRANCH  14  17
ATOM     17  N   UNL d   1     -41.211-122.954 -53.296  0.00  0.00    -0.114 N 
ATOM     18  O   UNL d   1     -41.123-123.737 -53.544  0.00  0.00    -0.532 OA
ATOM     19  O   UNL d   1     -41.128-122.339 -53.833  0.00  0.00    -0.532 OA
ENDBRANCH  14  17
ENDBRANCH   1  11
TORSDOF 4
ENDMDL
