MODEL 1
REMARK VINA RESULT:      -9.5      0.000      0.000
REMARK  7 active torsions:
REMARK  status: ('A' for Active; 'I' for Inactive)
REMARK    1  A    between atoms: C_2  and  S_1 
REMARK    2  A    between atoms: N_3  and  S_1 
REMARK    3  A    between atoms: C_16  and  N_3 
REMARK    4  A    between atoms: C_4  and  C_8 
REMARK       I    between atoms: N_5  and  C_4 
REMARK    5  A    between atoms: C_17  and  N_5 
REMARK    6  A    between atoms: C_20  and  C_16 
REMARK    7  A    between atoms: C_18  and  C_17 
ROOT
ATOM      1  C   UNL d   1      49.151  34.716  51.818  0.00  0.00     0.058 A 
ATOM      2  C   UNL d   1      49.252  34.836  52.629  0.00  0.00     0.005 A 
ATOM      3  C   UNL d   1      49.774  34.412  51.370  0.00  0.00     0.005 A 
ATOM      4  C   UNL d   1      50.593  34.349  52.544  0.00  0.00     0.020 A 
ATOM      5  C   UNL d   1      49.970  34.654  52.991  0.00  0.00     0.002 A 
ATOM      6  C   UNL d   1      50.499  34.228  51.739  0.00  0.00     0.002 A 
ENDROOT
BRANCH   4   7
ATOM      7  C   UNL d   1      51.306  34.168  52.909  0.00  0.00     0.112 C 
BRANCH   7   8
ATOM      8  N   UNL d   1      51.578  33.394  52.914  0.00  0.00    -0.157 NA
BRANCH   8   9
ATOM      9  S   UNL d   1      52.289  33.199  53.294  0.00  0.00     0.285 S 
ATOM     10  O   UNL d   1      52.701  33.686  52.778  0.00  0.00    -0.198 OA
ATOM     11  O   UNL d   1      51.873  32.713  53.809  0.00  0.00    -0.198 OA
BRANCH   9  12
ATOM     12  C   UNL d   1      52.992  33.000  53.679  0.00  0.00     0.105 A 
ATOM     13  C   UNL d   1      53.367  32.290  53.510  0.00  0.00     0.012 A 
ATOM     14  C   UNL d   1      54.066  32.095  53.894  0.00  0.00     0.001 A 
ATOM     15  C   UNL d   1      53.029  31.776  52.946  0.00  0.00     0.001 C 
ATOM     16  C   UNL d   1      54.397  32.611  54.453  0.00  0.00     0.000 A 
ATOM     17  C   UNL d   1      54.014  33.324  54.619  0.00  0.00     0.001 A 
ATOM     18  C   UNL d   1      53.312  33.521  54.233  0.00  0.00     0.013 A 
ATOM     19  C   UNL d   1      54.344  33.839  55.179  0.00  0.00     0.000 C 
ENDBRANCH   9  12
ENDBRANCH   8   9
ENDBRANCH   7   8
ENDBRANCH   4   7
BRANCH   1  20
ATOM     20  C   UNL d   1      48.437  34.898  51.456  0.00  0.00     0.279 C 
ATOM     21  N   UNL d   1      47.859  35.302  51.872  0.00  0.00    -0.205 NA
ATOM     22  O   UNL d   1      48.304  34.671  50.672  0.00  0.00    -0.265 OA
BRANCH  21  23
ATOM     23  C   UNL d   1      47.139  35.487  51.511  0.00  0.00     0.121 C 
BRANCH  23  24
ATOM     24  C   UNL d   1      46.504  35.731  51.977  0.00  0.00     0.101 A 
ATOM     25  N   UNL d   1      45.859  35.231  52.072  0.00  0.00    -0.242 NA
ATOM     26  C   UNL d   1      45.231  35.481  52.537  0.00  0.00     0.099 A 
ATOM     27  C   UNL d   1      45.242  36.215  52.902  0.00  0.00     0.021 A 
ATOM     28  C   UNL d   1      45.898  36.709  52.797  0.00  0.00     0.003 A 
ATOM     29  C   UNL d   1      46.530  36.462  52.332  0.00  0.00     0.021 A 
ENDBRANCH  23  24
ENDBRANCH  21  23
ENDBRANCH   1  20
TORSDOF 7
ENDMDL
MODEL 2
REMARK VINA RESULT:      -8.9      1.606      6.591
REMARK  7 active torsions:
REMARK  status: ('A' for Active; 'I' for Inactive)
REMARK    1  A    between atoms: C_2  and  S_1 
REMARK    2  A    between atoms: N_3  and  S_1 
REMARK    3  A    between atoms: C_16  and  N_3 
REMARK    4  A    between atoms: C_4  and  C_8 
REMARK       I    between atoms: N_5  and  C_4 
REMARK    5  A    between atoms: C_17  and  N_5 
REMARK    6  A    between atoms: C_20  and  C_16 
REMARK    7  A    between atoms: C_18  and  C_17 
ROOT
ATOM      1  C   UNL d   1      51.624  33.476  52.855  0.00  0.00     0.058 A 
ATOM      2  C   UNL d   1      50.946  33.239  53.263  0.00  0.00     0.005 A 
ATOM      3  C   UNL d   1      51.586  34.122  52.343  0.00  0.00     0.005 A 
ATOM      4  C   UNL d   1      50.197  34.290  52.650  0.00  0.00     0.020 A 
ATOM      5  C   UNL d   1      50.235  33.645  53.162  0.00  0.00     0.002 A 
ATOM      6  C   UNL d   1      50.866  34.530  52.242  0.00  0.00     0.002 A 
ENDROOT
BRANCH   4   7
ATOM      7  C   UNL d   1      49.487  34.691  52.552  0.00  0.00     0.112 C 
BRANCH   7   8
ATOM      8  N   UNL d   1      49.304  35.325  53.040  0.00  0.00    -0.157 NA
BRANCH   8   9
ATOM      9  S   UNL d   1      48.549  35.667  53.023  0.00  0.00     0.285 S 
ATOM     10  O   UNL d   1      48.262  35.018  52.610  0.00  0.00    -0.198 OA
ATOM     11  O   UNL d   1      48.840  36.315  53.436  0.00  0.00    -0.198 OA
BRANCH   9  12
ATOM     12  C   UNL d   1      47.800  36.015  53.010  0.00  0.00     0.105 A 
ATOM     13  C   UNL d   1      47.466  36.299  53.703  0.00  0.00     0.012 A 
ATOM     14  C   UNL d   1      46.721  36.645  53.687  0.00  0.00     0.001 A 
ATOM     15  C   UNL d   1      47.893  36.232  54.417  0.00  0.00     0.001 C 
ATOM     16  C   UNL d   1      46.303  36.709  52.974  0.00  0.00     0.000 A 
ATOM     17  C   UNL d   1      46.645  36.420  52.278  0.00  0.00     0.001 A 
ATOM     18  C   UNL d   1      47.393  36.073  52.295  0.00  0.00     0.013 A 
ATOM     19  C   UNL d   1      46.226  36.484  51.566  0.00  0.00     0.000 C 
ENDBRANCH   9  12
ENDBRANCH   8   9
ENDBRANCH   7   8
ENDBRANCH   4   7
BRANCH   1  20
ATOM     20  C   UNL d   1      52.332  33.073  52.955  0.00  0.00     0.279 C 
ATOM     21  N   UNL d   1      52.842  33.286  53.560  0.00  0.00    -0.205 NA
ATOM     22  O   UNL d   1      52.527  32.452  52.445  0.00  0.00    -0.265 OA
BRANCH  21  23
ATOM     23  C   UNL d   1      53.555  32.882  53.664  0.00  0.00     0.121 C 
BRANCH  23  24
ATOM     24  C   UNL d   1      54.066  33.114  54.268  0.00  0.00     0.101 A 
ATOM     25  N   UNL d   1      53.889  32.912  55.044  0.00  0.00    -0.242 NA
ATOM     26  C   UNL d   1      54.401  33.145  55.640  0.00  0.00     0.099 A 
ATOM     27  C   UNL d   1      55.080  33.572  55.470  0.00  0.00     0.021 A 
ATOM     28  C   UNL d   1      55.247  33.769  54.683  0.00  0.00     0.003 A 
ATOM     29  C   UNL d   1      54.735  33.537  54.082  0.00  0.00     0.021 A 
ENDBRANCH  23  24
ENDBRANCH  21  23
ENDBRANCH   1  20
TORSDOF 7
ENDMDL
