MODEL 1
REMARK VINA RESULT:      40.9      0.000      0.000
REMARK  4 active torsions:
REMARK  status: ('A' for Active; 'I' for Inactive)
REMARK    1  A    between atoms: C_11  and  N_2 
REMARK    2  A    between atoms: C_10  and  C_6 
REMARK    3  A    between atoms: C_16  and  C_9 
REMARK    4  A    between atoms: C_21  and  C_16 
ROOT
ATOM      1  C   UNL d   1      14.245  12.624  -1.551  0.00  0.00     0.143 A 
ATOM      2  N   UNL d   1      13.768  13.003  -2.757  0.00  0.00    -0.242 N 
ATOM      3  C   UNL d   1      14.229  13.240  -2.105  0.00  0.00     0.172 A 
ATOM      4  C   UNL d   1      13.499  12.232  -2.600  0.00  0.00     0.355 A 
ATOM      5  N   UNL d   1      13.794  12.003  -1.859  0.00  0.00    -0.187 NA
ATOM      6  C   UNL d   1      14.659  12.706  -0.853  0.00  0.00     0.163 A 
ATOM      7  N   UNL d   1      14.637  13.948  -1.951  0.00  0.00    -0.208 NA
ATOM      8  N   UNL d   1      15.067  13.401  -0.688  0.00  0.00    -0.220 NA
ATOM      9  C   UNL d   1      15.056  14.022  -1.236  0.00  0.00     0.164 A 
ATOM     10  O   UNL d   1      13.020  11.780  -3.102  0.00  0.00    -0.244 OA
ENDROOT
BRANCH   2  11
ATOM     11  C   UNL d   1      13.610  13.447  -3.426  0.00  0.00     0.070 A 
ATOM     12  C   UNL d   1      13.499  13.074  -4.161  0.00  0.00     0.018 A 
ATOM     13  C   UNL d   1      13.340  13.510  -4.835  0.00  0.00     0.002 A 
ATOM     14  C   UNL d   1      13.295  14.329  -4.768  0.00  0.00     0.000 A 
ATOM     15  C   UNL d   1      13.404  14.707  -4.048  0.00  0.00     0.002 A 
ATOM     16  C   UNL d   1      13.134  14.780  -5.449  0.00  0.00     0.000 C 
ATOM     17  C   UNL d   1      13.562  14.262  -3.378  0.00  0.00     0.018 A 
ENDBRANCH   2  11
BRANCH   6  18
ATOM     18  C   UNL d   1      14.675  12.090  -0.300  0.00  0.00     0.316 C 
ATOM     19  O   UNL d   1      15.395  11.782  -0.031  0.00  0.00    -0.262 OA
ATOM     20  N   UNL d   1      13.955  11.779  -0.015  0.00  0.00    -0.101 N 
ENDBRANCH   6  18
BRANCH   9  21
ATOM     21  C   UNL d   1      15.465  14.721  -1.074  0.00  0.00     0.039 C 
BRANCH  21  22
ATOM     22  C   UNL d   1      15.051  15.428  -0.946  0.00  0.00     0.003 C 
ATOM     23  C   UNL d   1      14.994  15.978  -1.558  0.00  0.00     0.000 C 
ATOM     24  C   UNL d   1      14.707  15.569  -0.216  0.00  0.00     0.000 C 
ENDBRANCH  21  22
ENDBRANCH   9  21
TORSDOF 4
ENDMDL
MODEL 2
REMARK VINA RESULT:      42.1      1.255      2.948
REMARK  4 active torsions:
REMARK  status: ('A' for Active; 'I' for Inactive)
REMARK    1  A    between atoms: C_11  and  N_2 
REMARK    2  A    between atoms: C_10  and  C_6 
REMARK    3  A    between atoms: C_16  and  C_9 
REMARK    4  A    between atoms: C_21  and  C_16 
ROOT
ATOM      1  C   UNL d   1      14.466  13.305  -0.977  0.00  0.00     0.143 A 
ATOM      2  N   UNL d   1      14.684  14.568  -1.404  0.00  0.00    -0.242 N 
ATOM      3  C   UNL d   1      14.503  13.793  -1.646  0.00  0.00     0.172 A 
ATOM      4  C   UNL d   1      14.759  14.555  -0.576  0.00  0.00     0.355 A 
ATOM      5  N   UNL d   1      14.625  13.779  -0.318  0.00  0.00    -0.187 NA
ATOM      6  C   UNL d   1      14.296  12.511  -1.052  0.00  0.00     0.163 A 
ATOM      7  N   UNL d   1      14.366  13.472  -2.401  0.00  0.00    -0.208 NA
ATOM      8  N   UNL d   1      14.159  12.181  -1.793  0.00  0.00    -0.220 NA
ATOM      9  C   UNL d   1      14.194  12.662  -2.468  0.00  0.00     0.164 A 
ATOM     10  O   UNL d   1      14.938  15.210  -0.100  0.00  0.00    -0.244 OA
ENDROOT
BRANCH   2  11
ATOM     11  C   UNL d   1      14.772  15.221  -1.891  0.00  0.00     0.070 A 
ATOM     12  C   UNL d   1      14.291  15.312  -2.562  0.00  0.00     0.018 A 
ATOM     13  C   UNL d   1      14.372  15.961  -3.054  0.00  0.00     0.002 A 
ATOM     14  C   UNL d   1      14.943  16.523  -2.867  0.00  0.00     0.000 A 
ATOM     15  C   UNL d   1      15.423  16.442  -2.206  0.00  0.00     0.002 A 
ATOM     16  C   UNL d   1      15.032  17.186  -3.361  0.00  0.00     0.000 C 
ATOM     17  C   UNL d   1      15.335  15.789  -1.719  0.00  0.00     0.018 A 
ENDBRANCH   2  11
BRANCH   6  18
ATOM     18  C   UNL d   1      14.260  12.025  -0.383  0.00  0.00     0.316 C 
ATOM     19  O   UNL d   1      13.530  11.781  -0.078  0.00  0.00    -0.262 OA
ATOM     20  N   UNL d   1      14.969  11.782  -0.016  0.00  0.00    -0.101 N 
ENDBRANCH   6  18
BRANCH   9  21
ATOM     21  C   UNL d   1      14.057  12.334  -3.213  0.00  0.00     0.039 C 
BRANCH  21  22
ATOM     22  C   UNL d   1      13.325  12.437  -3.588  0.00  0.00     0.003 C 
ATOM     23  C   UNL d   1      12.977  13.185  -3.593  0.00  0.00     0.000 C 
ATOM     24  C   UNL d   1      12.960  11.798  -3.947  0.00  0.00     0.000 C 
ENDBRANCH  21  22
ENDBRANCH   9  21
TORSDOF 4
ENDMDL
MODEL 3
REMARK VINA RESULT:      42.1      1.591      2.713
REMARK  4 active torsions:
REMARK  status: ('A' for Active; 'I' for Inactive)
REMARK    1  A    between atoms: C_11  and  N_2 
REMARK    2  A    between atoms: C_10  and  C_6 
REMARK    3  A    between atoms: C_16  and  C_9 
REMARK    4  A    between atoms: C_21  and  C_16 
ROOT
ATOM      1  C   UNL d   1      14.654  14.802  -1.611  0.00  0.00     0.143 A 
ATOM      2  N   UNL d   1      14.116  14.143  -2.661  0.00  0.00    -0.242 N 
ATOM      3  C   UNL d   1      14.338  14.078  -1.861  0.00  0.00     0.172 A 
ATOM      4  C   UNL d   1      14.298  14.917  -2.904  0.00  0.00     0.355 A 
ATOM      5  N   UNL d   1      14.628  15.318  -2.257  0.00  0.00    -0.187 NA
ATOM      6  C   UNL d   1      14.918  14.897  -0.846  0.00  0.00     0.163 A 
ATOM      7  N   UNL d   1      14.289  13.441  -1.329  0.00  0.00    -0.208 NA
ATOM      8  N   UNL d   1      14.876  14.274  -0.308  0.00  0.00    -0.220 NA
ATOM      9  C   UNL d   1      14.562  13.546  -0.550  0.00  0.00     0.164 A 
ATOM     10  O   UNL d   1      14.169  15.224  -3.662  0.00  0.00    -0.244 OA
ENDROOT
BRANCH   2  11
ATOM     11  C   UNL d   1      13.781  13.554  -3.121  0.00  0.00     0.070 A 
ATOM     12  C   UNL d   1      13.240  13.747  -3.721  0.00  0.00     0.018 A 
ATOM     13  C   UNL d   1      12.900  13.165  -4.186  0.00  0.00     0.002 A 
ATOM     14  C   UNL d   1      13.109  12.382  -4.043  0.00  0.00     0.000 A 
ATOM     15  C   UNL d   1      13.643  12.181  -3.453  0.00  0.00     0.002 A 
ATOM     16  C   UNL d   1      12.769  11.783  -4.511  0.00  0.00     0.000 C 
ATOM     17  C   UNL d   1      13.978  12.771  -2.993  0.00  0.00     0.018 A 
ENDBRANCH   2  11
BRANCH   6  18
ATOM     18  C   UNL d   1      15.234  15.621  -0.597  0.00  0.00     0.316 C 
ATOM     19  O   UNL d   1      14.962  16.333  -0.921  0.00  0.00    -0.262 OA
ATOM     20  N   UNL d   1      15.831  15.627  -0.014  0.00  0.00    -0.101 N 
ENDBRANCH   6  18
BRANCH   9  21
ATOM     21  C   UNL d   1      14.518  12.921  -0.014  0.00  0.00     0.039 C 
BRANCH  21  22
ATOM     22  C   UNL d   1      14.350  12.153  -0.279  0.00  0.00     0.003 C 
ATOM     23  C   UNL d   1      14.878  11.779  -0.790  0.00  0.00     0.000 C 
ATOM     24  C   UNL d   1      13.665  11.779  -0.030  0.00  0.00     0.000 C 
ENDBRANCH  21  22
ENDBRANCH   9  21
TORSDOF 4
ENDMDL
MODEL 4
REMARK VINA RESULT:      42.9      1.550      3.505
REMARK  4 active torsions:
REMARK  status: ('A' for Active; 'I' for Inactive)
REMARK    1  A    between atoms: C_11  and  N_2 
REMARK    2  A    between atoms: C_10  and  C_6 
REMARK    3  A    between atoms: C_16  and  C_9 
REMARK    4  A    between atoms: C_21  and  C_16 
ROOT
ATOM      1  C   UNL d   1      13.858  13.427  -3.257  0.00  0.00     0.143 A 
ATOM      2  N   UNL d   1      14.318  14.505  -2.583  0.00  0.00    -0.242 N 
ATOM      3  C   UNL d   1      14.197  13.682  -2.544  0.00  0.00     0.172 A 
ATOM      4  C   UNL d   1      14.050  14.757  -3.329  0.00  0.00     0.355 A 
ATOM      5  N   UNL d   1      13.769  14.093  -3.739  0.00  0.00    -0.187 NA
ATOM      6  C   UNL d   1      13.679  12.640  -3.371  0.00  0.00     0.163 A 
ATOM      7  N   UNL d   1      14.356  13.133  -1.940  0.00  0.00    -0.208 NA
ATOM      8  N   UNL d   1      13.831  12.086  -2.782  0.00  0.00    -0.220 NA
ATOM      9  C   UNL d   1      14.170  12.332  -2.067  0.00  0.00     0.164 A 
ATOM     10  O   UNL d   1      14.065  15.538  -3.605  0.00  0.00    -0.244 OA
ENDROOT
BRANCH   2  11
ATOM     11  C   UNL d   1      14.640  14.976  -1.997  0.00  0.00     0.070 A 
ATOM     12  C   UNL d   1      14.632  15.804  -2.071  0.00  0.00     0.018 A 
ATOM     13  C   UNL d   1      14.952  16.283  -1.489  0.00  0.00     0.002 A 
ATOM     14  C   UNL d   1      15.283  15.923  -0.828  0.00  0.00     0.000 A 
ATOM     15  C   UNL d   1      15.296  15.107  -0.745  0.00  0.00     0.002 A 
ATOM     16  C   UNL d   1      15.611  16.403  -0.231  0.00  0.00     0.000 C 
ATOM     17  C   UNL d   1      14.973  14.636  -1.332  0.00  0.00     0.018 A 
ENDBRANCH   2  11
BRANCH   6  18
ATOM     18  C   UNL d   1      13.341  12.387  -4.083  0.00  0.00     0.316 C 
ATOM     19  O   UNL d   1      13.565  12.729  -4.803  0.00  0.00    -0.262 OA
ATOM     20  N   UNL d   1      12.769  11.779  -4.070  0.00  0.00    -0.101 N 
ENDBRANCH   6  18
BRANCH   9  21
ATOM     21  C   UNL d   1      14.324  11.779  -1.474  0.00  0.00     0.039 C 
BRANCH  21  22
ATOM     22  C   UNL d   1      14.027  11.892  -0.708  0.00  0.00     0.003 C 
ATOM     23  C   UNL d   1      13.222  11.780  -0.567  0.00  0.00     0.000 C 
ATOM     24  C   UNL d   1      14.536  12.113  -0.106  0.00  0.00     0.000 C 
ENDBRANCH  21  22
ENDBRANCH   9  21
TORSDOF 4
ENDMDL
