MODEL 1
REMARK VINA RESULT:      57.7      0.000      0.000
REMARK  5 active torsions:
REMARK  status: ('A' for Active; 'I' for Inactive)
REMARK    1  A    between atoms: O_8  and  C_1 
REMARK    2  A    between atoms: C_10  and  C_5 
REMARK    3  A    between atoms: C_12  and  O_8 
REMARK    4  A    between atoms: N_9  and  C_10 
REMARK    5  A    between atoms: O_24  and  C_17 
ROOT
ATOM      1  C   UNL d   1      13.699  12.623  -2.499  0.00  0.00     0.161 A 
ATOM      2  C   UNL d   1      13.476  13.965  -3.453  0.00  0.00     0.108 A 
ATOM      3  C   UNL d   1      13.274  13.207  -3.743  0.00  0.00     0.064 A 
ATOM      4  C   UNL d   1      13.384  12.543  -3.272  0.00  0.00     0.222 A 
ATOM      5  C   UNL d   1      13.365  14.637  -3.929  0.00  0.00     0.079 A 
ATOM      6  O   UNL d   1      13.789  14.055  -2.689  0.00  0.00    -0.305 OA
ATOM      7  C   UNL d   1      13.900  13.376  -2.212  0.00  0.00     0.126 A 
ATOM      8  C   UNL d   1      12.962  13.137  -4.511  0.00  0.00     0.009 A 
ATOM      9  C   UNL d   1      13.053  14.550  -4.691  0.00  0.00     0.199 A 
ATOM     10  O   UNL d   1      13.186  11.794  -3.554  0.00  0.00    -0.284 OA
ATOM     11  C   UNL d   1      12.853  13.804  -4.980  0.00  0.00     0.042 A 
ATOM     12  O   UNL d   1      12.944  15.218  -5.160  0.00  0.00    -0.286 OA
ATOM     13  C   UNL d   1      14.209  13.454  -1.453  0.00  0.00     0.029 C 
ENDROOT
BRANCH   1  14
ATOM     14  O   UNL d   1      13.808  11.956  -2.030  0.00  0.00    -0.300 OA
BRANCH  14  15
ATOM     15  C   UNL d   1      14.400  11.950  -1.457  0.00  0.00     0.122 A 
ATOM     16  C   UNL d   1      14.193  11.864  -0.661  0.00  0.00     0.117 A 
ATOM     17  C   UNL d   1      14.781  11.856  -0.087  0.00  0.00     0.026 A 
ATOM     18  C   UNL d   1      15.574  11.934  -0.302  0.00  0.00     0.002 A 
ATOM     19  C   UNL d   1      15.775  12.020  -1.105  0.00  0.00     0.002 A 
ATOM     20  C   UNL d   1      15.183  12.027  -1.677  0.00  0.00     0.027 A 
BRANCH  16  21
ATOM     21  O   UNL d   1      13.409  11.786  -0.445  0.00  0.00    -0.326 OA
ATOM     22  C   UNL d   1      13.034  12.384  -0.015  0.00  0.00     0.181 C 
ENDBRANCH  16  21
ENDBRANCH  14  15
ENDBRANCH   1  14
BRANCH   5  23
ATOM     23  C   UNL d   1      13.562  15.371  -3.645  0.00  0.00     0.086 C 
BRANCH  23  24
ATOM     24  N   UNL d   1      14.233  15.760  -3.934  0.00  0.00    -0.300 N 
ATOM     25  C   UNL d   1      14.375  15.776  -4.747  0.00  0.00     0.100 A 
ATOM     26  C   UNL d   1      15.042  16.163  -5.036  0.00  0.00     0.100 A 
ATOM     27  N   UNL d   1      15.565  16.532  -4.514  0.00  0.00    -0.299 N 
ATOM     28  C   UNL d   1      15.419  16.513  -3.702  0.00  0.00     0.100 A 
ATOM     29  C   UNL d   1      16.232  16.919  -4.803  0.00  0.00     0.100 C 
ATOM     30  C   UNL d   1      14.749  16.125  -3.412  0.00  0.00     0.100 A 
ENDBRANCH  23  24
ENDBRANCH   5  23
TORSDOF 5
ENDMDL
