MODEL 1
REMARK VINA RESULT:      -1.2      0.000      0.000
REMARK  5 active torsions:
REMARK  status: ('A' for Active; 'I' for Inactive)
REMARK    1  A    between atoms: C_2  and  C_1 
REMARK    2  A    between atoms: O_16  and  C_13 
REMARK    3  A    between atoms: C_21  and  O_16 
REMARK    4  A    between atoms: O_22  and  C_17 
REMARK    5  A    between atoms: C_20  and  C_21 
ROOT
ATOM      1  C   UNL d   1      33.236  21.510 -23.018  0.00  0.00     0.030 A 
ATOM      2  C   UNL d   1      33.237  20.852 -23.515  0.00  0.00     0.027 A 
ATOM      3  C   UNL d   1      33.236  20.959 -24.335  0.00  0.00     0.103 A 
ATOM      4  O   UNL d   1      33.235  21.718 -24.655  0.00  0.00    -0.273 OA
ATOM      5  C   UNL d   1      33.234  22.376 -24.158  0.00  0.00     0.300 A 
ATOM      6  C   UNL d   1      33.235  22.269 -23.339  0.00  0.00     0.071 A 
ATOM      7  C   UNL d   1      33.239  20.082 -23.201  0.00  0.00     0.027 A 
ATOM      8  C   UNL d   1      33.239  19.441 -23.707  0.00  0.00     0.100 A 
ATOM      9  C   UNL d   1      33.237  20.301 -24.838  0.00  0.00     0.027 A 
ATOM     10  C   UNL d   1      33.239  19.543 -24.526  0.00  0.00     0.025 A 
ATOM     11  O   UNL d   1      33.232  23.135 -24.469  0.00  0.00    -0.259 OA
ATOM     12  C   UNL d   1      33.239  18.895 -25.022  0.00  0.00     0.002 C 
ENDROOT
BRANCH   1  13
ATOM     13  C   UNL d   1      33.237  21.397 -22.200  0.00  0.00     0.100 A 
ATOM     14  O   UNL d   1      33.237  21.999 -21.635  0.00  0.00    -0.305 OA
ATOM     15  C   UNL d   1      33.238  21.650 -20.889  0.00  0.00     0.122 A 
ATOM     16  C   UNL d   1      33.238  21.966 -20.130  0.00  0.00     0.117 A 
ATOM     17  C   UNL d   1      33.239  20.832 -20.991  0.00  0.00     0.027 A 
ATOM     18  C   UNL d   1      33.239  21.475 -19.477  0.00  0.00     0.026 A 
ATOM     19  C   UNL d   1      33.241  20.655 -19.573  0.00  0.00     0.002 A 
ATOM     20  C   UNL d   1      33.241  20.334 -20.333  0.00  0.00     0.002 A 
ATOM     21  C   UNL d   1      33.239  20.676 -21.799  0.00  0.00     0.027 A 
BRANCH  16  22
ATOM     22  O   UNL d   1      33.236  22.775 -20.030  0.00  0.00    -0.326 OA
ATOM     23  C   UNL d   1      32.920  23.105 -19.344  0.00  0.00     0.181 C 
ENDBRANCH  16  22
ENDBRANCH   1  13
BRANCH   8  24
ATOM     24  O   UNL d   1      33.241  18.676 -23.386  0.00  0.00    -0.302 OA
BRANCH  24  25
ATOM     25  C   UNL d   1      32.528  18.278 -23.269  0.00  0.00     0.165 C 
BRANCH  25  26
ATOM     26  C   UNL d   1      32.527  17.507 -22.987  0.00  0.00     0.220 C 
ATOM     27  O   UNL d   1      33.215  17.189 -22.663  0.00  0.00    -0.284 OA
ATOM     28  C   UNL d   1      31.855  17.056 -23.025  0.00  0.00     0.048 C 
ENDBRANCH  25  26
ENDBRANCH  24  25
ENDBRANCH   8  24
TORSDOF 5
ENDMDL
MODEL 2
REMARK VINA RESULT:      -0.9      1.070      3.128
REMARK  5 active torsions:
REMARK  status: ('A' for Active; 'I' for Inactive)
REMARK    1  A    between atoms: C_2  and  C_1 
REMARK    2  A    between atoms: O_16  and  C_13 
REMARK    3  A    between atoms: C_21  and  O_16 
REMARK    4  A    between atoms: O_22  and  C_17 
REMARK    5  A    between atoms: C_20  and  C_21 
ROOT
ATOM      1  C   UNL d   1      33.233  20.404 -21.813  0.00  0.00     0.030 A 
ATOM      2  C   UNL d   1      33.235  20.476 -22.635  0.00  0.00     0.027 A 
ATOM      3  C   UNL d   1      33.235  19.796 -23.104  0.00  0.00     0.103 A 
ATOM      4  O   UNL d   1      33.233  19.049 -22.756  0.00  0.00    -0.273 OA
ATOM      5  C   UNL d   1      33.231  18.977 -21.935  0.00  0.00     0.300 A 
ATOM      6  C   UNL d   1      33.231  19.657 -21.465  0.00  0.00     0.071 A 
ATOM      7  C   UNL d   1      33.237  21.225 -22.995  0.00  0.00     0.027 A 
ATOM      8  C   UNL d   1      33.239  21.280 -23.810  0.00  0.00     0.100 A 
ATOM      9  C   UNL d   1      33.237  19.864 -23.930  0.00  0.00     0.027 A 
ATOM     10  C   UNL d   1      33.239  20.604 -24.283  0.00  0.00     0.025 A 
ATOM     11  O   UNL d   1      33.229  18.238 -21.580  0.00  0.00    -0.259 OA
ATOM     12  C   UNL d   1      33.241  20.669 -25.097  0.00  0.00     0.002 C 
ENDROOT
BRANCH   1  13
ATOM     13  C   UNL d   1      33.233  21.086 -21.349  0.00  0.00     0.100 A 
ATOM     14  O   UNL d   1      33.228  21.103 -20.523  0.00  0.00    -0.305 OA
ATOM     15  C   UNL d   1      33.230  21.890 -20.282  0.00  0.00     0.122 A 
ATOM     16  C   UNL d   1      33.226  22.241 -19.539  0.00  0.00     0.117 A 
ATOM     17  C   UNL d   1      33.236  22.363 -20.957  0.00  0.00     0.027 A 
ATOM     18  C   UNL d   1      33.230  23.055 -19.465  0.00  0.00     0.026 A 
ATOM     19  C   UNL d   1      33.236  23.534 -20.138  0.00  0.00     0.002 A 
ATOM     20  C   UNL d   1      33.239  23.185 -20.886  0.00  0.00     0.002 A 
ATOM     21  C   UNL d   1      33.238  21.867 -21.615  0.00  0.00     0.027 A 
BRANCH  16  22
ATOM     22  O   UNL d   1      33.220  21.774 -18.871  0.00  0.00    -0.326 OA
ATOM     23  C   UNL d   1      33.180  22.121 -18.124  0.00  0.00     0.181 C 
ENDBRANCH  16  22
ENDBRANCH   1  13
BRANCH   8  24
ATOM     24  O   UNL d   1      33.241  22.030 -24.162  0.00  0.00    -0.302 OA
BRANCH  24  25
ATOM     25  C   UNL d   1      32.527  22.418 -24.306  0.00  0.00     0.165 C 
BRANCH  25  26
ATOM     26  C   UNL d   1      32.524  23.214 -24.511  0.00  0.00     0.220 C 
ATOM     27  O   UNL d   1      33.223  23.578 -24.752  0.00  0.00    -0.284 OA
ATOM     28  C   UNL d   1      31.838  23.644 -24.478  0.00  0.00     0.048 C 
ENDBRANCH  25  26
ENDBRANCH  24  25
ENDBRANCH   8  24
TORSDOF 5
ENDMDL
