MODEL 1
REMARK VINA RESULT:      98.6      0.000      0.000
REMARK  4 active torsions:
REMARK  status: ('A' for Active; 'I' for Inactive)
REMARK    1  A    between atoms: C_7  and  C_1 
REMARK    2  A    between atoms: C_12  and  C_6 
REMARK       I    between atoms: N_11  and  C_7 
REMARK    3  A    between atoms: C_20  and  N_11 
REMARK       I    between atoms: C_13  and  N_14 
REMARK    4  A    between atoms: N_14  and  C_21 
ROOT
ATOM      1  C   UNL d   1      13.696  15.232  -3.541  0.00  0.00     0.108 A 
ATOM      2  C   UNL d   1      13.566  14.022  -3.664  0.00  0.00     0.044 A 
ATOM      3  C   UNL d   1      13.788  14.586  -3.225  0.00  0.00     0.116 A 
ATOM      4  C   UNL d   1      13.311  14.325  -4.316  0.00  0.00     0.112 A 
ATOM      5  S   UNL d   1      13.389  15.085  -4.246  0.00  0.00    -0.061 SA
ATOM      6  C   UNL d   1      13.557  13.250  -3.566  0.00  0.00     0.005 A 
ATOM      7  N   UNL d   1      13.038  13.868  -4.892  0.00  0.00    -0.239 NA
ATOM      8  C   UNL d   1      13.289  12.789  -4.130  0.00  0.00     0.018 A 
ATOM      9  C   UNL d   1      13.034  13.093  -4.782  0.00  0.00     0.082 A 
ATOM     10  N   UNL d   1      14.146  14.538  -2.368  0.00  0.00    -0.147 N 
ATOM     11  C   UNL d   1      13.218  11.949  -4.168  0.00  0.00     0.002 A 
ATOM     12  C   UNL d   1      12.781  12.533  -5.295  0.00  0.00     0.019 A 
ATOM     13  C   UNL d   1      12.903  11.779  -4.889  0.00  0.00     0.002 A 
ENDROOT
BRANCH   1  14
ATOM     14  C   UNL d   1      13.903  16.154  -3.193  0.00  0.00     0.287 C 
ATOM     15  N   UNL d   1      14.518  16.927  -3.243  0.00  0.00    -0.208 NA
ATOM     16  O   UNL d   1      13.258  16.368  -2.571  0.00  0.00    -0.265 OA
BRANCH  15  17
ATOM     17  C   UNL d   1      15.175  16.910  -3.765  0.00  0.00     0.085 A 
ATOM     18  C   UNL d   1      15.933  16.822  -3.441  0.00  0.00     0.021 A 
ATOM     19  C   UNL d   1      16.604  16.802  -3.947  0.00  0.00     0.021 A 
ATOM     20  C   UNL d   1      16.513  16.872  -4.772  0.00  0.00     0.085 A 
ATOM     21  C   UNL d   1      15.755  16.960  -5.086  0.00  0.00     0.021 A 
ATOM     22  C   UNL d   1      15.088  16.979  -4.585  0.00  0.00     0.021 A 
BRANCH  20  23
ATOM     23  N   UNL d   1      17.332  16.846  -5.360  0.00  0.00    -0.208 NA
ATOM     24  C   UNL d   1      17.628  15.741  -5.726  0.00  0.00     0.279 C 
ATOM     25  O   UNL d   1      18.543  15.691  -6.386  0.00  0.00    -0.265 OA
ATOM     26  C   UNL d   1      17.062  14.516  -5.495  0.00  0.00     0.068 C 
ENDBRANCH  20  23
ENDBRANCH  15  17
ENDBRANCH   1  14
BRANCH   6  27
ATOM     27  C   UNL d   1      13.830  12.925  -2.869  0.00  0.00     0.000 A 
ATOM     28  C   UNL d   1      14.629  12.967  -2.691  0.00  0.00     0.000 A 
ATOM     29  C   UNL d   1      14.901  12.642  -1.994  0.00  0.00     0.000 A 
ATOM     30  C   UNL d   1      14.401  12.272  -1.461  0.00  0.00     0.000 A 
ATOM     31  C   UNL d   1      13.610  12.229  -1.634  0.00  0.00     0.000 A 
ATOM     32  C   UNL d   1      14.765  11.780  -0.423  0.00  0.00     0.000 C 
ATOM     33  C   UNL d   1      13.308  12.552  -2.337  0.00  0.00     0.000 A 
ENDBRANCH   6  27
TORSDOF 4
ENDMDL
MODEL 2
REMARK VINA RESULT:     101.0      1.203      2.605
REMARK  4 active torsions:
REMARK  status: ('A' for Active; 'I' for Inactive)
REMARK    1  A    between atoms: C_7  and  C_1 
REMARK    2  A    between atoms: C_12  and  C_6 
REMARK       I    between atoms: N_11  and  C_7 
REMARK    3  A    between atoms: C_20  and  N_11 
REMARK       I    between atoms: C_13  and  N_14 
REMARK    4  A    between atoms: N_14  and  C_21 
ROOT
ATOM      1  C   UNL d   1      14.517  15.336  -1.718  0.00  0.00     0.108 A 
ATOM      2  C   UNL d   1      14.477  14.117  -1.620  0.00  0.00     0.044 A 
ATOM      3  C   UNL d   1      14.341  14.716  -2.049  0.00  0.00     0.116 A 
ATOM      4  C   UNL d   1      14.763  14.370  -0.960  0.00  0.00     0.112 A 
ATOM      5  S   UNL d   1      14.791  15.134  -1.013  0.00  0.00    -0.061 SA
ATOM      6  C   UNL d   1      14.380  13.354  -1.735  0.00  0.00     0.005 A 
ATOM      7  N   UNL d   1      14.962  13.868  -0.391  0.00  0.00    -0.239 NA
ATOM      8  C   UNL d   1      14.575  12.849  -1.178  0.00  0.00     0.018 A 
ATOM      9  C   UNL d   1      14.861  13.101  -0.517  0.00  0.00     0.082 A 
ATOM     10  N   UNL d   1      13.991  14.735  -2.911  0.00  0.00    -0.147 N 
ATOM     11  C   UNL d   1      14.528  12.007  -1.158  0.00  0.00     0.002 A 
ATOM     12  C   UNL d   1      15.026  12.501  -0.014  0.00  0.00     0.019 A 
ATOM     13  C   UNL d   1      14.807  11.781  -0.437  0.00  0.00     0.002 A 
ENDROOT
BRANCH   1  14
ATOM     14  C   UNL d   1      14.444  16.285  -2.049  0.00  0.00     0.287 C 
ATOM     15  N   UNL d   1      14.643  16.909  -2.790  0.00  0.00    -0.208 NA
ATOM     16  O   UNL d   1      14.018  16.776  -1.396  0.00  0.00    -0.265 OA
BRANCH  15  17
ATOM     17  C   UNL d   1      15.034  16.634  -3.480  0.00  0.00     0.085 A 
ATOM     18  C   UNL d   1      15.847  16.475  -3.435  0.00  0.00     0.021 A 
ATOM     19  C   UNL d   1      16.256  16.199  -4.115  0.00  0.00     0.021 A 
ATOM     20  C   UNL d   1      15.852  16.083  -4.834  0.00  0.00     0.085 A 
ATOM     21  C   UNL d   1      15.043  16.243  -4.869  0.00  0.00     0.021 A 
ATOM     22  C   UNL d   1      14.635  16.517  -4.195  0.00  0.00     0.021 A 
BRANCH  20  23
ATOM     23  N   UNL d   1      16.363  15.751  -5.637  0.00  0.00    -0.208 NA
ATOM     24  C   UNL d   1      17.555  15.754  -5.484  0.00  0.00     0.279 C 
ATOM     25  O   UNL d   1      18.146  15.385  -6.373  0.00  0.00    -0.265 OA
ATOM     26  C   UNL d   1      18.343  16.124  -4.428  0.00  0.00     0.068 C 
ENDBRANCH  20  23
ENDBRANCH  15  17
ENDBRANCH   1  14
BRANCH   6  27
ATOM     27  C   UNL d   1      14.075  13.084  -2.442  0.00  0.00     0.000 A 
ATOM     28  C   UNL d   1      13.277  13.186  -2.600  0.00  0.00     0.000 A 
ATOM     29  C   UNL d   1      12.971  12.916  -3.306  0.00  0.00     0.000 A 
ATOM     30  C   UNL d   1      13.437  12.543  -3.869  0.00  0.00     0.000 A 
ATOM     31  C   UNL d   1      14.226  12.441  -3.715  0.00  0.00     0.000 A 
ATOM     32  C   UNL d   1      13.023  12.131  -4.922  0.00  0.00     0.000 C 
ATOM     33  C   UNL d   1      14.562  12.707  -3.004  0.00  0.00     0.000 A 
ENDBRANCH   6  27
TORSDOF 4
ENDMDL
