MODEL 1
REMARK VINA RESULT:     148.4      0.000      0.000
REMARK  5 active torsions:
REMARK  status: ('A' for Active; 'I' for Inactive)
REMARK    1  A    between atoms: C_5  and  C_1 
REMARK    2  A    between atoms: N_7  and  C_5 
REMARK    3  A    between atoms: C_10  and  C_5 
REMARK    4  A    between atoms: C_16  and  C_19 
REMARK    5  A    between atoms: C_20  and  C_16 
ROOT
ATOM      1  C   UNL d   1      60.885  44.778  50.223  0.00  0.00     0.085 C 
ENDROOT
BRANCH   1   2
ATOM      2  C   UNL d   1      61.459  44.175  50.376  0.00  0.00     0.059 A 
ATOM      3  C   UNL d   1      61.447  43.749  51.097  0.00  0.00     0.214 A 
ATOM      4  C   UNL d   1      62.017  43.161  51.231  0.00  0.00     0.121 A 
ATOM      5  O   UNL d   1      60.883  43.907  51.667  0.00  0.00    -0.285 OA
ATOM      6  N   UNL d   1      62.011  42.741  51.934  0.00  0.00    -0.241 NA
ATOM      7  C   UNL d   1      62.592  43.000  50.650  0.00  0.00     0.032 A 
ATOM      8  C   UNL d   1      62.592  42.150  52.056  0.00  0.00     0.099 A 
ATOM      9  C   UNL d   1      63.145  41.995  51.498  0.00  0.00     0.021 A 
ATOM     10  C   UNL d   1      63.154  42.421  50.779  0.00  0.00     0.004 A 
ATOM     11  C   UNL d   1      62.590  43.430  49.942  0.00  0.00     0.059 A 
ATOM     12  C   UNL d   1      62.012  44.020  49.817  0.00  0.00     0.016 A 
ATOM     13 CL   UNL d   1      63.157  43.272  49.369  0.00  0.00    -0.082 Cl
ENDBRANCH   1   2
BRANCH   1  14
ATOM     14  N   UNL d   1      61.067  45.569  50.371  0.00  0.00    -0.302 N 
ATOM     15  C   UNL d   1      61.442  46.035  49.794  0.00  0.00     0.080 A 
ATOM     16  C   UNL d   1      61.624  46.826  49.942  0.00  0.00     0.019 A 
ATOM     17  C   UNL d   1      61.432  47.160  50.667  0.00  0.00     0.003 A 
ATOM     18  C   UNL d   1      61.059  46.702  51.246  0.00  0.00     0.019 A 
ATOM     19  C   UNL d   1      60.879  45.919  51.100  0.00  0.00     0.080 A 
BRANCH  17  20
ATOM     20  C   UNL d   1      61.612  47.943  50.814  0.00  0.00     0.000 C 
BRANCH  20  21
ATOM     21  C   UNL d   1      61.029  48.507  50.793  0.00  0.00     0.000 A 
ATOM     22  C   UNL d   1      60.643  48.676  50.089  0.00  0.00     0.000 A 
ATOM     23  C   UNL d   1      60.055  49.243  50.064  0.00  0.00     0.000 A 
ATOM     24  C   UNL d   1      59.850  49.648  50.753  0.00  0.00     0.000 A 
ATOM     25  C   UNL d   1      60.232  49.483  51.459  0.00  0.00     0.000 A 
ATOM     26  C   UNL d   1      60.831  48.904  51.482  0.00  0.00     0.000 A 
ENDBRANCH  20  21
ENDBRANCH  17  20
ENDBRANCH   1  14
BRANCH   1  27
ATOM     27  C   UNL d   1      60.125  44.567  49.918  0.00  0.00     0.098 A 
ATOM     28  N   UNL d   1      60.061  44.319  49.126  0.00  0.00    -0.243 NA
ATOM     29  C   UNL d   1      59.326  44.114  48.828  0.00  0.00     0.099 A 
ATOM     30  C   UNL d   1      58.664  44.155  49.314  0.00  0.00     0.021 A 
ATOM     31  C   UNL d   1      58.722  44.400  50.102  0.00  0.00     0.003 A 
ATOM     32  C   UNL d   1      59.456  44.605  50.400  0.00  0.00     0.021 A 
ENDBRANCH   1  27
TORSDOF 5
ENDMDL
