MODEL 1
REMARK VINA RESULT:      63.5      0.000      0.000
REMARK  3 active torsions:
REMARK  status: ('A' for Active; 'I' for Inactive)
REMARK    1  A    between atoms: N_11  and  C_1 
REMARK    2  A    between atoms: N_5  and  C_4 
REMARK    3  A    between atoms: C_7  and  C_10 
REMARK       I    between atoms: C_10  and  N_12 
ROOT
ATOM      1  C   UNL d   1      13.306  12.361  -3.314  0.00  0.00     0.288 C 
ATOM      2  N   UNL d   1      13.735  14.579  -4.337  0.00  0.00    -0.281 N 
ATOM      3  N   UNL d   1      13.451  13.106  -3.655  0.00  0.00    -0.267 N 
ATOM      4  C   UNL d   1      13.983  14.425  -3.573  0.00  0.00     0.101 A 
ATOM      5  C   UNL d   1      13.341  13.992  -4.765  0.00  0.00     0.101 A 
ATOM      6  C   UNL d   1      13.845  13.694  -3.226  0.00  0.00     0.102 A 
ATOM      7  C   UNL d   1      13.195  13.251  -4.431  0.00  0.00     0.102 A 
ATOM      8  O   UNL d   1      12.916  11.779  -3.738  0.00  0.00    -0.264 OA
ENDROOT
BRANCH   2   9
ATOM      9  C   UNL d   1      13.872  15.310  -4.683  0.00  0.00     0.179 A 
ATOM     10  N   UNL d   1      13.381  15.683  -5.235  0.00  0.00    -0.222 NA
ATOM     11  C   UNL d   1      13.719  16.402  -5.441  0.00  0.00     0.089 A 
ATOM     12  C   UNL d   1      13.484  16.991  -5.951  0.00  0.00     0.018 A 
ATOM     13  C   UNL d   1      14.423  16.479  -5.016  0.00  0.00     0.050 A 
ATOM     14  C   UNL d   1      13.942  17.663  -6.048  0.00  0.00     0.002 A 
ATOM     15  C   UNL d   1      12.780  16.914  -6.376  0.00  0.00     0.002 C 
ATOM     16  C   UNL d   1      14.645  17.740  -5.624  0.00  0.00     0.001 A 
ATOM     17  C   UNL d   1      14.881  17.141  -5.106  0.00  0.00     0.007 A 
ATOM     18  C   UNL d   1      15.582  17.219  -4.685  0.00  0.00     0.001 C 
ATOM     19  S   UNL d   1      14.521  15.814  -4.551  0.00  0.00    -0.048 SA
ENDBRANCH   2   9
BRANCH   1  20
ATOM     20  C   UNL d   1      13.562  12.219  -2.541  0.00  0.00     0.158 A 
ATOM     21  O   UNL d   1      14.271  12.488  -2.201  0.00  0.00    -0.281 OA
ATOM     22  C   UNL d   1      14.288  12.210  -1.419  0.00  0.00     0.228 A 
ATOM     23  C   UNL d   1      13.599  11.780  -1.293  0.00  0.00     0.051 A 
ATOM     24  C   UNL d   1      13.154  11.788  -1.987  0.00  0.00     0.034 A 
BRANCH  22  25
ATOM     25  N   UNL d   1      14.888  12.339  -0.861  0.00  0.00    -0.089 N 
ATOM     26  O   UNL d   1      14.686  12.443  -0.051  0.00  0.00    -0.530 OA
ATOM     27  O   UNL d   1      15.675  12.367  -1.088  0.00  0.00    -0.530 OA
ENDBRANCH  22  25
ENDBRANCH   1  20
TORSDOF 3
ENDMDL
