MODEL 1
REMARK VINA RESULT:       5.5      0.000      0.000
REMARK  6 active torsions:
REMARK  status: ('A' for Active; 'I' for Inactive)
REMARK    1  A    between atoms: C_9  and  S_1 
REMARK    2  A    between atoms: N_10  and  S_1 
REMARK    3  A    between atoms: C_2  and  N_6 
REMARK       I    between atoms: N_6  and  C_8 
REMARK    4  A    between atoms: C_8  and  C_15 
REMARK    5  A    between atoms: O_24  and  C_13 
REMARK    6  A    between atoms: O_23  and  C_14 
ROOT
ATOM      1  N   UNL d   1      58.171  -0.072  28.474  0.00  0.00    -0.183 NA
ATOM      2  C   UNL d   1      57.479   0.139  28.879  0.00  0.00     0.281 C 
ATOM      3  O   UNL d   1      56.841   0.441  28.455  0.00  0.00    -0.265 OA
ENDROOT
BRANCH   1   4
ATOM      4  C   UNL d   1      58.825  -0.379  28.894  0.00  0.00     0.197 A 
ATOM      5  N   UNL d   1      59.405   0.061  29.278  0.00  0.00    -0.218 NA
ATOM      6  C   UNL d   1      59.938  -0.466  29.616  0.00  0.00     0.114 A 
ATOM      7  C   UNL d   1      60.620  -0.356  30.061  0.00  0.00     0.112 A 
ATOM      8  C   UNL d   1      59.684  -1.229  29.439  0.00  0.00     0.074 A 
ATOM      9  C   UNL d   1      61.053  -1.004  30.332  0.00  0.00     0.028 A 
ATOM     10  C   UNL d   1      60.791  -1.772  30.149  0.00  0.00     0.027 A 
ATOM     11  C   UNL d   1      60.113  -1.884  29.706  0.00  0.00     0.102 A 
ATOM     12  S   UNL d   1      58.991  -1.167  28.989  0.00  0.00    -0.045 SA
BRANCH   7  13
ATOM     13  O   UNL d   1      60.883   0.415  30.245  0.00  0.00    -0.327 OA
ATOM     14  C   UNL d   1      60.994   0.636  31.032  0.00  0.00     0.181 C 
ENDBRANCH   7  13
BRANCH  11  15
ATOM     15  O   UNL d   1      59.849  -2.655  29.522  0.00  0.00    -0.328 OA
ATOM     16  C   UNL d   1      60.381  -3.210  29.229  0.00  0.00     0.181 C 
ENDBRANCH  11  15
ENDBRANCH   1   4
BRANCH   2  17
ATOM     17  C   UNL d   1      57.445   0.044  29.682  0.00  0.00     0.058 A 
ATOM     18  C   UNL d   1      57.306   0.682  30.177  0.00  0.00     0.005 A 
ATOM     19  C   UNL d   1      57.272   0.585  30.993  0.00  0.00     0.013 A 
ATOM     20  C   UNL d   1      57.380  -0.169  31.321  0.00  0.00     0.104 A 
ATOM     21  C   UNL d   1      57.521  -0.817  30.827  0.00  0.00     0.013 A 
ATOM     22  C   UNL d   1      57.553  -0.709  30.010  0.00  0.00     0.005 A 
BRANCH  20  23
ATOM     23  S   UNL d   1      57.346  -0.270  32.139  0.00  0.00     0.271 S 
ATOM     24  O   UNL d   1      56.651  -0.712  32.053  0.00  0.00    -0.200 OA
ATOM     25  O   UNL d   1      58.038   0.170  32.218  0.00  0.00    -0.200 OA
BRANCH  23  26
ATOM     26  N   UNL d   1      57.316  -0.369  32.955  0.00  0.00    -0.226 N 
ATOM     27  C   UNL d   1      57.890  -0.034  33.432  0.00  0.00     0.111 C 
ATOM     28  C   UNL d   1      56.705  -0.808  33.289  0.00  0.00     0.111 C 
ENDBRANCH  23  26
ENDBRANCH  20  23
ENDBRANCH   2  17
TORSDOF 6
ENDMDL
MODEL 2
REMARK VINA RESULT:       7.0      1.206      3.752
REMARK  6 active torsions:
REMARK  status: ('A' for Active; 'I' for Inactive)
REMARK    1  A    between atoms: C_9  and  S_1 
REMARK    2  A    between atoms: N_10  and  S_1 
REMARK    3  A    between atoms: C_2  and  N_6 
REMARK       I    between atoms: N_6  and  C_8 
REMARK    4  A    between atoms: C_8  and  C_15 
REMARK    5  A    between atoms: O_24  and  C_13 
REMARK    6  A    between atoms: O_23  and  C_14 
ROOT
ATOM      1  N   UNL d   1      57.227   0.682  29.860  0.00  0.00    -0.183 NA
ATOM      2  C   UNL d   1      57.647   0.364  29.219  0.00  0.00     0.281 C 
ATOM      3  O   UNL d   1      57.463   0.610  28.455  0.00  0.00    -0.265 OA
ENDROOT
BRANCH   1   4
ATOM      4  C   UNL d   1      57.405   0.439  30.639  0.00  0.00     0.197 A 
ATOM      5  N   UNL d   1      56.926  -0.023  31.124  0.00  0.00    -0.218 NA
ATOM      6  C   UNL d   1      57.318  -0.125  31.839  0.00  0.00     0.114 A 
ATOM      7  C   UNL d   1      57.120  -0.527  32.528  0.00  0.00     0.112 A 
ATOM      8  C   UNL d   1      58.037   0.274  31.792  0.00  0.00     0.074 A 
ATOM      9  C   UNL d   1      57.634  -0.534  33.173  0.00  0.00     0.028 A 
ATOM     10  C   UNL d   1      58.359  -0.129  33.119  0.00  0.00     0.027 A 
ATOM     11  C   UNL d   1      58.558   0.272  32.434  0.00  0.00     0.102 A 
ATOM     12  S   UNL d   1      58.083   0.623  31.041  0.00  0.00    -0.045 SA
BRANCH   7  13
ATOM     13  O   UNL d   1      56.392  -0.934  32.584  0.00  0.00    -0.327 OA
ATOM     14  C   UNL d   1      56.040  -1.052  33.320  0.00  0.00     0.181 C 
ENDBRANCH   7  13
BRANCH  11  15
ATOM     15  O   UNL d   1      59.286   0.679  32.379  0.00  0.00    -0.328 OA
ATOM     16  C   UNL d   1      59.867   0.557  32.948  0.00  0.00     0.181 C 
ENDBRANCH  11  15
ENDBRANCH   1   4
BRANCH   2  17
ATOM     17  C   UNL d   1      58.228  -0.181  29.358  0.00  0.00     0.058 A 
ATOM     18  C   UNL d   1      58.053  -0.980  29.412  0.00  0.00     0.005 A 
ATOM     19  C   UNL d   1      58.644  -1.534  29.553  0.00  0.00     0.013 A 
ATOM     20  C   UNL d   1      59.429  -1.282  29.643  0.00  0.00     0.104 A 
ATOM     21  C   UNL d   1      59.612  -0.478  29.589  0.00  0.00     0.013 A 
ATOM     22  C   UNL d   1      59.013   0.070  29.447  0.00  0.00     0.005 A 
BRANCH  20  23
ATOM     23  S   UNL d   1      60.025  -1.835  29.785  0.00  0.00     0.271 S 
ATOM     24  O   UNL d   1      60.575  -1.329  29.429  0.00  0.00    -0.200 OA
ATOM     25  O   UNL d   1      59.473  -2.334  30.137  0.00  0.00    -0.200 OA
BRANCH  23  26
ATOM     26  N   UNL d   1      60.616  -2.389  29.928  0.00  0.00    -0.226 N 
ATOM     27  C   UNL d   1      60.811  -2.595  30.696  0.00  0.00     0.111 C 
ATOM     28  C   UNL d   1      61.012  -2.734  29.294  0.00  0.00     0.111 C 
ENDBRANCH  23  26
ENDBRANCH  20  23
ENDBRANCH   2  17
TORSDOF 6
ENDMDL
MODEL 3
REMARK VINA RESULT:       8.0      1.304      3.940
REMARK  6 active torsions:
REMARK  status: ('A' for Active; 'I' for Inactive)
REMARK    1  A    between atoms: C_9  and  S_1 
REMARK    2  A    between atoms: N_10  and  S_1 
REMARK    3  A    between atoms: C_2  and  N_6 
REMARK       I    between atoms: N_6  and  C_8 
REMARK    4  A    between atoms: C_8  and  C_15 
REMARK    5  A    between atoms: O_24  and  C_13 
REMARK    6  A    between atoms: O_23  and  C_14 
ROOT
ATOM      1  N   UNL d   1      59.957   0.682  29.981  0.00  0.00    -0.183 NA
ATOM      2  C   UNL d   1      60.391   0.122  29.549  0.00  0.00     0.281 C 
ATOM      3  O   UNL d   1      61.132   0.326  29.255  0.00  0.00    -0.265 OA
ENDROOT
BRANCH   1   4
ATOM      4  C   UNL d   1      59.204   0.485  30.284  0.00  0.00     0.197 A 
ATOM      5  N   UNL d   1      58.520   0.362  29.841  0.00  0.00    -0.218 NA
ATOM      6  C   UNL d   1      57.912   0.182  30.364  0.00  0.00     0.114 A 
ATOM      7  C   UNL d   1      57.116   0.008  30.251  0.00  0.00     0.112 A 
ATOM      8  C   UNL d   1      58.222   0.195  31.127  0.00  0.00     0.074 A 
ATOM      9  C   UNL d   1      56.627  -0.154  30.895  0.00  0.00     0.028 A 
ATOM     10  C   UNL d   1      56.947  -0.140  31.662  0.00  0.00     0.027 A 
ATOM     11  C   UNL d   1      57.738   0.033  31.777  0.00  0.00     0.102 A 
ATOM     12  S   UNL d   1      59.028   0.384  31.068  0.00  0.00    -0.045 SA
BRANCH   7  13
ATOM     13  O   UNL d   1      56.794  -0.006  29.480  0.00  0.00    -0.327 OA
ATOM     14  C   UNL d   1      56.464   0.678  29.158  0.00  0.00     0.181 C 
ENDBRANCH   7  13
BRANCH  11  15
ATOM     15  O   UNL d   1      58.061   0.048  32.548  0.00  0.00    -0.328 OA
ATOM     16  C   UNL d   1      57.767  -0.460  33.124  0.00  0.00     0.181 C 
ENDBRANCH  11  15
ENDBRANCH   1   4
BRANCH   2  17
ATOM     17  C   UNL d   1      60.076  -0.613  29.426  0.00  0.00     0.058 A 
ATOM     18  C   UNL d   1      60.111  -1.190  30.007  0.00  0.00     0.005 A 
ATOM     19  C   UNL d   1      59.791  -1.937  29.881  0.00  0.00     0.013 A 
ATOM     20  C   UNL d   1      59.427  -2.111  29.157  0.00  0.00     0.104 A 
ATOM     21  C   UNL d   1      59.389  -1.533  28.566  0.00  0.00     0.013 A 
ATOM     22  C   UNL d   1      59.713  -0.787  28.702  0.00  0.00     0.005 A 
BRANCH  20  23
ATOM     23  S   UNL d   1      59.105  -2.859  29.027  0.00  0.00     0.271 S 
ATOM     24  O   UNL d   1      58.581  -2.534  28.475  0.00  0.00    -0.200 OA
ATOM     25  O   UNL d   1      59.629  -3.177  29.578  0.00  0.00    -0.200 OA
BRANCH  23  26
ATOM     26  N   UNL d   1      58.786  -3.607  28.900  0.00  0.00    -0.226 N 
ATOM     27  C   UNL d   1      59.270  -4.267  28.901  0.00  0.00     0.111 C 
ATOM     28  C   UNL d   1      57.976  -3.687  28.773  0.00  0.00     0.111 C 
ENDBRANCH  23  26
ENDBRANCH  20  23
ENDBRANCH   2  17
TORSDOF 6
ENDMDL
