MODEL 1
REMARK VINA RESULT:      -3.1      0.000      0.000
REMARK  3 active torsions:
REMARK  status: ('A' for Active; 'I' for Inactive)
REMARK    1  A    between atoms: C_4  and  S_1 
REMARK    2  A    between atoms: N_7  and  S_1 
REMARK    3  A    between atoms: C_14  and  N_7 
ROOT
ATOM      1  S   UNL d   1      32.545  17.580 -23.740  0.00  0.00     0.285 S 
ATOM      2  O   UNL d   1      32.478  17.329 -22.971  0.00  0.00    -0.198 OA
ATOM      3  O   UNL d   1      32.629  17.852 -24.545  0.00  0.00    -0.198 OA
ENDROOT
BRANCH   1   4
ATOM      4  C   UNL d   1      31.837  17.185 -23.945  0.00  0.00     0.105 A 
ATOM      5  C   UNL d   1      31.822  16.378 -23.969  0.00  0.00     0.012 A 
ATOM      6  C   UNL d   1      31.099  15.984 -24.179  0.00  0.00     0.001 A 
ATOM      7  C   UNL d   1      32.514  15.916 -23.788  0.00  0.00     0.001 C 
ATOM      8  C   UNL d   1      30.434  16.387 -24.354  0.00  0.00     0.000 A 
ATOM      9  C   UNL d   1      30.450  17.259 -24.328  0.00  0.00     0.001 A 
ATOM     10  C   UNL d   1      29.773  15.933 -24.547  0.00  0.00     0.000 C 
ATOM     11  C   UNL d   1      31.130  17.619 -24.131  0.00  0.00     0.013 A 
ENDBRANCH   1   4
BRANCH   1  12
ATOM     12  N   UNL d   1      33.241  17.976 -23.563  0.00  0.00    -0.158 NA
BRANCH  12  13
ATOM     13  C   UNL d   1      33.236  18.751 -23.196  0.00  0.00     0.094 A 
ATOM     14  C   UNL d   1      33.228  18.840 -22.382  0.00  0.00     0.029 A 
ATOM     15  C   UNL d   1      33.224  19.569 -22.036  0.00  0.00     0.059 A 
ATOM     16  S   UNL d   1      33.216  19.798 -21.227  0.00  0.00    -0.018 SA
ATOM     17  C   UNL d   1      33.227  20.243 -22.489  0.00  0.00     0.110 A 
ATOM     18  C   UNL d   1      33.215  20.627 -21.262  0.00  0.00     0.332 A 
ATOM     19  O   UNL d   1      33.207  21.091 -20.543  0.00  0.00    -0.251 OA
ATOM     20  O   UNL d   1      33.221  20.898 -21.986  0.00  0.00    -0.268 OA
ATOM     21  C   UNL d   1      33.234  20.193 -23.285  0.00  0.00     0.027 A 
ATOM     22  C   UNL d   1      33.239  19.453 -23.676  0.00  0.00     0.022 A 
ENDBRANCH  12  13
ENDBRANCH   1  12
TORSDOF 3
ENDMDL
MODEL 2
REMARK VINA RESULT:      -1.8      2.275      4.753
REMARK  3 active torsions:
REMARK  status: ('A' for Active; 'I' for Inactive)
REMARK    1  A    between atoms: C_4  and  S_1 
REMARK    2  A    between atoms: N_7  and  S_1 
REMARK    3  A    between atoms: C_14  and  N_7 
ROOT
ATOM      1  S   UNL d   1      31.639  16.693 -24.187  0.00  0.00     0.285 S 
ATOM      2  O   UNL d   1      31.451  16.741 -23.399  0.00  0.00    -0.198 OA
ATOM      3  O   UNL d   1      31.829  16.628 -25.017  0.00  0.00    -0.198 OA
ENDROOT
BRANCH   1   4
ATOM      4  C   UNL d   1      32.018  17.438 -24.157  0.00  0.00     0.105 A 
ATOM      5  C   UNL d   1      32.788  17.486 -23.919  0.00  0.00     0.012 A 
ATOM      6  C   UNL d   1      33.166  18.247 -23.891  0.00  0.00     0.001 A 
ATOM      7  C   UNL d   1      33.227  16.792 -23.697  0.00  0.00     0.001 C 
ATOM      8  C   UNL d   1      32.783  18.916 -24.092  0.00  0.00     0.000 A 
ATOM      9  C   UNL d   1      31.950  18.864 -24.349  0.00  0.00     0.001 A 
ATOM     10  C   UNL d   1      33.218  19.615 -24.038  0.00  0.00     0.000 C 
ATOM     11  C   UNL d   1      31.605  18.150 -24.372  0.00  0.00     0.013 A 
ENDBRANCH   1   4
BRANCH   1  12
ATOM     12  N   UNL d   1      31.273  15.962 -24.243  0.00  0.00    -0.158 NA
BRANCH  12  13
ATOM     13  C   UNL d   1      30.491  15.824 -23.918  0.00  0.00     0.094 A 
ATOM     14  C   UNL d   1      29.821  15.846 -24.389  0.00  0.00     0.029 A 
ATOM     15  C   UNL d   1      29.086  15.717 -24.084  0.00  0.00     0.059 A 
ATOM     16  S   UNL d   1      28.329  15.711 -24.449  0.00  0.00    -0.018 SA
ATOM     17  C   UNL d   1      28.986  15.560 -23.293  0.00  0.00     0.110 A 
ATOM     18  C   UNL d   1      27.813  15.543 -23.821  0.00  0.00     0.332 A 
ATOM     19  O   UNL d   1      26.971  15.486 -23.955  0.00  0.00    -0.251 OA
ATOM     20  O   UNL d   1      28.180  15.453 -23.147  0.00  0.00    -0.268 OA
ATOM     21  C   UNL d   1      29.617  15.531 -22.806  0.00  0.00     0.027 A 
ATOM     22  C   UNL d   1      30.393  15.660 -23.090  0.00  0.00     0.022 A 
ENDBRANCH  12  13
ENDBRANCH   1  12
TORSDOF 3
ENDMDL
MODEL 3
REMARK VINA RESULT:      -1.5      1.383      4.388
REMARK  3 active torsions:
REMARK  status: ('A' for Active; 'I' for Inactive)
REMARK    1  A    between atoms: C_4  and  S_1 
REMARK    2  A    between atoms: N_7  and  S_1 
REMARK    3  A    between atoms: C_14  and  N_7 
ROOT
ATOM      1  S   UNL d   1      32.893  18.576 -23.581  0.00  0.00     0.285 S 
ATOM      2  O   UNL d   1      32.890  18.148 -22.891  0.00  0.00    -0.198 OA
ATOM      3  O   UNL d   1      32.896  19.014 -24.314  0.00  0.00    -0.198 OA
ENDROOT
BRANCH   1   4
ATOM      4  C   UNL d   1      32.975  19.291 -23.152  0.00  0.00     0.105 A 
ATOM      5  C   UNL d   1      33.143  19.976 -23.545  0.00  0.00     0.012 A 
ATOM      6  C   UNL d   1      33.225  20.697 -23.103  0.00  0.00     0.001 A 
ATOM      7  C   UNL d   1      33.240  19.989 -24.391  0.00  0.00     0.001 C 
ATOM      8  C   UNL d   1      33.140  20.718 -22.311  0.00  0.00     0.000 A 
ATOM      9  C   UNL d   1      32.958  19.978 -21.886  0.00  0.00     0.001 A 
ATOM     10  C   UNL d   1      33.234  21.456 -21.955  0.00  0.00     0.000 C 
ATOM     11  C   UNL d   1      32.884  19.309 -22.307  0.00  0.00     0.013 A 
ENDBRANCH   1   4
BRANCH   1  12
ATOM     12  N   UNL d   1      32.814  17.891 -24.022  0.00  0.00    -0.158 NA
BRANCH  12  13
ATOM     13  C   UNL d   1      32.129  17.380 -23.939  0.00  0.00     0.094 A 
ATOM     14  C   UNL d   1      31.440  17.514 -24.362  0.00  0.00     0.029 A 
ATOM     15  C   UNL d   1      30.796  17.034 -24.284  0.00  0.00     0.059 A 
ATOM     16  S   UNL d   1      30.041  17.058 -24.651  0.00  0.00    -0.018 SA
ATOM     17  C   UNL d   1      30.812  16.397 -23.780  0.00  0.00     0.110 A 
ATOM     18  C   UNL d   1      29.647  16.406 -24.323  0.00  0.00     0.332 A 
ATOM     19  O   UNL d   1      28.843  16.225 -24.553  0.00  0.00    -0.251 OA
ATOM     20  O   UNL d   1      30.081  16.015 -23.818  0.00  0.00    -0.268 OA
ATOM     21  C   UNL d   1      31.467  16.238 -23.353  0.00  0.00     0.027 A 
ATOM     22  C   UNL d   1      32.152  16.715 -23.410  0.00  0.00     0.022 A 
ENDBRANCH  12  13
ENDBRANCH   1  12
TORSDOF 3
ENDMDL
MODEL 4
REMARK VINA RESULT:      -0.4      1.818      3.109
REMARK  3 active torsions:
REMARK  status: ('A' for Active; 'I' for Inactive)
REMARK    1  A    between atoms: C_4  and  S_1 
REMARK    2  A    between atoms: N_7  and  S_1 
REMARK    3  A    between atoms: C_14  and  N_7 
ROOT
ATOM      1  S   UNL d   1      30.414  15.551 -23.938  0.00  0.00     0.285 S 
ATOM      2  O   UNL d   1      30.651  15.453 -23.168  0.00  0.00    -0.198 OA
ATOM      3  O   UNL d   1      30.181  15.654 -24.753  0.00  0.00    -0.198 OA
ENDROOT
BRANCH   1   4
ATOM      4  C   UNL d   1      29.610  15.550 -23.706  0.00  0.00     0.105 A 
ATOM      5  C   UNL d   1      29.032  15.511 -24.268  0.00  0.00     0.012 A 
ATOM      6  C   UNL d   1      28.218  15.511 -24.024  0.00  0.00     0.001 A 
ATOM      7  C   UNL d   1      29.221  15.471 -25.097  0.00  0.00     0.001 C 
ATOM      8  C   UNL d   1      28.007  15.547 -23.256  0.00  0.00     0.000 A 
ATOM      9  C   UNL d   1      28.632  15.589 -22.649  0.00  0.00     0.001 A 
ATOM     10  C   UNL d   1      27.197  15.542 -23.101  0.00  0.00     0.000 C 
ATOM     11  C   UNL d   1      29.390  15.589 -22.886  0.00  0.00     0.013 A 
ENDBRANCH   1   4
BRANCH   1  12
ATOM     12  N   UNL d   1      31.194  15.555 -24.191  0.00  0.00    -0.158 NA
BRANCH  12  13
ATOM     13  C   UNL d   1      31.750  16.150 -23.921  0.00  0.00     0.094 A 
ATOM     14  C   UNL d   1      31.616  16.949 -24.042  0.00  0.00     0.029 A 
ATOM     15  C   UNL d   1      32.140  17.508 -23.788  0.00  0.00     0.059 A 
ATOM     16  S   UNL d   1      32.125  18.347 -23.846  0.00  0.00    -0.018 SA
ATOM     17  C   UNL d   1      32.821  17.294 -23.401  0.00  0.00     0.110 A 
ATOM     18  C   UNL d   1      32.828  18.578 -23.473  0.00  0.00     0.332 A 
ATOM     19  O   UNL d   1      33.034  19.406 -23.410  0.00  0.00    -0.251 OA
ATOM     20  O   UNL d   1      33.241  17.979 -23.211  0.00  0.00    -0.268 OA
ATOM     21  C   UNL d   1      32.983  16.525 -23.267  0.00  0.00     0.027 A 
ATOM     22  C   UNL d   1      32.462  15.919 -23.516  0.00  0.00     0.022 A 
ENDBRANCH  12  13
ENDBRANCH   1  12
TORSDOF 3
ENDMDL
