MODEL 1
REMARK VINA RESULT:      -2.3      0.000      0.000
REMARK  3 active torsions:
REMARK  status: ('A' for Active; 'I' for Inactive)
REMARK       I    between atoms: N_2  and  C_1 
REMARK    1  A    between atoms: C_4  and  C_1 
REMARK    2  A    between atoms: C_3  and  N_2 
REMARK    3  A    between atoms: S_11  and  C_7 
ROOT
ATOM      1  C   UNL d   1      31.446  16.676 -24.489  0.00  0.00     0.064 A 
ATOM      2  C   UNL d   1      30.781  16.458 -24.056  0.00  0.00     0.030 A 
ATOM      3  C   UNL d   1      31.412  17.327 -25.004  0.00  0.00     0.005 A 
ATOM      4  C   UNL d   1      30.079  16.885 -24.131  0.00  0.00     0.006 A 
ATOM      5  C   UNL d   1      30.710  17.754 -25.079  0.00  0.00     0.000 A 
ATOM      6  C   UNL d   1      30.042  17.530 -24.640  0.00  0.00     0.001 A 
ENDROOT
BRANCH   1   7
ATOM      7  C   UNL d   1      32.148  16.249 -24.413  0.00  0.00     0.281 C 
ATOM      8  N   UNL d   1      32.830  16.625 -24.126  0.00  0.00    -0.183 NA
ATOM      9  O   UNL d   1      32.170  15.453 -24.621  0.00  0.00    -0.265 OA
BRANCH   8  10
ATOM     10  C   UNL d   1      32.810  17.410 -23.920  0.00  0.00     0.197 A 
ATOM     11  N   UNL d   1      32.596  17.713 -23.178  0.00  0.00    -0.219 NA
ATOM     12  C   UNL d   1      32.653  18.541 -23.209  0.00  0.00     0.108 A 
ATOM     13  C   UNL d   1      32.904  18.757 -23.972  0.00  0.00     0.059 A 
ATOM     14  S   UNL d   1      32.999  18.057 -24.406  0.00  0.00    -0.046 SA
ENDBRANCH   8  10
ENDBRANCH   1   7
BRANCH   2  15
ATOM     15  S   UNL d   1      30.818  15.811 -23.546  0.00  0.00    -0.113 SA
ATOM     16  C   UNL d   1      30.135  15.546 -23.171  0.00  0.00     0.074 C 
ENDBRANCH   2  15
TORSDOF 3
ENDMDL
MODEL 2
REMARK VINA RESULT:      -2.2      1.350      2.906
REMARK  3 active torsions:
REMARK  status: ('A' for Active; 'I' for Inactive)
REMARK       I    between atoms: N_2  and  C_1 
REMARK    1  A    between atoms: C_4  and  C_1 
REMARK    2  A    between atoms: C_3  and  N_2 
REMARK    3  A    between atoms: S_11  and  C_7 
ROOT
ATOM      1  C   UNL d   1      32.198  17.116 -24.311  0.00  0.00     0.064 A 
ATOM      2  C   UNL d   1      32.616  17.382 -23.653  0.00  0.00     0.030 A 
ATOM      3  C   UNL d   1      32.300  16.338 -24.582  0.00  0.00     0.005 A 
ATOM      4  C   UNL d   1      33.138  16.877 -23.262  0.00  0.00     0.006 A 
ATOM      5  C   UNL d   1      32.821  15.832 -24.191  0.00  0.00     0.000 A 
ATOM      6  C   UNL d   1      33.241  16.105 -23.528  0.00  0.00     0.001 A 
ENDROOT
BRANCH   1   7
ATOM      7  C   UNL d   1      31.677  17.622 -24.702  0.00  0.00     0.281 C 
ATOM      8  N   UNL d   1      30.872  17.423 -24.755  0.00  0.00    -0.183 NA
ATOM      9  O   UNL d   1      31.954  18.320 -25.038  0.00  0.00    -0.265 OA
BRANCH   8  10
ATOM     10  C   UNL d   1      30.596  16.735 -24.425  0.00  0.00     0.197 A 
ATOM     11  N   UNL d   1      30.361  16.634 -23.636  0.00  0.00    -0.219 NA
ATOM     12  C   UNL d   1      30.118  15.846 -23.535  0.00  0.00     0.108 A 
ATOM     13  C   UNL d   1      30.202  15.453 -24.263  0.00  0.00     0.059 A 
ATOM     14  S   UNL d   1      30.496  16.004 -24.807  0.00  0.00    -0.046 SA
ENDBRANCH   8  10
ENDBRANCH   1   7
BRANCH   2  15
ATOM     15  S   UNL d   1      32.513  18.155 -23.387  0.00  0.00    -0.113 SA
ATOM     16  C   UNL d   1      33.010  18.458 -22.806  0.00  0.00     0.074 C 
ENDBRANCH   2  15
TORSDOF 3
ENDMDL
MODEL 3
REMARK VINA RESULT:      -2.0      1.112      2.487
REMARK  3 active torsions:
REMARK  status: ('A' for Active; 'I' for Inactive)
REMARK       I    between atoms: N_2  and  C_1 
REMARK    1  A    between atoms: C_4  and  C_1 
REMARK    2  A    between atoms: C_3  and  N_2 
REMARK    3  A    between atoms: S_11  and  C_7 
ROOT
ATOM      1  C   UNL d   1      32.083  16.818 -24.307  0.00  0.00     0.064 A 
ATOM      2  C   UNL d   1      32.315  17.476 -23.871  0.00  0.00     0.030 A 
ATOM      3  C   UNL d   1      31.532  16.900 -24.923  0.00  0.00     0.005 A 
ATOM      4  C   UNL d   1      32.001  18.219 -24.044  0.00  0.00     0.006 A 
ATOM      5  C   UNL d   1      31.218  17.643 -25.096  0.00  0.00     0.000 A 
ATOM      6  C   UNL d   1      31.455  18.304 -24.653  0.00  0.00     0.001 A 
ENDROOT
BRANCH   1   7
ATOM      7  C   UNL d   1      32.397  16.075 -24.134  0.00  0.00     0.281 C 
ATOM      8  N   UNL d   1      31.892  15.459 -23.899  0.00  0.00    -0.183 NA
ATOM      9  O   UNL d   1      33.207  15.946 -24.196  0.00  0.00    -0.265 OA
BRANCH   8  10
ATOM     10  C   UNL d   1      31.093  15.584 -23.837  0.00  0.00     0.197 A 
ATOM     11  N   UNL d   1      30.694  15.869 -23.168  0.00  0.00    -0.219 NA
ATOM     12  C   UNL d   1      29.884  15.912 -23.346  0.00  0.00     0.108 A 
ATOM     13  C   UNL d   1      29.775  15.653 -24.129  0.00  0.00     0.059 A 
ATOM     14  S   UNL d   1      30.522  15.453 -24.427  0.00  0.00    -0.046 SA
ENDBRANCH   8  10
ENDBRANCH   1   7
BRANCH   2  15
ATOM     15  S   UNL d   1      32.862  17.391 -23.260  0.00  0.00    -0.113 SA
ATOM     16  C   UNL d   1      33.153  18.058 -22.876  0.00  0.00     0.074 C 
ENDBRANCH   2  15
TORSDOF 3
ENDMDL
MODEL 4
REMARK VINA RESULT:      -1.9      1.696      2.088
REMARK  3 active torsions:
REMARK  status: ('A' for Active; 'I' for Inactive)
REMARK       I    between atoms: N_2  and  C_1 
REMARK    1  A    between atoms: C_4  and  C_1 
REMARK    2  A    between atoms: C_3  and  N_2 
REMARK    3  A    between atoms: S_11  and  C_7 
ROOT
ATOM      1  C   UNL d   1      29.288  16.810 -24.623  0.00  0.00     0.064 A 
ATOM      2  C   UNL d   1      28.780  16.820 -23.975  0.00  0.00     0.030 A 
ATOM      3  C   UNL d   1      29.415  17.504 -25.063  0.00  0.00     0.005 A 
ATOM      4  C   UNL d   1      28.397  17.518 -23.760  0.00  0.00     0.006 A 
ATOM      5  C   UNL d   1      29.032  18.202 -24.847  0.00  0.00     0.000 A 
ATOM      6  C   UNL d   1      28.521  18.207 -24.193  0.00  0.00     0.001 A 
ENDROOT
BRANCH   1   7
ATOM      7  C   UNL d   1      29.671  16.112 -24.838  0.00  0.00     0.281 C 
ATOM      8  N   UNL d   1      30.499  16.067 -24.795  0.00  0.00    -0.183 NA
ATOM      9  O   UNL d   1      29.234  15.464 -25.094  0.00  0.00    -0.265 OA
BRANCH   8  10
ATOM     10  C   UNL d   1      30.933  16.705 -24.544  0.00  0.00     0.197 A 
ATOM     11  N   UNL d   1      31.136  16.876 -23.757  0.00  0.00    -0.219 NA
ATOM     12  C   UNL d   1      31.581  17.578 -23.751  0.00  0.00     0.108 A 
ATOM     13  C   UNL d   1      31.656  17.846 -24.534  0.00  0.00     0.059 A 
ATOM     14  S   UNL d   1      31.257  17.305 -25.018  0.00  0.00    -0.046 SA
ENDBRANCH   8  10
ENDBRANCH   1   7
BRANCH   2  15
ATOM     15  S   UNL d   1      28.656  16.131 -23.541  0.00  0.00    -0.113 SA
ATOM     16  C   UNL d   1      28.047  16.099 -22.989  0.00  0.00     0.074 C 
ENDBRANCH   2  15
TORSDOF 3
ENDMDL
MODEL 5
REMARK VINA RESULT:      -1.9      1.704      2.883
REMARK  3 active torsions:
REMARK  status: ('A' for Active; 'I' for Inactive)
REMARK       I    between atoms: N_2  and  C_1 
REMARK    1  A    between atoms: C_4  and  C_1 
REMARK    2  A    between atoms: C_3  and  N_2 
REMARK    3  A    between atoms: S_11  and  C_7 
ROOT
ATOM      1  C   UNL d   1      31.270  16.378 -23.898  0.00  0.00     0.064 A 
ATOM      2  C   UNL d   1      31.906  16.267 -24.409  0.00  0.00     0.030 A 
ATOM      3  C   UNL d   1      30.839  17.088 -23.916  0.00  0.00     0.005 A 
ATOM      4  C   UNL d   1      32.117  16.861 -24.941  0.00  0.00     0.006 A 
ATOM      5  C   UNL d   1      31.051  17.682 -24.448  0.00  0.00     0.000 A 
ATOM      6  C   UNL d   1      31.693  17.566 -24.962  0.00  0.00     0.001 A 
ENDROOT
BRANCH   1   7
ATOM      7  C   UNL d   1      31.059  15.784 -23.366  0.00  0.00     0.281 C 
ATOM      8  N   UNL d   1      30.295  15.458 -23.393  0.00  0.00    -0.183 NA
ATOM      9  O   UNL d   1      31.603  15.515 -22.810  0.00  0.00    -0.265 OA
BRANCH   8  10
ATOM     10  C   UNL d   1      29.756  15.721 -23.940  0.00  0.00     0.197 A 
ATOM     11  N   UNL d   1      29.685  15.453 -24.722  0.00  0.00    -0.219 NA
ATOM     12  C   UNL d   1      29.065  15.869 -25.085  0.00  0.00     0.108 A 
ATOM     13  C   UNL d   1      28.747  16.400 -24.529  0.00  0.00     0.059 A 
ATOM     14  S   UNL d   1      29.176  16.305 -23.827  0.00  0.00    -0.046 SA
ENDBRANCH   8  10
ENDBRANCH   1   7
BRANCH   2  15
ATOM     15  S   UNL d   1      32.331  15.561 -24.388  0.00  0.00    -0.113 SA
ATOM     16  C   UNL d   1      32.969  15.453 -24.896  0.00  0.00     0.074 C 
ENDBRANCH   2  15
TORSDOF 3
ENDMDL
MODEL 6
REMARK VINA RESULT:      -1.9      1.467      1.830
REMARK  3 active torsions:
REMARK  status: ('A' for Active; 'I' for Inactive)
REMARK       I    between atoms: N_2  and  C_1 
REMARK    1  A    between atoms: C_4  and  C_1 
REMARK    2  A    between atoms: C_3  and  N_2 
REMARK    3  A    between atoms: S_11  and  C_7 
ROOT
ATOM      1  C   UNL d   1      30.528  16.441 -23.955  0.00  0.00     0.064 A 
ATOM      2  C   UNL d   1      29.951  16.296 -24.524  0.00  0.00     0.030 A 
ATOM      3  C   UNL d   1      30.936  17.164 -23.950  0.00  0.00     0.005 A 
ATOM      4  C   UNL d   1      29.777  16.869 -25.091  0.00  0.00     0.006 A 
ATOM      5  C   UNL d   1      30.762  17.737 -24.517  0.00  0.00     0.000 A 
ATOM      6  C   UNL d   1      30.179  17.587 -25.089  0.00  0.00     0.001 A 
ENDROOT
BRANCH   1   7
ATOM      7  C   UNL d   1      30.702  15.867 -23.387  0.00  0.00     0.281 C 
ATOM      8  N   UNL d   1      31.470  15.557 -23.338  0.00  0.00    -0.183 NA
ATOM      9  O   UNL d   1      30.116  15.605 -22.873  0.00  0.00    -0.265 OA
BRANCH   8  10
ATOM     10  C   UNL d   1      32.051  15.814 -23.844  0.00  0.00     0.197 A 
ATOM     11  N   UNL d   1      32.518  16.492 -23.745  0.00  0.00    -0.219 NA
ATOM     12  C   UNL d   1      33.039  16.546 -24.389  0.00  0.00     0.108 A 
ATOM     13  C   UNL d   1      32.897  15.900 -24.893  0.00  0.00     0.059 A 
ATOM     14  S   UNL d   1      32.289  15.453 -24.553  0.00  0.00    -0.046 SA
ENDBRANCH   8  10
ENDBRANCH   1   7
BRANCH   2  15
ATOM     15  S   UNL d   1      29.548  15.578 -24.526  0.00  0.00    -0.113 SA
ATOM     16  C   UNL d   1      28.894  15.476 -25.015  0.00  0.00     0.074 C 
ENDBRANCH   2  15
TORSDOF 3
ENDMDL
