MODEL 1
REMARK VINA RESULT:      -2.7      0.000      0.000
REMARK  2 active torsions:
REMARK  status: ('A' for Active; 'I' for Inactive)
REMARK    1  A    between atoms: N_2  and  S_1 
REMARK    2  A    between atoms: C_3  and  S_1 
ROOT
ATOM      1  S   UNL d   1      31.083  17.224 -24.400  0.00  0.00     0.287 S 
ATOM      2  O   UNL d   1      30.721  16.640 -24.855  0.00  0.00    -0.198 OA
ATOM      3  O   UNL d   1      30.683  17.536 -23.735  0.00  0.00    -0.198 OA
ENDROOT
BRANCH   1   4
ATOM      4  N   UNL d   1      31.844  17.505 -24.598  0.00  0.00    -0.152 N 
ATOM      5  N   UNL d   1      31.968  18.321 -24.728  0.00  0.00    -0.155 NA
ATOM      6  C   UNL d   1      32.730  18.602 -24.927  0.00  0.00     0.104 A 
ATOM      7  C   UNL d   1      33.058  19.363 -25.094  0.00  0.00     0.022 C 
ATOM      8  C   UNL d   1      33.240  17.262 -24.866  0.00  0.00     0.041 A 
ATOM      9  C   UNL d   1      32.478  16.981 -24.667  0.00  0.00     0.096 A 
ATOM     10  C   UNL d   1      32.354  16.164 -24.537  0.00  0.00     0.022 C 
ENDBRANCH   1   4
BRANCH   1  11
ATOM     11  C   UNL d   1      29.977  16.817 -24.111  0.00  0.00     0.117 A 
ATOM     12  C   UNL d   1      29.858  16.279 -23.567  0.00  0.00     0.025 A 
ATOM     13  C   UNL d   1      29.131  16.039 -23.407  0.00  0.00     0.059 A 
ATOM     14 CL   UNL d   1      29.001  15.455 -22.816  0.00  0.00    -0.082 Cl
ATOM     15  C   UNL d   1      28.535  16.348 -23.800  0.00  0.00     0.012 A 
ATOM     16  C   UNL d   1      28.653  16.887 -24.345  0.00  0.00     0.013 A 
ATOM     17  C   UNL d   1      29.380  17.123 -24.502  0.00  0.00     0.070 A 
ATOM     18 CL   UNL d   1      29.510  17.702 -25.088  0.00  0.00    -0.082 Cl
ENDBRANCH   1  11
TORSDOF 2
ENDMDL
MODEL 2
REMARK VINA RESULT:      -2.2      1.585      3.748
REMARK  2 active torsions:
REMARK  status: ('A' for Active; 'I' for Inactive)
REMARK    1  A    between atoms: N_2  and  S_1 
REMARK    2  A    between atoms: C_3  and  S_1 
ROOT
ATOM      1  S   UNL d   1      30.492  16.766 -24.203  0.00  0.00     0.287 S 
ATOM      2  O   UNL d   1      30.856  16.741 -24.943  0.00  0.00    -0.198 OA
ATOM      3  O   UNL d   1      30.960  16.855 -23.516  0.00  0.00    -0.198 OA
ENDROOT
BRANCH   1   4
ATOM      4  N   UNL d   1      29.662  16.703 -24.138  0.00  0.00    -0.152 N 
ATOM      5  N   UNL d   1      29.324  16.088 -23.683  0.00  0.00    -0.155 NA
ATOM      6  C   UNL d   1      28.493  16.025 -23.617  0.00  0.00     0.104 A 
ATOM      7  C   UNL d   1      27.967  15.496 -23.220  0.00  0.00     0.022 C 
ATOM      8  C   UNL d   1      28.339  17.181 -24.454  0.00  0.00     0.041 A 
ATOM      9  C   UNL d   1      29.170  17.244 -24.520  0.00  0.00     0.096 A 
ATOM     10  C   UNL d   1      29.508  17.859 -24.975  0.00  0.00     0.022 C 
ENDBRANCH   1   4
BRANCH   1  11
ATOM     11  C   UNL d   1      31.699  16.857 -24.298  0.00  0.00     0.117 A 
ATOM     12  C   UNL d   1      32.064  17.539 -24.344  0.00  0.00     0.025 A 
ATOM     13  C   UNL d   1      32.843  17.560 -24.405  0.00  0.00     0.059 A 
ATOM     14 CL   UNL d   1      33.241  18.299 -24.454  0.00  0.00    -0.082 Cl
ATOM     15  C   UNL d   1      33.241  16.892 -24.418  0.00  0.00     0.012 A 
ATOM     16  C   UNL d   1      32.876  16.209 -24.372  0.00  0.00     0.013 A 
ATOM     17  C   UNL d   1      32.098  16.192 -24.312  0.00  0.00     0.070 A 
ATOM     18 CL   UNL d   1      31.703  15.459 -24.262  0.00  0.00    -0.082 Cl
ENDBRANCH   1  11
TORSDOF 2
ENDMDL
MODEL 3
REMARK VINA RESULT:      -2.0      2.128      3.754
REMARK  2 active torsions:
REMARK  status: ('A' for Active; 'I' for Inactive)
REMARK    1  A    between atoms: N_2  and  S_1 
REMARK    2  A    between atoms: C_3  and  S_1 
ROOT
ATOM      1  S   UNL d   1      32.293  17.655 -23.675  0.00  0.00     0.287 S 
ATOM      2  O   UNL d   1      31.770  18.288 -23.602  0.00  0.00    -0.198 OA
ATOM      3  O   UNL d   1      33.115  17.789 -23.602  0.00  0.00    -0.198 OA
ENDROOT
BRANCH   1   4
ATOM      4  N   UNL d   1      32.008  16.884 -23.821  0.00  0.00    -0.152 N 
ATOM      5  N   UNL d   1      31.266  16.776 -24.192  0.00  0.00    -0.155 NA
ATOM      6  C   UNL d   1      30.980  16.004 -24.338  0.00  0.00     0.104 A 
ATOM      7  C   UNL d   1      30.280  15.687 -24.690  0.00  0.00     0.022 C 
ATOM      8  C   UNL d   1      32.165  15.453 -23.746  0.00  0.00     0.041 A 
ATOM      9  C   UNL d   1      32.452  16.225 -23.600  0.00  0.00     0.096 A 
ATOM     10  C   UNL d   1      33.193  16.332 -23.228  0.00  0.00     0.022 C 
ENDBRANCH   1   4
BRANCH   1  11
ATOM     11  C   UNL d   1      32.709  18.776 -23.463  0.00  0.00     0.117 A 
ATOM     12  C   UNL d   1      32.828  19.049 -22.748  0.00  0.00     0.025 A 
ATOM     13  C   UNL d   1      33.097  19.777 -22.649  0.00  0.00     0.059 A 
ATOM     14 CL   UNL d   1      33.227  20.075 -21.874  0.00  0.00    -0.082 Cl
ATOM     15  C   UNL d   1      33.241  20.216 -23.274  0.00  0.00     0.012 A 
ATOM     16  C   UNL d   1      33.122  19.943 -23.991  0.00  0.00     0.013 A 
ATOM     17  C   UNL d   1      32.853  19.217 -24.085  0.00  0.00     0.070 A 
ATOM     18 CL   UNL d   1      32.724  18.920 -24.854  0.00  0.00    -0.082 Cl
ENDBRANCH   1  11
TORSDOF 2
ENDMDL
MODEL 4
REMARK VINA RESULT:      -1.8      4.376      5.651
REMARK  2 active torsions:
REMARK  status: ('A' for Active; 'I' for Inactive)
REMARK    1  A    between atoms: N_2  and  S_1 
REMARK    2  A    between atoms: C_3  and  S_1 
ROOT
ATOM      1  S   UNL d   1      32.700  20.735 -22.236  0.00  0.00     0.287 S 
ATOM      2  O   UNL d   1      32.037  20.721 -21.746  0.00  0.00    -0.198 OA
ATOM      3  O   UNL d   1      33.231  21.379 -22.193  0.00  0.00    -0.198 OA
ENDROOT
BRANCH   1   4
ATOM      4  N   UNL d   1      32.843  20.111 -22.773  0.00  0.00    -0.152 N 
ATOM      5  N   UNL d   1      32.729  19.319 -22.533  0.00  0.00    -0.155 NA
ATOM      6  C   UNL d   1      32.872  18.694 -23.070  0.00  0.00     0.104 A 
ATOM      7  C   UNL d   1      32.819  17.851 -23.029  0.00  0.00     0.022 C 
ATOM      8  C   UNL d   1      33.241  19.647 -24.078  0.00  0.00     0.041 A 
ATOM      9  C   UNL d   1      33.098  20.271 -23.541  0.00  0.00     0.096 A 
ATOM     10  C   UNL d   1      33.212  21.063 -23.781  0.00  0.00     0.022 C 
ENDBRANCH   1   4
BRANCH   1  11
ATOM     11  C   UNL d   1      32.492  21.641 -21.456  0.00  0.00     0.117 A 
ATOM     12  C   UNL d   1      32.110  22.285 -21.656  0.00  0.00     0.025 A 
ATOM     13  C   UNL d   1      31.994  22.849 -21.127  0.00  0.00     0.059 A 
ATOM     14 CL   UNL d   1      31.580  23.548 -21.342  0.00  0.00    -0.082 Cl
ATOM     15  C   UNL d   1      32.266  22.754 -20.405  0.00  0.00     0.012 A 
ATOM     16  C   UNL d   1      32.648  22.109 -20.204  0.00  0.00     0.013 A 
ATOM     17  C   UNL d   1      32.762  21.548 -20.734  0.00  0.00     0.070 A 
ATOM     18 CL   UNL d   1      33.173  20.854 -20.522  0.00  0.00    -0.082 Cl
ENDBRANCH   1  11
TORSDOF 2
ENDMDL
MODEL 5
REMARK VINA RESULT:      -1.2      4.818      6.034
REMARK  2 active torsions:
REMARK  status: ('A' for Active; 'I' for Inactive)
REMARK    1  A    between atoms: N_2  and  S_1 
REMARK    2  A    between atoms: C_3  and  S_1 
ROOT
ATOM      1  S   UNL d   1      32.801  21.477 -21.422  0.00  0.00     0.287 S 
ATOM      2  O   UNL d   1      33.232  21.498 -22.125  0.00  0.00    -0.198 OA
ATOM      3  O   UNL d   1      32.474  20.753 -21.161  0.00  0.00    -0.198 OA
ENDROOT
BRANCH   1   4
ATOM      4  N   UNL d   1      32.690  22.171 -20.972  0.00  0.00    -0.152 N 
ATOM      5  N   UNL d   1      32.884  22.179 -20.159  0.00  0.00    -0.155 NA
ATOM      6  C   UNL d   1      32.773  22.874 -19.709  0.00  0.00     0.104 A 
ATOM      7  C   UNL d   1      32.903  23.086 -18.901  0.00  0.00     0.022 C 
ATOM      8  C   UNL d   1      32.277  23.549 -20.875  0.00  0.00     0.041 A 
ATOM      9  C   UNL d   1      32.388  22.854 -21.325  0.00  0.00     0.096 A 
ATOM     10  C   UNL d   1      32.193  22.846 -22.138  0.00  0.00     0.022 C 
ENDBRANCH   1   4
BRANCH   1  11
ATOM     11  C   UNL d   1      32.962  20.466 -22.076  0.00  0.00     0.117 A 
ATOM     12  C   UNL d   1      32.903  20.454 -22.848  0.00  0.00     0.025 A 
ATOM     13  C   UNL d   1      33.014  19.785 -23.237  0.00  0.00     0.059 A 
ATOM     14 CL   UNL d   1      32.951  19.771 -24.075  0.00  0.00    -0.082 Cl
ATOM     15  C   UNL d   1      33.182  19.139 -22.839  0.00  0.00     0.012 A 
ATOM     16  C   UNL d   1      33.240  19.150 -22.065  0.00  0.00     0.013 A 
ATOM     17  C   UNL d   1      33.129  19.819 -21.681  0.00  0.00     0.070 A 
ATOM     18 CL   UNL d   1      33.192  19.834 -20.849  0.00  0.00    -0.082 Cl
ENDBRANCH   1  11
TORSDOF 2
ENDMDL
MODEL 6
REMARK VINA RESULT:      -0.8      1.468      2.047
REMARK  2 active torsions:
REMARK  status: ('A' for Active; 'I' for Inactive)
REMARK    1  A    between atoms: N_2  and  S_1 
REMARK    2  A    between atoms: C_3  and  S_1 
ROOT
ATOM      1  S   UNL d   1      30.244  16.223 -24.069  0.00  0.00     0.287 S 
ATOM      2  O   UNL d   1      29.981  15.477 -24.304  0.00  0.00    -0.198 OA
ATOM      3  O   UNL d   1      29.712  16.748 -23.694  0.00  0.00    -0.198 OA
ENDROOT
BRANCH   1   4
ATOM      4  N   UNL d   1      31.035  16.454 -24.202  0.00  0.00    -0.152 N 
ATOM      5  N   UNL d   1      31.659  16.049 -23.822  0.00  0.00    -0.155 NA
ATOM      6  C   UNL d   1      32.451  16.281 -23.956  0.00  0.00     0.104 A 
ATOM      7  C   UNL d   1      33.203  16.011 -23.679  0.00  0.00     0.022 C 
ATOM      8  C   UNL d   1      31.998  17.315 -24.841  0.00  0.00     0.041 A 
ATOM      9  C   UNL d   1      31.206  17.083 -24.708  0.00  0.00     0.096 A 
ATOM     10  C   UNL d   1      30.582  17.489 -25.088  0.00  0.00     0.022 C 
ENDBRANCH   1   4
BRANCH   1  11
ATOM     11  C   UNL d   1      29.093  15.886 -23.874  0.00  0.00     0.117 A 
ATOM     12  C   UNL d   1      28.583  15.792 -24.449  0.00  0.00     0.025 A 
ATOM     13  C   UNL d   1      27.850  15.574 -24.287  0.00  0.00     0.059 A 
ATOM     14 CL   UNL d   1      27.294  15.471 -24.910  0.00  0.00    -0.082 Cl
ATOM     15  C   UNL d   1      27.644  15.455 -23.547  0.00  0.00     0.012 A 
ATOM     16  C   UNL d   1      28.155  15.549 -22.970  0.00  0.00     0.013 A 
ATOM     17  C   UNL d   1      28.886  15.766 -23.136  0.00  0.00     0.070 A 
ATOM     18 CL   UNL d   1      29.437  15.868 -22.519  0.00  0.00    -0.082 Cl
ENDBRANCH   1  11
TORSDOF 2
ENDMDL
