MODEL 1
REMARK VINA RESULT:       3.6      0.000      0.000
REMARK  8 active torsions:
REMARK  status: ('A' for Active; 'I' for Inactive)
REMARK    1  A    between atoms: N_5  and  C_1 
REMARK    2  A    between atoms: N_7  and  C_1 
REMARK    3  A    between atoms: N_2  and  C_3 
REMARK    4  A    between atoms: C_3  and  C_4 
REMARK    5  A    between atoms: C_6  and  C_3 
REMARK    6  A    between atoms: C_4  and  N_5 
REMARK    7  A    between atoms: C_8  and  N_7 
REMARK    8  A    between atoms: C_25  and  N_10 
ROOT
ATOM      1  C   UNL d   1     -42.410-122.614 -50.233  0.00  0.00     0.088 C 
ENDROOT
BRANCH   1   2
ATOM      2  N   UNL d   1     -42.129-122.852 -49.492  0.00  0.00    -0.300 N 
ATOM      3  C   UNL d   1     -42.254-122.375 -48.832  0.00  0.00     0.100 A 
ATOM      4  C   UNL d   1     -41.976-122.610 -48.098  0.00  0.00     0.100 A 
ATOM      5  N   UNL d   1     -41.568-123.325 -48.010  0.00  0.00    -0.300 N 
ATOM      6  C   UNL d   1     -41.444-123.804 -48.675  0.00  0.00     0.100 A 
ATOM      7  C   UNL d   1     -41.721-123.574 -49.419  0.00  0.00     0.100 A 
BRANCH   5   8
ATOM      8  C   UNL d   1     -41.291-123.558 -47.273  0.00  0.00     0.080 C 
ATOM      9  C   UNL d   1     -41.830-123.789 -46.688  0.00  0.00     0.021 C 
ENDBRANCH   5   8
ENDBRANCH   1   2
BRANCH   1  10
ATOM     10  C   UNL d   1     -41.895-122.549 -50.871  0.00  0.00     0.100 C 
ATOM     11  C   UNL d   1     -41.138-122.264 -50.754  0.00  0.00     0.022 C 
BRANCH  10  12
ATOM     12  N   UNL d   1     -42.148-122.773 -51.619  0.00  0.00    -0.216 NA
BRANCH  12  13
ATOM     13  C   UNL d   1     -41.609-122.793 -52.247  0.00  0.00     0.221 C 
ATOM     14  S   UNL d   1     -41.137-123.456 -52.353  0.00  0.00    -0.037 SA
BRANCH  13  15
ATOM     15  N   UNL d   1     -41.552-122.153 -52.758  0.00  0.00    -0.217 NA
BRANCH  15  16
ATOM     16  C   UNL d   1     -41.749-122.234 -53.555  0.00  0.00     0.084 A 
ATOM     17  C   UNL d   1     -42.030-121.589 -53.974  0.00  0.00     0.018 A 
ATOM     18  C   UNL d   1     -42.226-121.663 -54.763  0.00  0.00     0.002 A 
ATOM     19  C   UNL d   1     -42.114-120.858 -53.589  0.00  0.00     0.002 C 
ATOM     20  C   UNL d   1     -42.140-122.397 -55.144  0.00  0.00     0.000 A 
ATOM     21  C   UNL d   1     -41.854-123.055 -54.717  0.00  0.00     0.002 A 
ATOM     22  C   UNL d   1     -41.660-122.969 -53.926  0.00  0.00     0.019 A 
ATOM     23  C   UNL d   1     -41.767-123.782 -55.090  0.00  0.00     0.000 C 
ENDBRANCH  15  16
ENDBRANCH  13  15
ENDBRANCH  12  13
ENDBRANCH  10  12
ENDBRANCH   1  10
BRANCH   1  24
ATOM     24  C   UNL d   1     -43.209-122.441 -50.329  0.00  0.00     0.047 A 
ATOM     25  S   UNL d   1     -43.730-122.801 -50.860  0.00  0.00    -0.085 SA
ATOM     26  C   UNL d   1     -44.471-122.457 -50.766  0.00  0.00     0.035 A 
ATOM     27  C   UNL d   1     -44.422-121.880 -50.177  0.00  0.00     0.007 A 
ATOM     28  C   UNL d   1     -43.638-121.867 -49.902  0.00  0.00     0.009 A 
ENDBRANCH   1  24
TORSDOF 8
ENDMDL
MODEL 2
REMARK VINA RESULT:       3.6      1.216      2.060
REMARK  8 active torsions:
REMARK  status: ('A' for Active; 'I' for Inactive)
REMARK    1  A    between atoms: N_5  and  C_1 
REMARK    2  A    between atoms: N_7  and  C_1 
REMARK    3  A    between atoms: N_2  and  C_3 
REMARK    4  A    between atoms: C_3  and  C_4 
REMARK    5  A    between atoms: C_6  and  C_3 
REMARK    6  A    between atoms: C_4  and  N_5 
REMARK    7  A    between atoms: C_8  and  N_7 
REMARK    8  A    between atoms: C_25  and  N_10 
ROOT
ATOM      1  C   UNL d   1     -41.651-122.298 -51.139  0.00  0.00     0.088 C 
ENDROOT
BRANCH   1   2
ATOM      2  N   UNL d   1     -42.014-122.643 -50.480  0.00  0.00    -0.300 N 
ATOM      3  C   UNL d   1     -41.563-123.069 -49.938  0.00  0.00     0.100 A 
ATOM      4  C   UNL d   1     -41.923-123.410 -49.285  0.00  0.00     0.100 A 
ATOM      5  N   UNL d   1     -42.737-123.332 -49.162  0.00  0.00    -0.300 N 
ATOM      6  C   UNL d   1     -43.189-122.902 -49.708  0.00  0.00     0.100 A 
ATOM      7  C   UNL d   1     -42.834-122.555 -50.369  0.00  0.00     0.100 A 
BRANCH   5   8
ATOM      8  C   UNL d   1     -43.093-123.675 -48.507  0.00  0.00     0.080 C 
ATOM      9  C   UNL d   1     -43.910-123.813 -48.511  0.00  0.00     0.021 C 
ENDBRANCH   5   8
ENDBRANCH   1   2
BRANCH   1  10
ATOM     10  C   UNL d   1     -41.419-122.764 -51.775  0.00  0.00     0.100 C 
ATOM     11  C   UNL d   1     -41.123-123.514 -51.643  0.00  0.00     0.022 C 
BRANCH  10  12
ATOM     12  N   UNL d   1     -41.487-122.470 -52.538  0.00  0.00    -0.216 NA
BRANCH  12  13
ATOM     13  C   UNL d   1     -41.497-122.990 -53.182  0.00  0.00     0.221 C 
ATOM     14  S   UNL d   1     -41.743-123.766 -53.071  0.00  0.00    -0.037 SA
BRANCH  13  15
ATOM     15  N   UNL d   1     -41.261-122.728 -53.923  0.00  0.00    -0.217 NA
BRANCH  15  16
ATOM     16  C   UNL d   1     -41.821-122.542 -54.500  0.00  0.00     0.084 A 
ATOM     17  C   UNL d   1     -41.756-122.861 -55.251  0.00  0.00     0.018 A 
ATOM     18  C   UNL d   1     -42.307-122.680 -55.826  0.00  0.00     0.002 A 
ATOM     19  C   UNL d   1     -41.123-123.370 -55.424  0.00  0.00     0.002 C 
ATOM     20  C   UNL d   1     -42.939-122.170 -55.647  0.00  0.00     0.000 A 
ATOM     21  C   UNL d   1     -43.006-121.845 -54.881  0.00  0.00     0.002 A 
ATOM     22  C   UNL d   1     -42.446-122.033 -54.313  0.00  0.00     0.019 A 
ATOM     23  C   UNL d   1     -43.629-121.340 -54.701  0.00  0.00     0.000 C 
ENDBRANCH  15  16
ENDBRANCH  13  15
ENDBRANCH  12  13
ENDBRANCH  10  12
ENDBRANCH   1  10
BRANCH   1  24
ATOM     24  C   UNL d   1     -41.522-121.486 -51.154  0.00  0.00     0.047 A 
ATOM     25  S   UNL d   1     -41.740-120.964 -51.757  0.00  0.00    -0.085 SA
ATOM     26  C   UNL d   1     -41.503-120.207 -51.541  0.00  0.00     0.035 A 
ATOM     27  C   UNL d   1     -41.137-120.246 -50.802  0.00  0.00     0.007 A 
ATOM     28  C   UNL d   1     -41.146-121.041 -50.557  0.00  0.00     0.009 A 
ENDBRANCH   1  24
TORSDOF 8
ENDMDL
