MODEL 1
REMARK VINA RESULT:      -7.7      0.000      0.000
REMARK  4 active torsions:
REMARK  status: ('A' for Active; 'I' for Inactive)
REMARK    1  A    between atoms: C_10  and  N_1 
REMARK       I    between atoms: C_3  and  N_9 
REMARK    2  A    between atoms: C_6  and  C_3 
REMARK    3  A    between atoms: N_9  and  C_11 
REMARK    4  A    between atoms: C_11  and  C_10 
ROOT
ATOM      1  N   UNL d   1     -49.023  11.926  22.934  0.00  0.00    -0.303 N 
ATOM      2  C   UNL d   1     -49.324  11.690  23.669  0.00  0.00     0.080 A 
ATOM      3  C   UNL d   1     -49.643  12.282  22.512  0.00  0.00     0.064 A 
ATOM      4  C   UNL d   1     -50.120  11.898  23.698  0.00  0.00     0.021 A 
ATOM      5  C   UNL d   1     -50.320  12.263  22.986  0.00  0.00     0.018 A 
ATOM      6  C   UNL d   1     -49.664  12.615  21.761  0.00  0.00     0.018 A 
ATOM      7  C   UNL d   1     -51.021  12.583  22.698  0.00  0.00     0.002 A 
ATOM      8  C   UNL d   1     -50.365  12.935  21.472  0.00  0.00     0.002 A 
ATOM      9  C   UNL d   1     -51.057  12.923  21.940  0.00  0.00     0.000 A 
ENDROOT
BRANCH   1  10
ATOM     10  C   UNL d   1     -48.246  11.824  22.675  0.00  0.00     0.101 C 
BRANCH  10  11
ATOM     11  C   UNL d   1     -47.652  12.325  22.948  0.00  0.00     0.121 C 
BRANCH  11  12
ATOM     12  N   UNL d   1     -46.914  12.016  23.150  0.00  0.00    -0.209 NA
ATOM     13  C   UNL d   1     -46.245  12.497  23.140  0.00  0.00     0.255 C 
ATOM     14  O   UNL d   1     -45.507  12.188  23.342  0.00  0.00    -0.270 OA
BRANCH  13  15
ATOM     15  C   UNL d   1     -46.315  13.295  22.925  0.00  0.00     0.073 C 
ATOM     16  C   UNL d   1     -46.554  13.482  23.698  0.00  0.00     0.009 C 
ATOM     17  C   UNL d   1     -46.383  14.086  22.708  0.00  0.00     0.009 C 
ATOM     18  C   UNL d   1     -46.078  13.101  22.162  0.00  0.00     0.009 C 
ENDBRANCH  13  15
ENDBRANCH  11  12
ENDBRANCH  10  11
ENDBRANCH   1  10
TORSDOF 4
ENDMDL
MODEL 2
REMARK VINA RESULT:      -7.6      0.435      1.182
REMARK  4 active torsions:
REMARK  status: ('A' for Active; 'I' for Inactive)
REMARK    1  A    between atoms: C_10  and  N_1 
REMARK       I    between atoms: C_3  and  N_9 
REMARK    2  A    between atoms: C_6  and  C_3 
REMARK    3  A    between atoms: N_9  and  C_11 
REMARK    4  A    between atoms: C_11  and  C_10 
ROOT
ATOM      1  N   UNL d   1     -48.864  12.285  22.177  0.00  0.00    -0.303 N 
ATOM      2  C   UNL d   1     -49.036  12.723  21.495  0.00  0.00     0.080 A 
ATOM      3  C   UNL d   1     -49.555  12.254  22.636  0.00  0.00     0.064 A 
ATOM      4  C   UNL d   1     -49.824  12.958  21.534  0.00  0.00     0.021 A 
ATOM      5  C   UNL d   1     -50.147  12.670  22.236  0.00  0.00     0.018 A 
ATOM      6  C   UNL d   1     -49.707  11.898  23.361  0.00  0.00     0.018 A 
ATOM      7  C   UNL d   1     -50.896  12.726  22.572  0.00  0.00     0.002 A 
ATOM      8  C   UNL d   1     -50.456  11.954  23.697  0.00  0.00     0.002 A 
ATOM      9  C   UNL d   1     -51.064  12.371  23.305  0.00  0.00     0.000 A 
ENDROOT
BRANCH   1  10
ATOM     10  C   UNL d   1     -48.135  11.945  22.362  0.00  0.00     0.101 C 
BRANCH  10  11
ATOM     11  C   UNL d   1     -47.488  12.426  22.535  0.00  0.00     0.121 C 
BRANCH  11  12
ATOM     12  N   UNL d   1     -46.795  12.091  22.830  0.00  0.00    -0.209 NA
ATOM     13  C   UNL d   1     -46.151  12.568  23.021  0.00  0.00     0.255 C 
ATOM     14  O   UNL d   1     -45.457  12.234  23.317  0.00  0.00    -0.270 OA
BRANCH  13  15
ATOM     15  C   UNL d   1     -46.203  13.390  22.916  0.00  0.00     0.073 C 
ATOM     16  C   UNL d   1     -46.524  13.468  23.677  0.00  0.00     0.009 C 
ATOM     17  C   UNL d   1     -46.252  14.204  22.807  0.00  0.00     0.009 C 
ATOM     18  C   UNL d   1     -45.884  13.303  22.162  0.00  0.00     0.009 C 
ENDBRANCH  13  15
ENDBRANCH  11  12
ENDBRANCH  10  11
ENDBRANCH   1  10
TORSDOF 4
ENDMDL
MODEL 3
REMARK VINA RESULT:      -7.6      2.248      3.729
REMARK  4 active torsions:
REMARK  status: ('A' for Active; 'I' for Inactive)
REMARK    1  A    between atoms: C_10  and  N_1 
REMARK       I    between atoms: C_3  and  N_9 
REMARK    2  A    between atoms: C_6  and  C_3 
REMARK    3  A    between atoms: N_9  and  C_11 
REMARK    4  A    between atoms: C_11  and  C_10 
ROOT
ATOM      1  N   UNL d   1     -48.556  12.643  22.789  0.00  0.00    -0.303 N 
ATOM      2  C   UNL d   1     -48.957  12.050  23.204  0.00  0.00     0.080 A 
ATOM      3  C   UNL d   1     -47.745  12.554  22.944  0.00  0.00     0.064 A 
ATOM      4  C   UNL d   1     -48.400  11.600  23.611  0.00  0.00     0.021 A 
ATOM      5  C   UNL d   1     -47.651  11.908  23.452  0.00  0.00     0.018 A 
ATOM      6  C   UNL d   1     -47.094  12.982  22.683  0.00  0.00     0.018 A 
ATOM      7  C   UNL d   1     -46.895  11.696  23.696  0.00  0.00     0.002 A 
ATOM      8  C   UNL d   1     -46.337  12.770  22.927  0.00  0.00     0.002 A 
ATOM      9  C   UNL d   1     -46.227  12.120  23.440  0.00  0.00     0.000 A 
ENDROOT
BRANCH   1  10
ATOM     10  C   UNL d   1     -48.904  13.217  22.309  0.00  0.00     0.101 C 
BRANCH  10  11
ATOM     11  C   UNL d   1     -49.461  13.736  22.626  0.00  0.00     0.121 C 
BRANCH  11  12
ATOM     12  N   UNL d   1     -50.072  14.023  22.152  0.00  0.00    -0.209 NA
ATOM     13  C   UNL d   1     -50.451  14.728  22.344  0.00  0.00     0.255 C 
ATOM     14  O   UNL d   1     -51.063  15.015  21.870  0.00  0.00    -0.270 OA
BRANCH  13  15
ATOM     15  C   UNL d   1     -50.216  15.151  23.018  0.00  0.00     0.073 C 
ATOM     16  C   UNL d   1     -49.640  15.546  22.569  0.00  0.00     0.009 C 
ATOM     17  C   UNL d   1     -49.987  15.569  23.688  0.00  0.00     0.009 C 
ATOM     18  C   UNL d   1     -50.791  14.755  23.455  0.00  0.00     0.009 C 
ENDBRANCH  13  15
ENDBRANCH  11  12
ENDBRANCH  10  11
ENDBRANCH   1  10
TORSDOF 4
ENDMDL
MODEL 4
REMARK VINA RESULT:      -7.3      1.746      4.036
REMARK  4 active torsions:
REMARK  status: ('A' for Active; 'I' for Inactive)
REMARK    1  A    between atoms: C_10  and  N_1 
REMARK       I    between atoms: C_3  and  N_9 
REMARK    2  A    between atoms: C_6  and  C_3 
REMARK    3  A    between atoms: N_9  and  C_11 
REMARK    4  A    between atoms: C_11  and  C_10 
ROOT
ATOM      1  N   UNL d   1     -47.558  13.401  23.150  0.00  0.00    -0.303 N 
ATOM      2  C   UNL d   1     -47.126  13.964  22.724  0.00  0.00     0.080 A 
ATOM      3  C   UNL d   1     -47.064  12.743  23.267  0.00  0.00     0.064 A 
ATOM      4  C   UNL d   1     -46.376  13.658  22.580  0.00  0.00     0.021 A 
ATOM      5  C   UNL d   1     -46.335  12.905  22.914  0.00  0.00     0.018 A 
ATOM      6  C   UNL d   1     -47.198  12.028  23.649  0.00  0.00     0.018 A 
ATOM      7  C   UNL d   1     -45.738  12.339  22.948  0.00  0.00     0.002 A 
ATOM      8  C   UNL d   1     -46.601  11.462  23.683  0.00  0.00     0.002 A 
ATOM      9  C   UNL d   1     -45.858  11.611  23.331  0.00  0.00     0.000 A 
ENDROOT
BRANCH   1  10
ATOM     10  C   UNL d   1     -48.337  13.482  23.409  0.00  0.00     0.101 C 
BRANCH  10  11
ATOM     11  C   UNL d   1     -48.949  13.539  22.860  0.00  0.00     0.121 C 
BRANCH  11  12
ATOM     12  N   UNL d   1     -49.639  13.949  23.054  0.00  0.00    -0.209 NA
ATOM     13  C   UNL d   1     -50.340  13.798  22.649  0.00  0.00     0.255 C 
ATOM     14  O   UNL d   1     -51.029  14.207  22.842  0.00  0.00    -0.270 OA
BRANCH  13  15
ATOM     15  C   UNL d   1     -50.351  13.231  22.043  0.00  0.00     0.073 C 
ATOM     16  C   UNL d   1     -50.136  13.814  21.493  0.00  0.00     0.009 C 
ATOM     17  C   UNL d   1     -50.364  12.666  21.446  0.00  0.00     0.009 C 
ATOM     18  C   UNL d   1     -50.564  12.659  22.595  0.00  0.00     0.009 C 
ENDBRANCH  13  15
ENDBRANCH  11  12
ENDBRANCH  10  11
ENDBRANCH   1  10
TORSDOF 4
ENDMDL
MODEL 5
REMARK VINA RESULT:      -7.0      2.033      2.354
REMARK  4 active torsions:
REMARK  status: ('A' for Active; 'I' for Inactive)
REMARK    1  A    between atoms: C_10  and  N_1 
REMARK       I    between atoms: C_3  and  N_9 
REMARK    2  A    between atoms: C_6  and  C_3 
REMARK    3  A    between atoms: N_9  and  C_11 
REMARK    4  A    between atoms: C_11  and  C_10 
ROOT
ATOM      1  N   UNL d   1     -49.032  14.518  22.545  0.00  0.00    -0.303 N 
ATOM      2  C   UNL d   1     -49.378  13.898  22.118  0.00  0.00     0.080 A 
ATOM      3  C   UNL d   1     -49.645  14.943  22.910  0.00  0.00     0.064 A 
ATOM      4  C   UNL d   1     -50.193  13.940  22.220  0.00  0.00     0.021 A 
ATOM      5  C   UNL d   1     -50.361  14.584  22.708  0.00  0.00     0.018 A 
ATOM      6  C   UNL d   1     -49.628  15.605  23.396  0.00  0.00     0.018 A 
ATOM      7  C   UNL d   1     -51.064  14.898  22.999  0.00  0.00     0.002 A 
ATOM      8  C   UNL d   1     -50.331  15.919  23.688  0.00  0.00     0.002 A 
ATOM      9  C   UNL d   1     -51.063  15.568  23.492  0.00  0.00     0.000 A 
ENDROOT
BRANCH   1  10
ATOM     10  C   UNL d   1     -48.224  14.679  22.595  0.00  0.00     0.101 C 
BRANCH  10  11
ATOM     11  C   UNL d   1     -47.680  14.060  22.593  0.00  0.00     0.121 C 
BRANCH  11  12
ATOM     12  N   UNL d   1     -46.877  14.219  22.490  0.00  0.00    -0.209 NA
ATOM     13  C   UNL d   1     -46.314  13.640  22.654  0.00  0.00     0.255 C 
ATOM     14  O   UNL d   1     -45.511  13.798  22.551  0.00  0.00    -0.270 OA
BRANCH  13  15
ATOM     15  C   UNL d   1     -46.558  12.894  22.924  0.00  0.00     0.073 C 
ATOM     16  C   UNL d   1     -46.605  13.189  23.698  0.00  0.00     0.009 C 
ATOM     17  C   UNL d   1     -46.799  12.153  23.187  0.00  0.00     0.009 C 
ATOM     18  C   UNL d   1     -46.508  12.610  22.153  0.00  0.00     0.009 C 
ENDBRANCH  13  15
ENDBRANCH  11  12
ENDBRANCH  10  11
ENDBRANCH   1  10
TORSDOF 4
ENDMDL
