MODEL 1
REMARK VINA RESULT:      -4.9      0.000      0.000
REMARK  5 active torsions:
REMARK  status: ('A' for Active; 'I' for Inactive)
REMARK    1  A    between atoms: C_2  and  C_1 
REMARK    2  A    between atoms: C_3  and  C_1 
REMARK    3  A    between atoms: C_4  and  C_2 
REMARK    4  A    between atoms: C_8  and  C_3 
REMARK    5  A    between atoms: O_18  and  C_10 
ROOT
ATOM      1  C   UNL d   1      58.100   0.178  29.916  0.00  0.00     0.196 C 
ATOM      2  O   UNL d   1      57.692   0.682  29.403  0.00  0.00    -0.287 OA
ENDROOT
BRANCH   1   3
ATOM      3  C   UNL d   1      57.783  -0.003  30.657  0.00  0.00     0.042 C 
BRANCH   3   4
ATOM      4  C   UNL d   1      57.190   0.326  31.131  0.00  0.00     0.003 C 
BRANCH   4   5
ATOM      5  C   UNL d   1      56.748   0.059  31.775  0.00  0.00     0.000 A 
ATOM      6  C   UNL d   1      56.379   0.608  32.271  0.00  0.00     0.003 A 
ATOM      7  C   UNL d   1      55.935   0.343  32.916  0.00  0.00     0.042 A 
ATOM      8  C   UNL d   1      55.865  -0.467  33.059  0.00  0.00     0.196 A 
ATOM      9  C   UNL d   1      56.238  -1.009  32.558  0.00  0.00     0.042 A 
ATOM     10  O   UNL d   1      55.423  -0.735  33.702  0.00  0.00    -0.287 OA
ATOM     11  C   UNL d   1      56.676  -0.748  31.920  0.00  0.00     0.003 A 
ENDBRANCH   4   5
ENDBRANCH   3   4
ENDBRANCH   1   3
BRANCH   1  12
ATOM     12  C   UNL d   1      58.827  -0.140  29.674  0.00  0.00     0.039 A 
ATOM     13  C   UNL d   1      59.538   0.228  29.869  0.00  0.00     0.005 A 
ATOM     14  C   UNL d   1      60.253  -0.100  29.621  0.00  0.00     0.024 A 
ATOM     15  C   UNL d   1      60.256  -0.797  29.176  0.00  0.00     0.094 A 
ATOM     16  C   UNL d   1      59.533  -1.166  28.981  0.00  0.00     0.024 A 
ATOM     17  C   UNL d   1      58.822  -0.838  29.230  0.00  0.00     0.005 A 
BRANCH  15  18
ATOM     18  O   UNL d   1      60.971  -1.125  28.928  0.00  0.00    -0.328 OA
ATOM     19  C   UNL d   1      61.133  -1.920  29.079  0.00  0.00     0.181 C 
ENDBRANCH  15  18
ENDBRANCH   1  12
TORSDOF 5
ENDMDL
MODEL 2
REMARK VINA RESULT:      -4.7      1.221      4.989
REMARK  5 active torsions:
REMARK  status: ('A' for Active; 'I' for Inactive)
REMARK    1  A    between atoms: C_2  and  C_1 
REMARK    2  A    between atoms: C_3  and  C_1 
REMARK    3  A    between atoms: C_4  and  C_2 
REMARK    4  A    between atoms: C_8  and  C_3 
REMARK    5  A    between atoms: O_18  and  C_10 
ROOT
ATOM      1  C   UNL d   1      56.633  -0.998  32.122  0.00  0.00     0.196 C 
ATOM      2  O   UNL d   1      56.620  -1.824  32.151  0.00  0.00    -0.287 OA
ENDROOT
BRANCH   1   3
ATOM      3  C   UNL d   1      56.993  -0.611  31.489  0.00  0.00     0.042 C 
BRANCH   3   4
ATOM      4  C   UNL d   1      57.450  -0.855  30.843  0.00  0.00     0.003 C 
BRANCH   4   5
ATOM      5  C   UNL d   1      57.946  -0.471  30.306  0.00  0.00     0.000 A 
ATOM      6  C   UNL d   1      57.752   0.289  30.045  0.00  0.00     0.003 A 
ATOM      7  C   UNL d   1      58.247   0.676  29.507  0.00  0.00     0.042 A 
ATOM      8  C   UNL d   1      58.929   0.299  29.237  0.00  0.00     0.196 A 
ATOM      9  C   UNL d   1      59.116  -0.461  29.504  0.00  0.00     0.042 A 
ATOM     10  O   UNL d   1      59.425   0.682  28.700  0.00  0.00    -0.287 OA
ATOM     11  C   UNL d   1      58.627  -0.844  30.035  0.00  0.00     0.003 A 
ENDBRANCH   4   5
ENDBRANCH   3   4
ENDBRANCH   1   3
BRANCH   1  12
ATOM     12  C   UNL d   1      56.280  -0.570  32.739  0.00  0.00     0.039 A 
ATOM     13  C   UNL d   1      56.701   0.007  33.152  0.00  0.00     0.005 A 
ATOM     14  C   UNL d   1      56.336   0.424  33.763  0.00  0.00     0.024 A 
ATOM     15  C   UNL d   1      55.549   0.265  33.961  0.00  0.00     0.094 A 
ATOM     16  C   UNL d   1      55.128  -0.320  33.539  0.00  0.00     0.024 A 
ATOM     17  C   UNL d   1      55.493  -0.735  32.931  0.00  0.00     0.005 A 
BRANCH  15  18
ATOM     18  O   UNL d   1      55.184   0.682  34.571  0.00  0.00    -0.328 OA
ATOM     19  C   UNL d   1      55.515   0.679  35.327  0.00  0.00     0.181 C 
ENDBRANCH  15  18
ENDBRANCH   1  12
TORSDOF 5
ENDMDL
MODEL 3
REMARK VINA RESULT:      -4.5      0.874      4.688
REMARK  5 active torsions:
REMARK  status: ('A' for Active; 'I' for Inactive)
REMARK    1  A    between atoms: C_2  and  C_1 
REMARK    2  A    between atoms: C_3  and  C_1 
REMARK    3  A    between atoms: C_4  and  C_2 
REMARK    4  A    between atoms: C_8  and  C_3 
REMARK    5  A    between atoms: O_18  and  C_10 
ROOT
ATOM      1  C   UNL d   1      57.570   0.032  30.592  0.00  0.00     0.196 C 
ATOM      2  O   UNL d   1      57.291   0.616  30.077  0.00  0.00    -0.287 OA
ENDROOT
BRANCH   1   3
ATOM      3  C   UNL d   1      58.128  -0.518  30.331  0.00  0.00     0.042 C 
BRANCH   3   4
ATOM      4  C   UNL d   1      58.478  -0.688  29.601  0.00  0.00     0.003 C 
BRANCH   4   5
ATOM      5  C   UNL d   1      59.059  -1.217  29.346  0.00  0.00     0.000 A 
ATOM      6  C   UNL d   1      58.849  -1.997  29.167  0.00  0.00     0.003 A 
ATOM      7  C   UNL d   1      59.429  -2.528  28.911  0.00  0.00     0.042 A 
ATOM      8  C   UNL d   1      60.211  -2.274  28.837  0.00  0.00     0.196 A 
ATOM      9  C   UNL d   1      60.411  -1.493  29.018  0.00  0.00     0.042 A 
ATOM     10  O   UNL d   1      60.791  -2.802  28.583  0.00  0.00    -0.287 OA
ATOM     11  C   UNL d   1      59.839  -0.967  29.271  0.00  0.00     0.003 A 
ENDBRANCH   4   5
ENDBRANCH   3   4
ENDBRANCH   1   3
BRANCH   1  12
ATOM     12  C   UNL d   1      57.280   0.010  31.368  0.00  0.00     0.039 A 
ATOM     13  C   UNL d   1      57.491   0.587  31.918  0.00  0.00     0.005 A 
ATOM     14  C   UNL d   1      57.195   0.551  32.687  0.00  0.00     0.024 A 
ATOM     15  C   UNL d   1      56.686  -0.063  32.906  0.00  0.00     0.094 A 
ATOM     16  C   UNL d   1      56.475  -0.644  32.345  0.00  0.00     0.024 A 
ATOM     17  C   UNL d   1      56.771  -0.607  31.580  0.00  0.00     0.005 A 
BRANCH  15  18
ATOM     18  O   UNL d   1      56.389  -0.098  33.675  0.00  0.00    -0.328 OA
ATOM     19  C   UNL d   1      55.578  -0.020  33.807  0.00  0.00     0.181 C 
ENDBRANCH  15  18
ENDBRANCH   1  12
TORSDOF 5
ENDMDL
