MODEL 1
REMARK VINA RESULT:      -5.5      0.000      0.000
REMARK  3 active torsions:
REMARK  status: ('A' for Active; 'I' for Inactive)
REMARK    1  A    between atoms: N_2  and  C_1 
REMARK    2  A    between atoms: N_3  and  C_1 
REMARK       I    between atoms: C_4  and  N_3 
REMARK    3  A    between atoms: C_5  and  C_4 
ROOT
ATOM      1  C   UNL d   1     -41.713-122.604 -52.507  0.00  0.00     0.209 C 
ATOM      2  S   UNL d   1     -42.141-123.104 -51.991  0.00  0.00    -0.038 SA
ENDROOT
BRANCH   1   3
ATOM      3  N   UNL d   1     -41.569-122.850 -53.289  0.00  0.00    -0.282 N 
ATOM      4  C   UNL d   1     -41.855-122.479 -53.964  0.00  0.00     0.066 A 
ATOM      5  C   UNL d   1     -41.579-122.906 -54.616  0.00  0.00     0.018 A 
ATOM      6  C   UNL d   1     -42.326-121.813 -54.080  0.00  0.00     0.018 A 
ATOM      7  C   UNL d   1     -41.775-122.668 -55.384  0.00  0.00     0.002 A 
ATOM      8  C   UNL d   1     -41.127-123.536 -54.336  0.00  0.00     0.021 A 
ATOM      9  C   UNL d   1     -42.251-121.996 -55.496  0.00  0.00     0.000 A 
ATOM     10  C   UNL d   1     -42.527-121.569 -54.845  0.00  0.00     0.002 A 
ATOM     11  C   UNL d   1     -41.123-123.498 -53.513  0.00  0.00     0.082 A 
ENDBRANCH   1   3
BRANCH   1  12
ATOM     12  N   UNL d   1     -41.436-121.879 -52.245  0.00  0.00    -0.178 NA
ATOM     13  C   UNL d   1     -41.414-121.719 -51.432  0.00  0.00     0.304 C 
ATOM     14  O   UNL d   1     -41.135-120.987 -51.168  0.00  0.00    -0.263 OA
BRANCH  13  15
ATOM     15  C   UNL d   1     -41.665-122.279 -50.882  0.00  0.00     0.158 A 
ATOM     16  O   UNL d   1     -42.396-122.436 -50.552  0.00  0.00    -0.296 OA
ATOM     17  C   UNL d   1     -42.307-123.073 -50.026  0.00  0.00     0.134 A 
ATOM     18 BR   UNL d   1     -42.893-123.441 -49.553  0.00  0.00    -0.022 Br
ATOM     19  C   UNL d   1     -41.516-123.299 -50.041  0.00  0.00     0.034 A 
ATOM     20  C   UNL d   1     -41.123-122.808 -50.569  0.00  0.00     0.032 A 
ENDBRANCH  13  15
ENDBRANCH   1  12
TORSDOF 3
ENDMDL
MODEL 2
REMARK VINA RESULT:      -4.2      1.648      4.180
REMARK  3 active torsions:
REMARK  status: ('A' for Active; 'I' for Inactive)
REMARK    1  A    between atoms: N_2  and  C_1 
REMARK    2  A    between atoms: N_3  and  C_1 
REMARK       I    between atoms: C_4  and  N_3 
REMARK    3  A    between atoms: C_5  and  C_4 
ROOT
ATOM      1  C   UNL d   1     -41.809-122.342 -51.033  0.00  0.00     0.209 C 
ATOM      2  S   UNL d   1     -41.561-122.988 -51.503  0.00  0.00    -0.038 SA
ENDROOT
BRANCH   1   3
ATOM      3  N   UNL d   1     -42.338-122.473 -50.404  0.00  0.00    -0.282 N 
ATOM      4  C   UNL d   1     -42.138-122.787 -49.672  0.00  0.00     0.066 A 
ATOM      5  C   UNL d   1     -42.829-122.819 -49.220  0.00  0.00     0.018 A 
ATOM      6  C   UNL d   1     -41.426-123.049 -49.350  0.00  0.00     0.018 A 
ATOM      7  C   UNL d   1     -42.808-123.113 -48.446  0.00  0.00     0.002 A 
ATOM      8  C   UNL d   1     -43.448-122.524 -49.678  0.00  0.00     0.021 A 
ATOM      9  C   UNL d   1     -42.088-123.376 -48.126  0.00  0.00     0.000 A 
ATOM     10  C   UNL d   1     -41.397-123.344 -48.578  0.00  0.00     0.002 A 
ATOM     11  C   UNL d   1     -43.140-122.311 -50.411  0.00  0.00     0.082 A 
ENDBRANCH   1   3
BRANCH   1  12
ATOM     12  N   UNL d   1     -41.533-121.587 -51.190  0.00  0.00    -0.178 NA
ATOM     13  C   UNL d   1     -41.402-121.354 -51.975  0.00  0.00     0.304 C 
ATOM     14  O   UNL d   1     -41.123-120.592 -52.133  0.00  0.00    -0.263 OA
BRANCH  13  15
ATOM     15  C   UNL d   1     -41.546-121.871 -52.601  0.00  0.00     0.158 A 
ATOM     16  O   UNL d   1     -41.124-122.504 -52.898  0.00  0.00    -0.296 OA
ATOM     17  C   UNL d   1     -41.550-122.815 -53.542  0.00  0.00     0.134 A 
ATOM     18 BR   UNL d   1     -41.350-123.466 -54.030  0.00  0.00    -0.022 Br
ATOM     19  C   UNL d   1     -42.232-122.364 -53.629  0.00  0.00     0.034 A 
ATOM     20  C   UNL d   1     -42.227-121.782 -53.048  0.00  0.00     0.032 A 
ENDBRANCH  13  15
ENDBRANCH   1  12
TORSDOF 3
ENDMDL
