MODEL 1
REMARK VINA RESULT:      87.6      0.000      0.000
REMARK  6 active torsions:
REMARK  status: ('A' for Active; 'I' for Inactive)
REMARK       I    between atoms: C_2  and  N_1 
REMARK    1  A    between atoms: O_20  and  C_2 
REMARK       I    between atoms: C_5  and  N_3 
REMARK    2  A    between atoms: C_16  and  C_5 
REMARK    3  A    between atoms: C_9  and  C_7 
REMARK    4  A    between atoms: C_8  and  S_14 
REMARK    5  A    between atoms: S_14  and  C_16 
REMARK    6  A    between atoms: C_25  and  O_20 
ROOT
ATOM      1  C   UNL d   1      61.224  48.028  50.656  0.00  0.00     0.098 C 
ENDROOT
BRANCH   1   2
ATOM      2  S   UNL d   1      60.925  48.736  50.366  0.00  0.00    -0.061 SA
BRANCH   2   3
ATOM      3  C   UNL d   1      60.116  48.892  50.398  0.00  0.00     0.133 A 
ATOM      4  N   UNL d   1      59.832  49.536  50.817  0.00  0.00    -0.141 NA
ATOM      5  N   UNL d   1      59.022  49.692  50.849  0.00  0.00    -0.148 NA
ATOM      6  C   UNL d   1      58.487  49.195  50.455  0.00  0.00     0.104 A 
ATOM      7  C   UNL d   1      58.772  48.544  50.032  0.00  0.00     0.023 A 
ATOM      8  C   UNL d   1      59.580  48.391  50.002  0.00  0.00     0.029 A 
BRANCH   6   9
ATOM      9  C   UNL d   1      57.678  49.351  50.487  0.00  0.00     0.039 A 
ATOM     10  C   UNL d   1      57.313  49.440  51.209  0.00  0.00     0.101 A 
ATOM     11  N   UNL d   1      56.510  49.595  51.246  0.00  0.00    -0.242 NA
ATOM     12  C   UNL d   1      56.069  49.661  50.543  0.00  0.00     0.099 A 
ATOM     13  C   UNL d   1      56.441  49.571  49.820  0.00  0.00     0.021 A 
ATOM     14  C   UNL d   1      57.251  49.415  49.778  0.00  0.00     0.005 A 
ENDBRANCH   6   9
ENDBRANCH   2   3
ENDBRANCH   1   2
BRANCH   1  15
ATOM     15  C   UNL d   1      61.703  47.559  50.172  0.00  0.00     0.272 C 
ATOM     16  N   UNL d   1      61.676  46.740  50.240  0.00  0.00    -0.269 N 
ATOM     17  C   UNL d   1      61.167  46.391  50.795  0.00  0.00     0.102 A 
ATOM     18  C   UNL d   1      62.150  46.276  49.761  0.00  0.00     0.102 A 
ATOM     19  C   UNL d   1      61.147  45.576  50.857  0.00  0.00     0.104 A 
ATOM     20  N   UNL d   1      61.620  45.103  50.380  0.00  0.00    -0.249 N 
ATOM     21  C   UNL d   1      61.601  44.286  50.439  0.00  0.00     0.378 C 
ATOM     22  C   UNL d   1      62.126  45.453  49.827  0.00  0.00     0.104 A 
ATOM     23  O   UNL d   1      61.095  43.935  50.992  0.00  0.00    -0.237 OA
ATOM     24  O   UNL d   1      62.202  47.903  49.627  0.00  0.00    -0.266 OA
BRANCH  21  25
ATOM     25  O   UNL d   1      62.078  43.819  49.958  0.00  0.00    -0.257 OA
BRANCH  25  26
ATOM     26  C   UNL d   1      62.314  43.077  50.205  0.00  0.00     0.128 C 
ATOM     27  C   UNL d   1      63.078  42.824  50.076  0.00  0.00     0.029 C 
ENDBRANCH  25  26
ENDBRANCH  21  25
ENDBRANCH   1  15
TORSDOF 6
ENDMDL
