MODEL 1
REMARK VINA RESULT:      -2.9      0.000      0.000
REMARK  3 active torsions:
REMARK  status: ('A' for Active; 'I' for Inactive)
REMARK    1  A    between atoms: C_6  and  N_1 
REMARK    2  A    between atoms: C_7  and  C_6 
REMARK    3  A    between atoms: C_8  and  C_7 
ROOT
ATOM      1  N   UNL d   1      58.910  -0.668  29.555  0.00  0.00    -0.305 N 
ATOM      2  C   UNL d   1      58.853  -1.650  29.288  0.00  0.00     0.064 A 
ATOM      3  C   UNL d   1      59.637  -1.535  29.073  0.00  0.00     0.018 A 
ATOM      4  C   UNL d   1      59.558  -0.164  29.496  0.00  0.00     0.064 A 
ATOM      5  C   UNL d   1      59.984  -0.786  29.180  0.00  0.00     0.018 A 
ATOM      6  C   UNL d   1      58.510  -2.392  29.181  0.00  0.00     0.018 A 
ATOM      7  C   UNL d   1      60.079  -2.141  28.756  0.00  0.00     0.002 A 
ATOM      8  C   UNL d   1      59.905   0.586  29.604  0.00  0.00     0.018 A 
ATOM      9  C   UNL d   1      60.772  -0.672  28.963  0.00  0.00     0.002 A 
ATOM     10  C   UNL d   1      59.730  -2.894  28.648  0.00  0.00     0.000 A 
ATOM     11  C   UNL d   1      58.952  -3.016  28.860  0.00  0.00     0.002 A 
ATOM     12  C   UNL d   1      61.133   0.063  29.062  0.00  0.00     0.000 A 
ATOM     13  C   UNL d   1      60.701   0.682  29.379  0.00  0.00     0.002 A 
ENDROOT
BRANCH   1  14
ATOM     14  C   UNL d   1      58.201  -0.370  29.867  0.00  0.00     0.086 C 
BRANCH  14  15
ATOM     15  C   UNL d   1      58.045  -0.455  30.687  0.00  0.00     0.089 C 
BRANCH  15  16
ATOM     16  C   UNL d   1      57.381  -0.080  31.014  0.00  0.00     0.213 C 
ATOM     17  O   UNL d   1      57.017  -0.409  31.669  0.00  0.00    -0.644 OA
ATOM     18  O   UNL d   1      56.751   0.437  31.180  0.00  0.00    -0.644 OA
ENDBRANCH  15  16
ENDBRANCH  14  15
ENDBRANCH   1  14
TORSDOF 3
ENDMDL
MODEL 2
REMARK VINA RESULT:      -2.9      1.725      2.815
REMARK  3 active torsions:
REMARK  status: ('A' for Active; 'I' for Inactive)
REMARK    1  A    between atoms: C_6  and  N_1 
REMARK    2  A    between atoms: C_7  and  C_6 
REMARK    3  A    between atoms: C_8  and  C_7 
ROOT
ATOM      1  N   UNL d   1      59.161  -0.897  29.180  0.00  0.00    -0.305 N 
ATOM      2  C   UNL d   1      58.506  -0.552  29.882  0.00  0.00     0.064 A 
ATOM      3  C   UNL d   1      59.049   0.061  29.944  0.00  0.00     0.018 A 
ATOM      4  C   UNL d   1      59.868  -0.554  28.935  0.00  0.00     0.064 A 
ATOM      5  C   UNL d   1      59.730   0.054  29.465  0.00  0.00     0.018 A 
ATOM      6  C   UNL d   1      57.832  -0.544  30.356  0.00  0.00     0.018 A 
ATOM      7  C   UNL d   1      58.931   0.674  30.466  0.00  0.00     0.002 A 
ATOM      8  C   UNL d   1      60.549  -0.561  28.456  0.00  0.00     0.018 A 
ATOM      9  C   UNL d   1      60.274   0.670  29.530  0.00  0.00     0.002 A 
ATOM     10  C   UNL d   1      58.246   0.682  30.947  0.00  0.00     0.000 A 
ATOM     11  C   UNL d   1      57.703   0.076  30.890  0.00  0.00     0.002 A 
ATOM     12  C   UNL d   1      60.955   0.681  29.064  0.00  0.00     0.000 A 
ATOM     13  C   UNL d   1      61.087   0.070  28.534  0.00  0.00     0.002 A 
ENDROOT
BRANCH   1  14
ATOM     14  C   UNL d   1      58.924  -1.611  28.832  0.00  0.00     0.086 C 
BRANCH  14  15
ATOM     15  C   UNL d   1      59.192  -2.336  29.160  0.00  0.00     0.089 C 
BRANCH  15  16
ATOM     16  C   UNL d   1      58.878  -3.050  28.876  0.00  0.00     0.213 C 
ATOM     17  O   UNL d   1      59.274  -3.750  29.025  0.00  0.00    -0.644 OA
ATOM     18  O   UNL d   1      58.408  -3.633  28.514  0.00  0.00    -0.644 OA
ENDBRANCH  15  16
ENDBRANCH  14  15
ENDBRANCH   1  14
TORSDOF 3
ENDMDL
MODEL 3
REMARK VINA RESULT:      -2.8      1.743      3.056
REMARK  3 active torsions:
REMARK  status: ('A' for Active; 'I' for Inactive)
REMARK    1  A    between atoms: C_6  and  N_1 
REMARK    2  A    between atoms: C_7  and  C_6 
REMARK    3  A    between atoms: C_8  and  C_7 
ROOT
ATOM      1  N   UNL d   1      59.030  -0.951  29.252  0.00  0.00    -0.305 N 
ATOM      2  C   UNL d   1      59.916  -0.585  28.904  0.00  0.00     0.064 A 
ATOM      3  C   UNL d   1      59.753   0.031  29.423  0.00  0.00     0.018 A 
ATOM      4  C   UNL d   1      58.529  -0.615  29.812  0.00  0.00     0.064 A 
ATOM      5  C   UNL d   1      59.055   0.008  29.876  0.00  0.00     0.018 A 
ATOM      6  C   UNL d   1      60.608  -0.562  28.455  0.00  0.00     0.018 A 
ATOM      7  C   UNL d   1      60.263   0.659  29.501  0.00  0.00     0.002 A 
ATOM      8  C   UNL d   1      57.830  -0.637  30.265  0.00  0.00     0.018 A 
ATOM      9  C   UNL d   1      58.893   0.627  30.397  0.00  0.00     0.002 A 
ATOM     10  C   UNL d   1      60.965   0.682  29.046  0.00  0.00     0.000 A 
ATOM     11  C   UNL d   1      61.133   0.075  28.528  0.00  0.00     0.002 A 
ATOM     12  C   UNL d   1      58.206   0.623  30.854  0.00  0.00     0.000 A 
ATOM     13  C   UNL d   1      57.684  -0.004  30.786  0.00  0.00     0.002 A 
ENDROOT
BRANCH   1  14
ATOM     14  C   UNL d   1      58.817  -1.676  28.911  0.00  0.00     0.086 C 
BRANCH  14  15
ATOM     15  C   UNL d   1      59.132  -2.386  29.227  0.00  0.00     0.089 C 
BRANCH  15  16
ATOM     16  C   UNL d   1      58.869  -3.115  28.927  0.00  0.00     0.213 C 
ATOM     17  O   UNL d   1      59.360  -3.768  28.972  0.00  0.00    -0.644 OA
ATOM     18  O   UNL d   1      58.427  -3.728  28.580  0.00  0.00    -0.644 OA
ENDBRANCH  15  16
ENDBRANCH  14  15
ENDBRANCH   1  14
TORSDOF 3
ENDMDL
MODEL 4
REMARK VINA RESULT:      -2.8      0.360      2.249
REMARK  3 active torsions:
REMARK  status: ('A' for Active; 'I' for Inactive)
REMARK    1  A    between atoms: C_6  and  N_1 
REMARK    2  A    between atoms: C_7  and  C_6 
REMARK    3  A    between atoms: C_8  and  C_7 
ROOT
ATOM      1  N   UNL d   1      58.880  -0.806  29.292  0.00  0.00    -0.305 N 
ATOM      2  C   UNL d   1      59.614  -0.129  29.087  0.00  0.00     0.064 A 
ATOM      3  C   UNL d   1      60.010  -0.791  28.806  0.00  0.00     0.018 A 
ATOM      4  C   UNL d   1      58.886  -1.618  29.155  0.00  0.00     0.064 A 
ATOM      5  C   UNL d   1      59.638  -1.536  28.844  0.00  0.00     0.018 A 
ATOM      6  C   UNL d   1      59.983   0.608  29.050  0.00  0.00     0.018 A 
ATOM      7  C   UNL d   1      60.759  -0.731  28.494  0.00  0.00     0.002 A 
ATOM      8  C   UNL d   1      58.514  -2.362  29.192  0.00  0.00     0.018 A 
ATOM      9  C   UNL d   1      60.038  -2.200  28.561  0.00  0.00     0.002 A 
ATOM     10  C   UNL d   1      61.133   0.017  28.456  0.00  0.00     0.000 A 
ATOM     11  C   UNL d   1      60.745   0.678  28.733  0.00  0.00     0.002 A 
ATOM     12  C   UNL d   1      59.686  -2.946  28.590  0.00  0.00     0.000 A 
ATOM     13  C   UNL d   1      58.933  -3.021  28.902  0.00  0.00     0.002 A 
ENDROOT
BRANCH   1  14
ATOM     14  C   UNL d   1      58.207  -0.467  29.638  0.00  0.00     0.086 C 
BRANCH  14  15
ATOM     15  C   UNL d   1      58.167  -0.394  30.473  0.00  0.00     0.089 C 
BRANCH  15  16
ATOM     16  C   UNL d   1      57.543   0.033  30.814  0.00  0.00     0.213 C 
ATOM     17  O   UNL d   1      57.320  -0.127  31.585  0.00  0.00    -0.644 OA
ATOM     18  O   UNL d   1      56.913   0.558  30.960  0.00  0.00    -0.644 OA
ENDBRANCH  15  16
ENDBRANCH  14  15
ENDBRANCH   1  14
TORSDOF 3
ENDMDL
MODEL 5
REMARK VINA RESULT:      -2.4      9.050      9.301
REMARK  3 active torsions:
REMARK  status: ('A' for Active; 'I' for Inactive)
REMARK    1  A    between atoms: C_6  and  N_1 
REMARK    2  A    between atoms: C_7  and  C_6 
REMARK    3  A    between atoms: C_8  and  C_7 
ROOT
ATOM      1  N   UNL d   1      59.135  -9.818  32.323  0.00  0.00    -0.305 N 
ATOM      2  C   UNL d   1      58.195  -9.818  31.926  0.00  0.00     0.064 A 
ATOM      3  C   UNL d   1      58.602  -9.818  31.213  0.00  0.00     0.018 A 
ATOM      4  C   UNL d   1      59.853  -9.818  31.921  0.00  0.00     0.064 A 
ATOM      5  C   UNL d   1      59.435  -9.818  31.218  0.00  0.00     0.018 A 
ATOM      6  C   UNL d   1      57.370  -9.818  31.921  0.00  0.00     0.018 A 
ATOM      7  C   UNL d   1      58.205  -9.818  30.503  0.00  0.00     0.002 A 
ATOM      8  C   UNL d   1      60.686  -9.818  31.927  0.00  0.00     0.018 A 
ATOM      9  C   UNL d   1      59.842  -9.818  30.501  0.00  0.00     0.002 A 
ATOM     10  C   UNL d   1      57.368  -9.818  30.498  0.00  0.00     0.000 A 
ATOM     11  C   UNL d   1      56.957  -9.818  31.202  0.00  0.00     0.002 A 
ATOM     12  C   UNL d   1      60.667  -9.818  30.486  0.00  0.00     0.000 A 
ATOM     13  C   UNL d   1      61.080  -9.818  31.192  0.00  0.00     0.002 A 
ENDROOT
BRANCH   1  14
ATOM     14  C   UNL d   1      59.142  -9.817  33.152  0.00  0.00     0.086 C 
BRANCH  14  15
ATOM     15  C   UNL d   1      59.074  -9.089  33.563  0.00  0.00     0.089 C 
BRANCH  15  16
ATOM     16  C   UNL d   1      59.229  -9.068  34.378  0.00  0.00     0.213 C 
ATOM     17  O   UNL d   1      59.445  -8.360  34.727  0.00  0.00    -0.644 OA
ATOM     18  O   UNL d   1      59.336  -9.259  35.181  0.00  0.00    -0.644 OA
ENDBRANCH  15  16
ENDBRANCH  14  15
ENDBRANCH   1  14
TORSDOF 3
ENDMDL
MODEL 6
REMARK VINA RESULT:      -1.9      3.290      5.607
REMARK  3 active torsions:
REMARK  status: ('A' for Active; 'I' for Inactive)
REMARK    1  A    between atoms: C_6  and  N_1 
REMARK    2  A    between atoms: C_7  and  C_6 
REMARK    3  A    between atoms: C_8  and  C_7 
ROOT
ATOM      1  N   UNL d   1      56.660   0.535  33.157  0.00  0.00    -0.305 N 
ATOM      2  C   UNL d   1      55.660   0.531  33.354  0.00  0.00     0.064 A 
ATOM      3  C   UNL d   1      55.913   0.582  34.134  0.00  0.00     0.018 A 
ATOM      4  C   UNL d   1      57.282   0.578  33.694  0.00  0.00     0.064 A 
ATOM      5  C   UNL d   1      56.730   0.605  34.297  0.00  0.00     0.018 A 
ATOM      6  C   UNL d   1      54.851   0.507  33.193  0.00  0.00     0.018 A 
ATOM      7  C   UNL d   1      55.380   0.610  34.747  0.00  0.00     0.002 A 
ATOM      8  C   UNL d   1      58.099   0.602  33.857  0.00  0.00     0.018 A 
ATOM      9  C   UNL d   1      56.982   0.657  35.080  0.00  0.00     0.002 A 
ATOM     10  C   UNL d   1      54.560   0.586  34.584  0.00  0.00     0.000 A 
ATOM     11  C   UNL d   1      54.301   0.536  33.812  0.00  0.00     0.002 A 
ATOM     12  C   UNL d   1      57.787   0.681  35.262  0.00  0.00     0.000 A 
ATOM     13  C   UNL d   1      58.335   0.654  34.655  0.00  0.00     0.002 A 
ENDROOT
BRANCH   1  14
ATOM     14  C   UNL d   1      56.836   0.489  32.348  0.00  0.00     0.086 C 
BRANCH  14  15
ATOM     15  C   UNL d   1      57.067  -0.247  32.019  0.00  0.00     0.089 C 
BRANCH  15  16
ATOM     16  C   UNL d   1      57.341  -0.274  31.236  0.00  0.00     0.213 C 
ATOM     17  O   UNL d   1      57.242  -0.958  30.799  0.00  0.00    -0.644 OA
ATOM     18  O   UNL d   1      57.676  -0.095  30.495  0.00  0.00    -0.644 OA
ENDBRANCH  15  16
ENDBRANCH  14  15
ENDBRANCH   1  14
TORSDOF 3
ENDMDL
MODEL 7
REMARK VINA RESULT:      -1.9      2.031      2.750
REMARK  3 active torsions:
REMARK  status: ('A' for Active; 'I' for Inactive)
REMARK    1  A    between atoms: C_6  and  N_1 
REMARK    2  A    between atoms: C_7  and  C_6 
REMARK    3  A    between atoms: C_8  and  C_7 
ROOT
ATOM      1  N   UNL d   1      58.375   0.654  30.901  0.00  0.00    -0.305 N 
ATOM      2  C   UNL d   1      59.206   0.666  31.492  0.00  0.00     0.064 A 
ATOM      3  C   UNL d   1      59.599   0.651  30.771  0.00  0.00     0.018 A 
ATOM      4  C   UNL d   1      58.338   0.637  30.079  0.00  0.00     0.064 A 
ATOM      5  C   UNL d   1      59.156   0.636  30.065  0.00  0.00     0.018 A 
ATOM      6  C   UNL d   1      59.645   0.681  32.190  0.00  0.00     0.018 A 
ATOM      7  C   UNL d   1      60.411   0.651  30.735  0.00  0.00     0.002 A 
ATOM      8  C   UNL d   1      57.896   0.622  29.374  0.00  0.00     0.018 A 
ATOM      9  C   UNL d   1      59.552   0.621  29.342  0.00  0.00     0.002 A 
ATOM     10  C   UNL d   1      60.856   0.666  31.444  0.00  0.00     0.000 A 
ATOM     11  C   UNL d   1      60.473   0.681  32.164  0.00  0.00     0.002 A 
ATOM     12  C   UNL d   1      59.132   0.607  28.632  0.00  0.00     0.000 A 
ATOM     13  C   UNL d   1      58.313   0.607  28.653  0.00  0.00     0.002 A 
ENDROOT
BRANCH   1  14
ATOM     14  C   UNL d   1      57.666   0.662  31.331  0.00  0.00     0.086 C 
BRANCH  14  15
ATOM     15  C   UNL d   1      57.283  -0.063  31.506  0.00  0.00     0.089 C 
BRANCH  15  16
ATOM     16  C   UNL d   1      56.627  -0.063  32.015  0.00  0.00     0.213 C 
ATOM     17  O   UNL d   1      56.255  -0.770  32.190  0.00  0.00    -0.644 OA
ATOM     18  O   UNL d   1      56.009   0.152  32.529  0.00  0.00    -0.644 OA
ENDBRANCH  15  16
ENDBRANCH  14  15
ENDBRANCH   1  14
TORSDOF 3
ENDMDL
MODEL 8
REMARK VINA RESULT:      -1.2      8.672      9.794
REMARK  3 active torsions:
REMARK  status: ('A' for Active; 'I' for Inactive)
REMARK    1  A    between atoms: C_6  and  N_1 
REMARK    2  A    between atoms: C_7  and  C_6 
REMARK    3  A    between atoms: C_8  and  C_7 
ROOT
ATOM      1  N   UNL d   1      59.297  -8.697  34.867  0.00  0.00    -0.305 N 
ATOM      2  C   UNL d   1      58.982  -7.752  35.085  0.00  0.00     0.064 A 
ATOM      3  C   UNL d   1      59.590  -7.782  35.636  0.00  0.00     0.018 A 
ATOM      4  C   UNL d   1      59.913  -9.118  35.214  0.00  0.00     0.064 A 
ATOM      5  C   UNL d   1      60.053  -8.472  35.695  0.00  0.00     0.018 A 
ATOM      6  C   UNL d   1      58.523  -7.069  35.026  0.00  0.00     0.018 A 
ATOM      7  C   UNL d   1      59.746  -7.150  36.124  0.00  0.00     0.002 A 
ATOM      8  C   UNL d   1      60.376  -9.808  35.273  0.00  0.00     0.018 A 
ATOM      9  C   UNL d   1      60.663  -8.500  36.250  0.00  0.00     0.002 A 
ATOM     10  C   UNL d   1      59.280  -6.457  36.064  0.00  0.00     0.000 A 
ATOM     11  C   UNL d   1      58.675  -6.420  35.519  0.00  0.00     0.002 A 
ATOM     12  C   UNL d   1      61.133  -9.174  36.323  0.00  0.00     0.000 A 
ATOM     13  C   UNL d   1      60.988  -9.818  35.839  0.00  0.00     0.002 A 
ENDROOT
BRANCH   1  14
ATOM     14  C   UNL d   1      58.859  -9.058  34.262  0.00  0.00     0.086 C 
BRANCH  14  15
ATOM     15  C   UNL d   1      59.168  -9.070  33.483  0.00  0.00     0.089 C 
BRANCH  15  16
ATOM     16  C   UNL d   1      58.681  -9.316  32.857  0.00  0.00     0.213 C 
ATOM     17  O   UNL d   1      58.992  -9.795  32.271  0.00  0.00    -0.644 OA
ATOM     18  O   UNL d   1      58.044  -9.446  32.338  0.00  0.00    -0.644 OA
ENDBRANCH  15  16
ENDBRANCH  14  15
ENDBRANCH   1  14
TORSDOF 3
ENDMDL
MODEL 9
REMARK VINA RESULT:      -0.1      2.678      3.568
REMARK  3 active torsions:
REMARK  status: ('A' for Active; 'I' for Inactive)
REMARK    1  A    between atoms: C_6  and  N_1 
REMARK    2  A    between atoms: C_7  and  C_6 
REMARK    3  A    between atoms: C_8  and  C_7 
ROOT
ATOM      1  N   UNL d   1      57.462   0.665  32.288  0.00  0.00    -0.305 N 
ATOM      2  C   UNL d   1      57.401   0.659  31.270  0.00  0.00     0.064 A 
ATOM      3  C   UNL d   1      58.220   0.663  31.319  0.00  0.00     0.018 A 
ATOM      4  C   UNL d   1      58.140   0.671  32.754  0.00  0.00     0.064 A 
ATOM      5  C   UNL d   1      58.585   0.669  32.068  0.00  0.00     0.018 A 
ATOM      6  C   UNL d   1      57.040   0.653  30.528  0.00  0.00     0.018 A 
ATOM      7  C   UNL d   1      58.680   0.661  30.648  0.00  0.00     0.002 A 
ATOM      8  C   UNL d   1      58.505   0.676  33.503  0.00  0.00     0.018 A 
ATOM      9  C   UNL d   1      59.408   0.673  32.114  0.00  0.00     0.002 A 
ATOM     10  C   UNL d   1      58.314   0.655  29.895  0.00  0.00     0.000 A 
ATOM     11  C   UNL d   1      57.501   0.651  29.839  0.00  0.00     0.002 A 
ATOM     12  C   UNL d   1      59.788   0.679  32.847  0.00  0.00     0.000 A 
ATOM     13  C   UNL d   1      59.337   0.680  33.531  0.00  0.00     0.002 A 
ENDROOT
BRANCH   1  14
ATOM     14  C   UNL d   1      56.722   0.663  32.662  0.00  0.00     0.086 C 
BRANCH  14  15
ATOM     15  C   UNL d   1      56.344  -0.068  32.821  0.00  0.00     0.089 C 
BRANCH  15  16
ATOM     16  C   UNL d   1      55.675  -0.080  33.313  0.00  0.00     0.213 C 
ATOM     17  O   UNL d   1      55.173  -0.726  33.291  0.00  0.00    -0.644 OA
ATOM     18  O   UNL d   1      55.081   0.102  33.867  0.00  0.00    -0.644 OA
ENDBRANCH  15  16
ENDBRANCH  14  15
ENDBRANCH   1  14
TORSDOF 3
ENDMDL
