MODEL 1
REMARK VINA RESULT:      -8.9      0.000      0.000
REMARK  4 active torsions:
REMARK  status: ('A' for Active; 'I' for Inactive)
REMARK    1  A    between atoms: C_10  and  N_1 
REMARK    2  A    between atoms: C_14  and  C_10 
REMARK    3  A    between atoms: O_16  and  C_12 
REMARK    4  A    between atoms: C_19  and  O_16 
ROOT
ATOM      1  N   UNL d   1     -49.213  13.347  22.534  0.00  0.00    -0.260 N 
ATOM      2  C   UNL d   1     -48.440  13.497  22.402  0.00  0.00     0.174 A 
ATOM      3  C   UNL d   1     -49.626  12.769  22.904  0.00  0.00     0.348 A 
ATOM      4  O   UNL d   1     -47.750  13.132  22.586  0.00  0.00    -0.314 OA
ATOM      5  N   UNL d   1     -49.431  12.107  23.294  0.00  0.00    -0.216 NA
ATOM      6  C   UNL d   1     -48.740  11.738  23.480  0.00  0.00     0.137 A 
ATOM      7  C   UNL d   1     -48.945  12.633  22.951  0.00  0.00     0.079 A 
ATOM      8  C   UNL d   1     -47.561  12.461  22.981  0.00  0.00     0.116 A 
ATOM      9  C   UNL d   1     -47.971  11.890  23.348  0.00  0.00     0.025 A 
ATOM     10  O   UNL d   1     -50.408  12.889  22.873  0.00  0.00    -0.245 OA
ATOM     11  C   UNL d   1     -46.758  12.427  22.960  0.00  0.00     0.122 A 
ATOM     12  C   UNL d   1     -48.169  14.139  22.000  0.00  0.00     0.055 C 
ATOM     13  C   UNL d   1     -47.590  11.278  23.697  0.00  0.00    -0.000 A 
ATOM     14  C   UNL d   1     -46.791  11.245  23.675  0.00  0.00     0.002 A 
ATOM     15  C   UNL d   1     -46.374  11.820  23.305  0.00  0.00     0.027 A 
ENDROOT
BRANCH   1  16
ATOM     16  C   UNL d   1     -49.849  13.812  22.286  0.00  0.00     0.082 C 
BRANCH  16  17
ATOM     17  C   UNL d   1     -50.078  14.470  22.743  0.00  0.00     0.017 A 
ATOM     18  C   UNL d   1     -50.782  14.444  23.181  0.00  0.00     0.002 A 
ATOM     19  C   UNL d   1     -51.010  15.101  23.638  0.00  0.00     0.000 A 
ATOM     20  C   UNL d   1     -50.533  15.782  23.655  0.00  0.00     0.000 A 
ATOM     21  C   UNL d   1     -49.827  15.800  23.212  0.00  0.00     0.000 A 
ATOM     22  C   UNL d   1     -49.603  15.148  22.761  0.00  0.00     0.002 A 
ENDBRANCH  16  17
ENDBRANCH   1  16
BRANCH  11  23
ATOM     23  O   UNL d   1     -46.332  13.022  22.578  0.00  0.00    -0.303 OA
BRANCH  23  24
ATOM     24  C   UNL d   1     -45.539  12.900  22.385  0.00  0.00     0.123 C 
ATOM     25  C   UNL d   1     -45.065  13.548  22.172  0.00  0.00     0.029 C 
ENDBRANCH  23  24
ENDBRANCH  11  23
TORSDOF 4
ENDMDL
MODEL 2
REMARK VINA RESULT:      -8.6      1.257      2.307
REMARK  4 active torsions:
REMARK  status: ('A' for Active; 'I' for Inactive)
REMARK    1  A    between atoms: C_10  and  N_1 
REMARK    2  A    between atoms: C_14  and  C_10 
REMARK    3  A    between atoms: O_16  and  C_12 
REMARK    4  A    between atoms: C_19  and  O_16 
ROOT
ATOM      1  N   UNL d   1     -48.584  13.724  23.197  0.00  0.00    -0.260 N 
ATOM      2  C   UNL d   1     -48.185  13.044  23.321  0.00  0.00     0.174 A 
ATOM      3  C   UNL d   1     -48.396  14.454  22.925  0.00  0.00     0.348 A 
ATOM      4  O   UNL d   1     -47.426  12.805  23.227  0.00  0.00    -0.314 OA
ATOM      5  N   UNL d   1     -47.730  14.798  22.668  0.00  0.00    -0.216 NA
ATOM      6  C   UNL d   1     -46.967  14.560  22.572  0.00  0.00     0.137 A 
ATOM      7  C   UNL d   1     -47.828  14.053  22.924  0.00  0.00     0.079 A 
ATOM      8  C   UNL d   1     -46.757  13.160  22.966  0.00  0.00     0.116 A 
ATOM      9  C   UNL d   1     -46.571  13.882  22.697  0.00  0.00     0.025 A 
ATOM     10  O   UNL d   1     -49.020  14.941  22.911  0.00  0.00    -0.245 OA
ATOM     11  C   UNL d   1     -46.188  12.594  23.017  0.00  0.00     0.122 A 
ATOM     12  C   UNL d   1     -48.521  12.372  23.608  0.00  0.00     0.055 C 
ATOM     13  C   UNL d   1     -45.821  14.053  22.476  0.00  0.00    -0.000 A 
ATOM     14  C   UNL d   1     -45.255  13.488  22.528  0.00  0.00     0.002 A 
ATOM     15  C   UNL d   1     -45.440  12.757  22.799  0.00  0.00     0.027 A 
ENDROOT
BRANCH   1  16
ATOM     16  C   UNL d   1     -49.389  13.850  23.337  0.00  0.00     0.082 C 
BRANCH  16  17
ATOM     17  C   UNL d   1     -49.948  13.583  22.781  0.00  0.00     0.017 A 
ATOM     18  C   UNL d   1     -50.162  14.069  22.144  0.00  0.00     0.002 A 
ATOM     19  C   UNL d   1     -50.721  13.802  21.587  0.00  0.00     0.000 A 
ATOM     20  C   UNL d   1     -51.064  13.049  21.672  0.00  0.00     0.000 A 
ATOM     21  C   UNL d   1     -50.844  12.566  22.315  0.00  0.00     0.000 A 
ATOM     22  C   UNL d   1     -50.290  12.833  22.864  0.00  0.00     0.002 A 
ENDBRANCH  16  17
ENDBRANCH   1  16
BRANCH  11  23
ATOM     23  O   UNL d   1     -46.382  11.841  23.297  0.00  0.00    -0.303 OA
BRANCH  23  24
ATOM     24  C   UNL d   1     -45.799  11.260  23.350  0.00  0.00     0.123 C 
ATOM     25  C   UNL d   1     -45.981  10.527  23.697  0.00  0.00     0.029 C 
ENDBRANCH  23  24
ENDBRANCH  11  23
TORSDOF 4
ENDMDL
MODEL 3
REMARK VINA RESULT:      -8.5      1.030      3.762
REMARK  4 active torsions:
REMARK  status: ('A' for Active; 'I' for Inactive)
REMARK    1  A    between atoms: C_10  and  N_1 
REMARK    2  A    between atoms: C_14  and  C_10 
REMARK    3  A    between atoms: O_16  and  C_12 
REMARK    4  A    between atoms: C_19  and  O_16 
ROOT
ATOM      1  N   UNL d   1     -47.547  12.705  23.468  0.00  0.00    -0.260 N 
ATOM      2  C   UNL d   1     -48.019  13.327  23.301  0.00  0.00     0.174 A 
ATOM      3  C   UNL d   1     -47.640  11.910  23.497  0.00  0.00     0.348 A 
ATOM      4  O   UNL d   1     -48.788  13.417  23.093  0.00  0.00    -0.314 OA
ATOM      5  N   UNL d   1     -48.246  11.415  23.371  0.00  0.00    -0.216 NA
ATOM      6  C   UNL d   1     -49.019  11.503  23.162  0.00  0.00     0.137 A 
ATOM      7  C   UNL d   1     -48.243  12.208  23.318  0.00  0.00     0.079 A 
ATOM      8  C   UNL d   1     -49.396  12.911  22.968  0.00  0.00     0.116 A 
ATOM      9  C   UNL d   1     -49.488  12.123  22.997  0.00  0.00     0.025 A 
ATOM     10  O   UNL d   1     -46.973  11.535  23.698  0.00  0.00    -0.245 OA
ATOM     11  C   UNL d   1     -50.019  13.379  22.772  0.00  0.00     0.122 A 
ATOM     12  C   UNL d   1     -47.775  14.093  23.314  0.00  0.00     0.055 C 
ATOM     13  C   UNL d   1     -50.198  11.791  22.833  0.00  0.00    -0.000 A 
ATOM     14  C   UNL d   1     -50.818  12.259  22.638  0.00  0.00     0.002 A 
ATOM     15  C   UNL d   1     -50.728  13.054  22.608  0.00  0.00     0.027 A 
ENDROOT
BRANCH   1  16
ATOM     16  C   UNL d   1     -46.748  12.742  23.675  0.00  0.00     0.082 C 
BRANCH  16  17
ATOM     17  C   UNL d   1     -46.179  12.906  23.089  0.00  0.00     0.017 A 
ATOM     18  C   UNL d   1     -45.756  12.285  22.738  0.00  0.00     0.002 A 
ATOM     19  C   UNL d   1     -45.188  12.449  22.152  0.00  0.00     0.000 A 
ATOM     20  C   UNL d   1     -45.046  13.235  21.919  0.00  0.00     0.000 A 
ATOM     21  C   UNL d   1     -45.475  13.853  22.277  0.00  0.00     0.000 A 
ATOM     22  C   UNL d   1     -46.037  13.688  22.857  0.00  0.00     0.002 A 
ENDBRANCH  16  17
ENDBRANCH   1  16
BRANCH  11  23
ATOM     23  O   UNL d   1     -49.923  14.199  22.742  0.00  0.00    -0.303 OA
BRANCH  23  24
ATOM     24  C   UNL d   1     -50.561  14.679  22.534  0.00  0.00     0.123 C 
ATOM     25  C   UNL d   1     -50.527  15.495  22.689  0.00  0.00     0.029 C 
ENDBRANCH  23  24
ENDBRANCH  11  23
TORSDOF 4
ENDMDL
MODEL 4
REMARK VINA RESULT:      -6.4      1.623      2.273
REMARK  4 active torsions:
REMARK  status: ('A' for Active; 'I' for Inactive)
REMARK    1  A    between atoms: C_10  and  N_1 
REMARK    2  A    between atoms: C_14  and  C_10 
REMARK    3  A    between atoms: O_16  and  C_12 
REMARK    4  A    between atoms: C_19  and  O_16 
ROOT
ATOM      1  N   UNL d   1     -47.508  12.605  23.194  0.00  0.00    -0.260 N 
ATOM      2  C   UNL d   1     -46.795  12.852  22.934  0.00  0.00     0.174 A 
ATOM      3  C   UNL d   1     -47.796  11.928  23.512  0.00  0.00     0.348 A 
ATOM      4  O   UNL d   1     -46.065  12.525  22.881  0.00  0.00    -0.314 OA
ATOM      5  N   UNL d   1     -47.485  11.224  23.698  0.00  0.00    -0.216 NA
ATOM      6  C   UNL d   1     -46.752  10.893  23.646  0.00  0.00     0.137 A 
ATOM      7  C   UNL d   1     -47.118  11.851  23.379  0.00  0.00     0.079 A 
ATOM      8  C   UNL d   1     -45.758  11.811  23.071  0.00  0.00     0.116 A 
ATOM      9  C   UNL d   1     -46.043  11.141  23.386  0.00  0.00     0.025 A 
ATOM     10  O   UNL d   1     -48.569  11.977  23.677  0.00  0.00    -0.245 OA
ATOM     11  C   UNL d   1     -44.981  11.858  22.870  0.00  0.00     0.122 A 
ATOM     12  C   UNL d   1     -46.656  13.584  22.631  0.00  0.00     0.055 C 
ATOM     13  C   UNL d   1     -45.563  10.511  23.505  0.00  0.00    -0.000 A 
ATOM     14  C   UNL d   1     -44.790  10.560  23.303  0.00  0.00     0.002 A 
ATOM     15  C   UNL d   1     -44.498  11.235  22.985  0.00  0.00     0.027 A 
ENDROOT
BRANCH   1  16
ATOM     16  C   UNL d   1     -48.206  13.047  23.197  0.00  0.00     0.082 C 
BRANCH  16  17
ATOM     17  C   UNL d   1     -48.652  13.113  22.496  0.00  0.00     0.017 A 
ATOM     18  C   UNL d   1     -48.619  13.810  22.048  0.00  0.00     0.002 A 
ATOM     19  C   UNL d   1     -49.065  13.876  21.348  0.00  0.00     0.000 A 
ATOM     20  C   UNL d   1     -49.543  13.242  21.100  0.00  0.00     0.000 A 
ATOM     21  C   UNL d   1     -49.571  12.545  21.556  0.00  0.00     0.000 A 
ATOM     22  C   UNL d   1     -49.128  12.483  22.248  0.00  0.00     0.002 A 
ENDBRANCH  16  17
ENDBRANCH   1  16
BRANCH  11  23
ATOM     23  O   UNL d   1     -44.684  12.556  22.542  0.00  0.00    -0.303 OA
BRANCH  23  24
ATOM     24  C   UNL d   1     -43.925  12.567  22.221  0.00  0.00     0.123 C 
ATOM     25  C   UNL d   1     -43.788  12.968  21.505  0.00  0.00     0.029 C 
ENDBRANCH  23  24
ENDBRANCH  11  23
TORSDOF 4
ENDMDL
MODEL 5
REMARK VINA RESULT:      -6.3      8.351     10.716
REMARK  4 active torsions:
REMARK  status: ('A' for Active; 'I' for Inactive)
REMARK    1  A    between atoms: C_10  and  N_1 
REMARK    2  A    between atoms: C_14  and  C_10 
REMARK    3  A    between atoms: O_16  and  C_12 
REMARK    4  A    between atoms: C_19  and  O_16 
ROOT
ATOM      1  N   UNL d   1     -39.283  13.958  18.071  0.00  0.00    -0.260 N 
ATOM      2  C   UNL d   1     -39.785  14.376  18.530  0.00  0.00     0.174 A 
ATOM      3  C   UNL d   1     -38.633  13.509  18.200  0.00  0.00     0.348 A 
ATOM      4  O   UNL d   1     -39.850  14.522  19.315  0.00  0.00    -0.314 OA
ATOM      5  N   UNL d   1     -38.222  13.296  18.844  0.00  0.00    -0.216 NA
ATOM      6  C   UNL d   1     -38.285  13.440  19.633  0.00  0.00     0.137 A 
ATOM      7  C   UNL d   1     -38.869  13.754  18.807  0.00  0.00     0.079 A 
ATOM      8  C   UNL d   1     -39.429  14.302  19.961  0.00  0.00     0.116 A 
ATOM      9  C   UNL d   1     -38.786  13.857  20.088  0.00  0.00     0.025 A 
ATOM     10  O   UNL d   1     -38.334  13.210  17.531  0.00  0.00    -0.245 OA
ATOM     11  C   UNL d   1     -39.805  14.649  20.581  0.00  0.00     0.122 A 
ATOM     12  C   UNL d   1     -40.414  14.791  18.247  0.00  0.00     0.055 C 
ATOM     13  C   UNL d   1     -38.506  13.750  20.831  0.00  0.00    -0.000 A 
ATOM     14  C   UNL d   1     -38.881  14.097  21.448  0.00  0.00     0.002 A 
ATOM     15  C   UNL d   1     -39.532  14.547  21.323  0.00  0.00     0.027 A 
ENDROOT
BRANCH   1  16
ATOM     16  C   UNL d   1     -39.322  13.883  17.249  0.00  0.00     0.082 C 
BRANCH  16  17
ATOM     17  C   UNL d   1     -39.003  14.482  16.767  0.00  0.00     0.017 A 
ATOM     18  C   UNL d   1     -39.426  15.185  16.648  0.00  0.00     0.002 A 
ATOM     19  C   UNL d   1     -39.106  15.784  16.165  0.00  0.00     0.000 A 
ATOM     20  C   UNL d   1     -38.365  15.676  15.804  0.00  0.00     0.000 A 
ATOM     21  C   UNL d   1     -37.947  14.966  15.929  0.00  0.00     0.000 A 
ATOM     22  C   UNL d   1     -38.266  14.375  16.407  0.00  0.00     0.002 A 
ENDBRANCH  16  17
ENDBRANCH   1  16
BRANCH  11  23
ATOM     23  O   UNL d   1     -40.475  15.113  20.448  0.00  0.00    -0.303 OA
BRANCH  23  24
ATOM     24  C   UNL d   1     -40.808  15.541  21.069  0.00  0.00     0.123 C 
ATOM     25  C   UNL d   1     -41.538  15.922  20.960  0.00  0.00     0.029 C 
ENDBRANCH  23  24
ENDBRANCH  11  23
TORSDOF 4
ENDMDL
MODEL 6
REMARK VINA RESULT:      -6.2      8.742     10.614
REMARK  4 active torsions:
REMARK  status: ('A' for Active; 'I' for Inactive)
REMARK    1  A    between atoms: C_10  and  N_1 
REMARK    2  A    between atoms: C_14  and  C_10 
REMARK    3  A    between atoms: O_16  and  C_12 
REMARK    4  A    between atoms: C_19  and  O_16 
ROOT
ATOM      1  N   UNL d   1     -39.378  15.880  19.705  0.00  0.00    -0.260 N 
ATOM      2  C   UNL d   1     -39.961  15.857  19.160  0.00  0.00     0.174 A 
ATOM      3  C   UNL d   1     -38.578  15.907  19.683  0.00  0.00     0.348 A 
ATOM      4  O   UNL d   1     -39.991  15.851  18.360  0.00  0.00    -0.314 OA
ATOM      5  N   UNL d   1     -38.037  15.921  19.103  0.00  0.00    -0.216 NA
ATOM      6  C   UNL d   1     -38.064  15.915  18.298  0.00  0.00     0.137 A 
ATOM      7  C   UNL d   1     -38.827  15.894  19.033  0.00  0.00     0.079 A 
ATOM      8  C   UNL d   1     -39.439  15.866  17.780  0.00  0.00     0.116 A 
ATOM      9  C   UNL d   1     -38.646  15.892  17.758  0.00  0.00     0.025 A 
ATOM     10  O   UNL d   1     -38.255  15.922  20.405  0.00  0.00    -0.245 OA
ATOM     11  C   UNL d   1     -39.857  15.848  17.093  0.00  0.00     0.122 A 
ATOM     12  C   UNL d   1     -40.745  15.832  19.341  0.00  0.00     0.055 C 
ATOM     13  C   UNL d   1     -38.259  15.901  17.057  0.00  0.00    -0.000 A 
ATOM     14  C   UNL d   1     -38.678  15.883  16.374  0.00  0.00     0.002 A 
ATOM     15  C   UNL d   1     -39.478  15.856  16.392  0.00  0.00     0.027 A 
ENDROOT
BRANCH   1  16
ATOM     16  C   UNL d   1     -39.477  15.882  20.525  0.00  0.00     0.082 C 
BRANCH  16  17
ATOM     17  C   UNL d   1     -39.697  15.178  20.913  0.00  0.00     0.017 A 
ATOM     18  C   UNL d   1     -40.479  14.908  20.866  0.00  0.00     0.002 A 
ATOM     19  C   UNL d   1     -40.699  14.204  21.254  0.00  0.00     0.000 A 
ATOM     20  C   UNL d   1     -40.134  13.774  21.687  0.00  0.00     0.000 A 
ATOM     21  C   UNL d   1     -39.349  14.054  21.729  0.00  0.00     0.000 A 
ATOM     22  C   UNL d   1     -39.135  14.751  21.344  0.00  0.00     0.002 A 
ENDBRANCH  16  17
ENDBRANCH   1  16
BRANCH  11  23
ATOM     23  O   UNL d   1     -40.682  15.821  17.116  0.00  0.00    -0.303 OA
BRANCH  23  24
ATOM     24  C   UNL d   1     -41.116  15.921  16.422  0.00  0.00     0.123 C 
ATOM     25  C   UNL d   1     -41.938  15.801  16.431  0.00  0.00     0.029 C 
ENDBRANCH  23  24
ENDBRANCH  11  23
TORSDOF 4
ENDMDL
MODEL 7
REMARK VINA RESULT:      -6.0      8.559     10.740
REMARK  4 active torsions:
REMARK  status: ('A' for Active; 'I' for Inactive)
REMARK    1  A    between atoms: C_10  and  N_1 
REMARK    2  A    between atoms: C_14  and  C_10 
REMARK    3  A    between atoms: O_16  and  C_12 
REMARK    4  A    between atoms: C_19  and  O_16 
ROOT
ATOM      1  N   UNL d   1     -38.853  15.251  18.425  0.00  0.00    -0.260 N 
ATOM      2  C   UNL d   1     -38.708  14.886  19.120  0.00  0.00     0.174 A 
ATOM      3  C   UNL d   1     -39.457  15.682  18.123  0.00  0.00     0.348 A 
ATOM      4  O   UNL d   1     -39.105  14.797  19.809  0.00  0.00    -0.314 OA
ATOM      5  N   UNL d   1     -40.161  15.922  18.397  0.00  0.00    -0.216 NA
ATOM      6  C   UNL d   1     -40.563  15.834  19.089  0.00  0.00     0.137 A 
ATOM      7  C   UNL d   1     -39.613  15.488  18.773  0.00  0.00     0.079 A 
ATOM      8  C   UNL d   1     -39.818  15.043  20.079  0.00  0.00     0.116 A 
ATOM      9  C   UNL d   1     -40.416  15.470  19.780  0.00  0.00     0.025 A 
ATOM     10  O   UNL d   1     -39.317  15.922  17.382  0.00  0.00    -0.245 OA
ATOM     11  C   UNL d   1     -39.869  14.755  20.828  0.00  0.00     0.122 A 
ATOM     12  C   UNL d   1     -38.033  14.478  19.280  0.00  0.00     0.055 C 
ATOM     13  C   UNL d   1     -41.070  15.616  20.218  0.00  0.00    -0.000 A 
ATOM     14  C   UNL d   1     -41.119  15.328  20.964  0.00  0.00     0.002 A 
ATOM     15  C   UNL d   1     -40.517  14.896  21.269  0.00  0.00     0.027 A 
ENDROOT
BRANCH   1  16
ATOM     16  C   UNL d   1     -38.349  15.272  17.770  0.00  0.00     0.082 C 
BRANCH  16  17
ATOM     17  C   UNL d   1     -38.334  14.626  17.244  0.00  0.00     0.017 A 
ATOM     18  C   UNL d   1     -37.955  13.923  17.464  0.00  0.00     0.002 A 
ATOM     19  C   UNL d   1     -37.939  13.277  16.938  0.00  0.00     0.000 A 
ATOM     20  C   UNL d   1     -38.305  13.339  16.194  0.00  0.00     0.000 A 
ATOM     21  C   UNL d   1     -38.685  14.050  15.980  0.00  0.00     0.000 A 
ATOM     22  C   UNL d   1     -38.698  14.687  16.503  0.00  0.00     0.002 A 
ENDBRANCH  16  17
ENDBRANCH   1  16
BRANCH  11  23
ATOM     23  O   UNL d   1     -39.246  14.310  21.139  0.00  0.00    -0.303 OA
BRANCH  23  24
ATOM     24  C   UNL d   1     -39.278  14.050  21.921  0.00  0.00     0.123 C 
ATOM     25  C   UNL d   1     -38.725  13.492  22.190  0.00  0.00     0.029 C 
ENDBRANCH  23  24
ENDBRANCH  11  23
TORSDOF 4
ENDMDL
