MODEL 1
REMARK VINA RESULT:      45.8      0.000      0.000
REMARK  3 active torsions:
REMARK  status: ('A' for Active; 'I' for Inactive)
REMARK    1  A    between atoms: N_2  and  S_1 
REMARK    2  A    between atoms: C_4  and  S_1 
REMARK    3  A    between atoms: C_3  and  N_2 
ROOT
ATOM      1  S   UNL d   1     -56.267 -99.550 -44.600  0.00  0.00     0.285 S 
ATOM      2  O   UNL d   1     -56.042 -98.776 -44.789  0.00  0.00    -0.198 OA
ATOM      3  O   UNL d   1     -56.495-100.328 -44.410  0.00  0.00    -0.198 OA
ENDROOT
BRANCH   1   4
ATOM      4  N   UNL d   1     -55.469 -99.754 -44.477  0.00  0.00    -0.158 NA
BRANCH   4   5
ATOM      5  C   UNL d   1     -55.280-100.479 -44.125  0.00  0.00     0.094 A 
ATOM      6  C   UNL d   1     -55.190-100.550 -43.305  0.00  0.00     0.023 A 
ATOM      7  C   UNL d   1     -55.004-101.264 -42.963  0.00  0.00     0.041 A 
ATOM      8  C   UNL d   1     -54.924-101.295 -42.147  0.00  0.00     0.003 C 
ATOM      9  C   UNL d   1     -54.900-101.949 -43.450  0.00  0.00     0.196 A 
ATOM     10  C   UNL d   1     -54.990-101.878 -44.270  0.00  0.00     0.044 A 
ATOM     11  O   UNL d   1     -54.711-102.675 -43.098  0.00  0.00    -0.287 OA
ATOM     12  C   UNL d   1     -55.177-101.149 -44.595  0.00  0.00     0.022 A 
ATOM     13  C   UNL d   1     -55.263-101.094 -45.405  0.00  0.00     0.002 C 
ENDBRANCH   4   5
ENDBRANCH   1   4
BRANCH   1  14
ATOM     14  C   UNL d   1     -57.067 -99.350 -44.723  0.00  0.00     0.105 A 
ATOM     15  C   UNL d   1     -57.285 -99.001 -45.428  0.00  0.00     0.013 A 
ATOM     16  C   UNL d   1     -58.056 -98.804 -45.555  0.00  0.00     0.001 A 
ATOM     17  C   UNL d   1     -58.643 -98.955 -44.965  0.00  0.00     0.000 A 
ATOM     18  C   UNL d   1     -58.419 -99.306 -44.255  0.00  0.00     0.001 A 
ATOM     19  C   UNL d   1     -59.462 -98.756 -45.076  0.00  0.00     0.000 C 
ATOM     20  C   UNL d   1     -57.623 -99.505 -44.134  0.00  0.00     0.013 A 
ENDBRANCH   1  14
TORSDOF 3
ENDMDL
MODEL 2
REMARK VINA RESULT:      48.6      1.389      3.948
REMARK  3 active torsions:
REMARK  status: ('A' for Active; 'I' for Inactive)
REMARK    1  A    between atoms: N_2  and  S_1 
REMARK    2  A    between atoms: C_4  and  S_1 
REMARK    3  A    between atoms: C_3  and  N_2 
ROOT
ATOM      1  S   UNL d   1     -54.875-100.663 -43.258  0.00  0.00     0.285 S 
ATOM      2  O   UNL d   1     -54.711-100.051 -42.725  0.00  0.00    -0.198 OA
ATOM      3  O   UNL d   1     -55.039-101.279 -43.794  0.00  0.00    -0.198 OA
ENDROOT
BRANCH   1   4
ATOM      4  N   UNL d   1     -54.900-100.113 -43.883  0.00  0.00    -0.158 NA
BRANCH   4   5
ATOM      5  C   UNL d   1     -55.625 -99.781 -44.108  0.00  0.00     0.094 A 
ATOM      6  C   UNL d   1     -56.344-100.112 -43.868  0.00  0.00     0.023 A 
ATOM      7  C   UNL d   1     -57.054 -99.782 -44.091  0.00  0.00     0.041 A 
ATOM      8  C   UNL d   1     -57.746-100.139 -43.833  0.00  0.00     0.003 C 
ATOM      9  C   UNL d   1     -57.061 -99.088 -44.577  0.00  0.00     0.196 A 
ATOM     10  C   UNL d   1     -56.341 -98.758 -44.817  0.00  0.00     0.044 A 
ATOM     11  O   UNL d   1     -57.786 -98.756 -44.802  0.00  0.00    -0.287 OA
ATOM     12  C   UNL d   1     -55.637 -99.105 -44.581  0.00  0.00     0.022 A 
ATOM     13  C   UNL d   1     -54.935 -98.767 -44.826  0.00  0.00     0.002 C 
ENDBRANCH   4   5
ENDBRANCH   1   4
BRANCH   1  14
ATOM     14  C   UNL d   1     -54.850-101.216 -42.635  0.00  0.00     0.105 A 
ATOM     15  C   UNL d   1     -54.920-102.011 -42.808  0.00  0.00     0.013 A 
ATOM     16  C   UNL d   1     -54.897-102.553 -42.211  0.00  0.00     0.001 A 
ATOM     17  C   UNL d   1     -54.801-102.307 -41.408  0.00  0.00     0.000 A 
ATOM     18  C   UNL d   1     -54.730-101.505 -41.238  0.00  0.00     0.001 A 
ATOM     19  C   UNL d   1     -54.773-102.859 -40.762  0.00  0.00     0.000 C 
ATOM     20  C   UNL d   1     -54.755-100.955 -41.859  0.00  0.00     0.013 A 
ENDBRANCH   1  14
TORSDOF 3
ENDMDL
