MODEL 1
REMARK VINA RESULT:      58.6      0.000      0.000
REMARK  6 active torsions:
REMARK  status: ('A' for Active; 'I' for Inactive)
REMARK    1  A    between atoms: C_22  and  C_3 
REMARK    2  A    between atoms: S_17  and  C_5 
REMARK    3  A    between atoms: C_11  and  C_16 
REMARK       I    between atoms: N_14  and  C_11 
REMARK    4  A    between atoms: C_19  and  N_14 
REMARK    5  A    between atoms: C_16  and  C_20 
REMARK    6  A    between atoms: C_20  and  S_17 
ROOT
ATOM      1  C   UNL d   1      13.696  13.363  -3.373  0.00  0.00     0.092 A 
ATOM      2  C   UNL d   1      14.272  13.104  -2.096  0.00  0.00     0.057 A 
ATOM      3  C   UNL d   1      13.873  12.837  -2.766  0.00  0.00     0.016 A 
ATOM      4  N   UNL d   1      14.315  14.422  -2.644  0.00  0.00    -0.239 NA
ATOM      5  C   UNL d   1      13.916  14.155  -3.312  0.00  0.00     0.120 A 
ATOM      6  C   UNL d   1      14.493  13.896  -2.035  0.00  0.00     0.081 A 
ATOM      7  C   UNL d   1      14.449  12.577  -1.489  0.00  0.00     0.193 A 
ATOM      8  C   UNL d   1      13.291  13.094  -4.054  0.00  0.00     0.103 C 
ATOM      9  N   UNL d   1      12.887  12.816  -4.728  0.00  0.00    -0.191 NA
ATOM     10  C   UNL d   1      15.072  13.636  -0.751  0.00  0.00     0.042 A 
ATOM     11  C   UNL d   1      14.852  12.843  -0.812  0.00  0.00     0.019 A 
ATOM     12  C   UNL d   1      14.891  14.162  -1.366  0.00  0.00    -0.003 A 
ATOM     13  O   UNL d   1      14.229  11.786  -1.550  0.00  0.00    -0.287 OA
ATOM     14  C   UNL d   1      15.395  14.337  -0.443  0.00  0.00     0.009 C 
ATOM     15  C   UNL d   1      15.254  13.117  -0.138  0.00  0.00     0.009 C 
ENDROOT
BRANCH   3  16
ATOM     16  C   UNL d   1      13.652  12.045  -2.827  0.00  0.00     0.001 C 
ATOM     17  C   UNL d   1      13.240  11.781  -3.490  0.00  0.00     0.000 C 
ENDBRANCH   3  16
BRANCH   5  18
ATOM     18  S   UNL d   1      13.734  14.683  -3.932  0.00  0.00    -0.067 SA
BRANCH  18  19
ATOM     19  C   UNL d   1      14.110  15.416  -3.976  0.00  0.00     0.042 C 
BRANCH  19  20
ATOM     20  C   UNL d   1      14.332  15.721  -4.712  0.00  0.00     0.070 C 
BRANCH  20  21
ATOM     21  C   UNL d   1      14.336  16.548  -4.832  0.00  0.00     0.280 C 
ATOM     22  N   UNL d   1      14.222  16.850  -5.594  0.00  0.00    -0.208 NA
ATOM     23  O   UNL d   1      14.455  17.054  -4.191  0.00  0.00    -0.265 OA
BRANCH  22  24
ATOM     24  C   UNL d   1      14.226  17.678  -5.714  0.00  0.00     0.085 A 
ATOM     25  C   UNL d   1      13.601  18.032  -6.115  0.00  0.00     0.021 A 
ATOM     26  C   UNL d   1      13.598  18.846  -6.237  0.00  0.00     0.031 A 
ATOM     27  C   UNL d   1      14.223  19.307  -5.957  0.00  0.00     0.140 A 
ATOM     28  C   UNL d   1      14.853  18.947  -5.552  0.00  0.00     0.031 A 
ATOM     29  F   UNL d   1      14.229  20.131  -6.075  0.00  0.00    -0.204 F 
ATOM     30  C   UNL d   1      14.854  18.133  -5.431  0.00  0.00     0.021 A 
ENDBRANCH  22  24
ENDBRANCH  20  21
ENDBRANCH  19  20
ENDBRANCH  18  19
ENDBRANCH   5  18
TORSDOF 6
ENDMDL
MODEL 2
REMARK VINA RESULT:      61.0      0.928      2.366
REMARK  6 active torsions:
REMARK  status: ('A' for Active; 'I' for Inactive)
REMARK    1  A    between atoms: C_22  and  C_3 
REMARK    2  A    between atoms: S_17  and  C_5 
REMARK    3  A    between atoms: C_11  and  C_16 
REMARK       I    between atoms: N_14  and  C_11 
REMARK    4  A    between atoms: C_19  and  N_14 
REMARK    5  A    between atoms: C_16  and  C_20 
REMARK    6  A    between atoms: C_20  and  S_17 
ROOT
ATOM      1  C   UNL d   1      14.610  14.141  -1.819  0.00  0.00     0.092 A 
ATOM      2  C   UNL d   1      14.008  13.093  -2.574  0.00  0.00     0.057 A 
ATOM      3  C   UNL d   1      14.378  13.354  -1.886  0.00  0.00     0.016 A 
ATOM      4  N   UNL d   1      14.102  14.406  -3.127  0.00  0.00    -0.239 NA
ATOM      5  C   UNL d   1      14.472  14.667  -2.440  0.00  0.00     0.120 A 
ATOM      6  C   UNL d   1      13.870  13.619  -3.194  0.00  0.00     0.081 A 
ATOM      7  C   UNL d   1      13.777  12.306  -2.640  0.00  0.00     0.193 A 
ATOM      8  C   UNL d   1      14.986  14.409  -1.122  0.00  0.00     0.103 C 
ATOM      9  N   UNL d   1      15.360  14.666  -0.423  0.00  0.00    -0.191 NA
ATOM     10  C   UNL d   1      13.264  12.564  -3.953  0.00  0.00     0.042 A 
ATOM     11  C   UNL d   1      13.403  12.039  -3.332  0.00  0.00     0.019 A 
ATOM     12  C   UNL d   1      13.500  13.357  -3.881  0.00  0.00    -0.003 A 
ATOM     13  O   UNL d   1      13.915  11.781  -2.020  0.00  0.00    -0.287 OA
ATOM     14  C   UNL d   1      13.015  12.858  -4.689  0.00  0.00     0.009 C 
ATOM     15  C   UNL d   1      13.029  11.779  -4.029  0.00  0.00     0.009 C 
ENDROOT
BRANCH   3  16
ATOM     16  C   UNL d   1      14.517  12.829  -1.266  0.00  0.00     0.001 C 
ATOM     17  C   UNL d   1      15.245  12.448  -1.202  0.00  0.00     0.000 C 
ENDBRANCH   3  16
BRANCH   5  18
ATOM     18  S   UNL d   1      14.709  15.463  -2.366  0.00  0.00    -0.067 SA
BRANCH  18  19
ATOM     19  C   UNL d   1      14.501  16.013  -2.945  0.00  0.00     0.042 C 
BRANCH  19  20
ATOM     20  C   UNL d   1      15.090  16.396  -3.381  0.00  0.00     0.070 C 
BRANCH  20  21
ATOM     21  C   UNL d   1      14.900  17.080  -3.821  0.00  0.00     0.280 C 
ATOM     22  N   UNL d   1      14.869  17.039  -4.647  0.00  0.00    -0.208 NA
ATOM     23  O   UNL d   1      14.744  17.789  -3.428  0.00  0.00    -0.265 OA
BRANCH  22  24
ATOM     24  C   UNL d   1      14.678  17.724  -5.088  0.00  0.00     0.085 A 
ATOM     25  C   UNL d   1      14.959  18.456  -4.839  0.00  0.00     0.021 A 
ATOM     26  C   UNL d   1      14.775  19.134  -5.268  0.00  0.00     0.031 A 
ATOM     27  C   UNL d   1      14.310  19.079  -5.947  0.00  0.00     0.140 A 
ATOM     28  C   UNL d   1      14.027  18.338  -6.195  0.00  0.00     0.031 A 
ATOM     29  F   UNL d   1      14.118  19.759  -6.387  0.00  0.00    -0.204 F 
ATOM     30  C   UNL d   1      14.212  17.661  -5.765  0.00  0.00     0.021 A 
ENDBRANCH  22  24
ENDBRANCH  20  21
ENDBRANCH  19  20
ENDBRANCH  18  19
ENDBRANCH   5  18
TORSDOF 6
ENDMDL
