MODEL 1
REMARK VINA RESULT:      -5.1      0.000      0.000
REMARK  4 active torsions:
REMARK  status: ('A' for Active; 'I' for Inactive)
REMARK    1  A    between atoms: C_7  and  C_1 
REMARK    2  A    between atoms: N_8  and  C_7 
REMARK    3  A    between atoms: C_11  and  N_8 
REMARK    4  A    between atoms: O_13  and  C_12 
ROOT
ATOM      1  C   UNL d   1     -41.600-122.501 -52.138  0.00  0.00     0.145 A 
ATOM      2  C   UNL d   1     -41.428-123.081 -52.692  0.00  0.00     0.305 A 
ATOM      3  C   UNL d   1     -41.904-121.769 -52.384  0.00  0.00     0.305 A 
ATOM      4  O   UNL d   1     -42.031-121.626 -53.181  0.00  0.00    -0.269 OA
ATOM      5  O   UNL d   1     -41.556-122.935 -53.485  0.00  0.00    -0.269 OA
ATOM      6  C   UNL d   1     -41.860-122.203 -53.731  0.00  0.00     0.242 A 
ATOM      7  O   UNL d   1     -42.084-121.167 -51.813  0.00  0.00    -0.259 OA
ATOM      8  O   UNL d   1     -41.122-123.817 -52.445  0.00  0.00    -0.259 OA
ATOM      9  C   UNL d   1     -42.143-121.568 -54.160  0.00  0.00     0.035 A 
ATOM     10  C   UNL d   1     -41.637-122.881 -54.144  0.00  0.00     0.035 A 
ATOM     11  C   UNL d   1     -41.700-122.908 -54.951  0.00  0.00     0.001 A 
ATOM     12  C   UNL d   1     -42.203-121.607 -54.987  0.00  0.00     0.001 A 
ATOM     13  C   UNL d   1     -41.974-122.294 -55.373  0.00  0.00    -0.000 A 
ENDROOT
BRANCH   1  14
ATOM     14  C   UNL d   1     -41.460-122.677 -51.335  0.00  0.00     0.110 C 
BRANCH  14  15
ATOM     15  N   UNL d   1     -42.098-122.927 -50.862  0.00  0.00    -0.242 NA
BRANCH  15  16
ATOM     16  C   UNL d   1     -41.961-123.115 -50.066  0.00  0.00     0.104 A 
ATOM     17  C   UNL d   1     -42.543-123.510 -49.631  0.00  0.00     0.112 A 
ATOM     18  C   UNL d   1     -42.410-123.700 -48.836  0.00  0.00     0.026 A 
ATOM     19  C   UNL d   1     -41.693-123.500 -48.459  0.00  0.00     0.002 A 
ATOM     20  C   UNL d   1     -41.123-123.102 -48.923  0.00  0.00     0.002 A 
ATOM     21  C   UNL d   1     -41.251-122.912 -49.710  0.00  0.00     0.021 A 
BRANCH  17  22
ATOM     22  O   UNL d   1     -43.266-123.717 -49.994  0.00  0.00    -0.327 OA
ATOM     23  C   UNL d   1     -43.930-123.808 -49.545  0.00  0.00     0.181 C 
ENDBRANCH  17  22
ENDBRANCH  15  16
ENDBRANCH  14  15
ENDBRANCH   1  14
TORSDOF 4
ENDMDL
MODEL 2
REMARK VINA RESULT:      -3.0      1.016      4.385
REMARK  4 active torsions:
REMARK  status: ('A' for Active; 'I' for Inactive)
REMARK    1  A    between atoms: C_7  and  C_1 
REMARK    2  A    between atoms: N_8  and  C_7 
REMARK    3  A    between atoms: C_11  and  N_8 
REMARK    4  A    between atoms: O_13  and  C_12 
ROOT
ATOM      1  C   UNL d   1     -41.519-122.477 -51.873  0.00  0.00     0.145 A 
ATOM      2  C   UNL d   1     -41.813-123.207 -51.641  0.00  0.00     0.305 A 
ATOM      3  C   UNL d   1     -41.426-121.870 -51.315  0.00  0.00     0.305 A 
ATOM      4  O   UNL d   1     -41.628-122.002 -50.531  0.00  0.00    -0.269 OA
ATOM      5  O   UNL d   1     -42.013-123.334 -50.860  0.00  0.00    -0.269 OA
ATOM      6  C   UNL d   1     -41.919-122.728 -50.301  0.00  0.00     0.242 A 
ATOM      7  O   UNL d   1     -41.123-121.114 -51.552  0.00  0.00    -0.259 OA
ATOM      8  O   UNL d   1     -41.907-123.817 -52.203  0.00  0.00    -0.259 OA
ATOM      9  C   UNL d   1     -41.902-122.273 -49.622  0.00  0.00     0.035 A 
ATOM     10  C   UNL d   1     -42.194-123.503 -50.241  0.00  0.00     0.035 A 
ATOM     11  C   UNL d   1     -42.436-123.797 -49.526  0.00  0.00     0.001 A 
ATOM     12  C   UNL d   1     -42.153-122.585 -48.896  0.00  0.00     0.001 A 
ATOM     13  C   UNL d   1     -42.421-123.359 -48.864  0.00  0.00    -0.000 A 
ENDROOT
BRANCH   1  14
ATOM     14  C   UNL d   1     -41.324-122.375 -52.677  0.00  0.00     0.110 C 
BRANCH  14  15
ATOM     15  N   UNL d   1     -41.893-122.048 -53.189  0.00  0.00    -0.242 NA
BRANCH  15  16
ATOM     16  C   UNL d   1     -41.816-122.167 -54.007  0.00  0.00     0.104 A 
ATOM     17  C   UNL d   1     -42.372-121.839 -54.524  0.00  0.00     0.112 A 
ATOM     18  C   UNL d   1     -42.299-121.956 -55.340  0.00  0.00     0.026 A 
ATOM     19  C   UNL d   1     -41.669-122.402 -55.658  0.00  0.00     0.002 A 
ATOM     20  C   UNL d   1     -41.123-122.722 -55.111  0.00  0.00     0.002 A 
ATOM     21  C   UNL d   1     -41.192-122.608 -54.303  0.00  0.00     0.021 A 
BRANCH  17  22
ATOM     22  O   UNL d   1     -43.008-121.389 -54.222  0.00  0.00    -0.327 OA
ATOM     23  C   UNL d   1     -43.765-121.576 -54.427  0.00  0.00     0.181 C 
ENDBRANCH  17  22
ENDBRANCH  15  16
ENDBRANCH  14  15
ENDBRANCH   1  14
TORSDOF 4
ENDMDL
