MODEL 1
REMARK VINA RESULT:      59.9      0.000      0.000
REMARK  10 active torsions:
REMARK  status: ('A' for Active; 'I' for Inactive)
REMARK    1  A    between atoms: C_14  and  N_1 
REMARK    2  A    between atoms: N_9  and  C_2 
REMARK    3  A    between atoms: C_6  and  C_5 
REMARK    4  A    between atoms: C_7  and  C_6 
REMARK       I    between atoms: N_8  and  C_7 
REMARK    5  A    between atoms: C_10  and  N_8 
REMARK    6  A    between atoms: C_16  and  N_9 
REMARK    7  A    between atoms: O_15  and  C_13 
REMARK    8  A    between atoms: C_19  and  O_15 
REMARK    9  A    between atoms: C_21  and  C_19 
REMARK   10  A    between atoms: C_22  and  C_21 
ROOT
ATOM      1  C   UNL d   1     -55.561 -99.704 -44.348  0.00  0.00     0.280 C 
ATOM      2  N   UNL d   1     -56.283 -99.389 -44.113  0.00  0.00    -0.206 NA
ATOM      3  O   UNL d   1     -55.417 -99.855 -45.143  0.00  0.00    -0.265 OA
ENDROOT
BRANCH   1   4
ATOM      4  C   UNL d   1     -54.986 -99.866 -43.780  0.00  0.00     0.074 C 
BRANCH   4   5
ATOM      5  C   UNL d   1     -55.003-100.569 -43.354  0.00  0.00     0.093 A 
ATOM      6  C   UNL d   1     -55.261-101.299 -43.635  0.00  0.00     0.272 A 
ATOM      7  N   UNL d   1     -55.183-101.848 -43.027  0.00  0.00    -0.252 N 
ATOM      8  O   UNL d   1     -55.545-101.454 -44.390  0.00  0.00    -0.266 OA
ATOM      9  C   UNL d   1     -54.878-101.458 -42.371  0.00  0.00     0.182 A 
ATOM     10  S   UNL d   1     -54.764-100.662 -42.568  0.00  0.00    -0.045 SA
BRANCH   7  11
ATOM     11  C   UNL d   1     -55.375-102.647 -43.064  0.00  0.00     0.085 C 
ATOM     12  C   UNL d   1     -56.171-102.878 -43.029  0.00  0.00     0.021 C 
ENDBRANCH   7  11
BRANCH   9  13
ATOM     13  N   UNL d   1     -54.711-101.798 -41.636  0.00  0.00    -0.221 NA
BRANCH  13  14
ATOM     14  C   UNL d   1     -54.916-101.402 -40.948  0.00  0.00     0.101 C 
ATOM     15  C   UNL d   1     -55.037-101.819 -40.250  0.00  0.00     0.022 C 
ENDBRANCH  13  14
ENDBRANCH   9  13
ENDBRANCH   4   5
ENDBRANCH   1   4
BRANCH   2  16
ATOM     16  C   UNL d   1     -56.863 -99.224 -44.672  0.00  0.00     0.107 A 
ATOM     17  C   UNL d   1     -57.599 -98.920 -44.432  0.00  0.00     0.118 A 
ATOM     18  C   UNL d   1     -58.180 -98.756 -44.995  0.00  0.00     0.026 A 
ATOM     19  C   UNL d   1     -58.024 -98.895 -45.794  0.00  0.00     0.002 A 
ATOM     20  C   UNL d   1     -57.294 -99.196 -46.032  0.00  0.00     0.002 A 
ATOM     21  C   UNL d   1     -56.715 -99.360 -45.473  0.00  0.00     0.021 A 
BRANCH  17  22
ATOM     22  O   UNL d   1     -57.749 -98.784 -43.635  0.00  0.00    -0.304 OA
BRANCH  22  23
ATOM     23  C   UNL d   1     -58.244 -99.293 -43.219  0.00  0.00     0.123 C 
BRANCH  23  24
ATOM     24  C   UNL d   1     -58.602 -99.047 -42.528  0.00  0.00     0.027 C 
BRANCH  24  25
ATOM     25  C   UNL d   1     -59.397 -98.798 -42.528  0.00  0.00     0.002 C 
ATOM     26  C   UNL d   1     -59.952 -99.221 -42.088  0.00  0.00     0.000 C 
ENDBRANCH  24  25
ENDBRANCH  23  24
ENDBRANCH  22  23
ENDBRANCH  17  22
ENDBRANCH   2  16
TORSDOF 10
ENDMDL
