MODEL 1
REMARK VINA RESULT:      30.8      0.000      0.000
REMARK  5 active torsions:
REMARK  status: ('A' for Active; 'I' for Inactive)
REMARK    1  A    between atoms: C_8  and  C_1 
REMARK    2  A    between atoms: N_4  and  C_2 
REMARK       I    between atoms: C_6  and  N_4 
REMARK    3  A    between atoms: C_11  and  C_6 
REMARK    4  A    between atoms: O_12  and  C_8 
REMARK    5  A    between atoms: C_17  and  O_12 
ROOT
ATOM      1  C   UNL d   1      46.213 -17.630  43.910  0.00  0.00     0.181 A 
ATOM      2  C   UNL d   1      46.314 -18.189  43.302  0.00  0.00     0.115 A 
ATOM      3  O   UNL d   1      46.265 -18.041  44.628  0.00  0.00    -0.300 OA
ATOM      4  C   UNL d   1      46.425 -18.923  43.647  0.00  0.00     0.043 A 
ATOM      5  C   UNL d   1      46.395 -18.835  44.468  0.00  0.00     0.102 A 
ATOM      6  C   UNL d   1      46.550 -19.669  43.318  0.00  0.00     0.004 A 
ATOM      7  C   UNL d   1      46.491 -19.487  44.954  0.00  0.00     0.025 A 
ATOM      8  C   UNL d   1      46.647 -20.328  43.812  0.00  0.00     0.000 A 
ATOM      9  C   UNL d   1      46.616 -20.230  44.633  0.00  0.00     0.002 A 
ENDROOT
BRANCH   2  10
ATOM     10  N   UNL d   1      46.303 -18.025  42.487  0.00  0.00    -0.206 NA
ATOM     11  C   UNL d   1      45.913 -18.536  41.972  0.00  0.00     0.279 C 
ATOM     12  O   UNL d   1      45.535 -19.208  42.260  0.00  0.00    -0.265 OA
BRANCH  11  13
ATOM     13  C   UNL d   1      45.903 -18.373  41.167  0.00  0.00     0.058 A 
ATOM     14  C   UNL d   1      45.211 -18.069  40.809  0.00  0.00     0.005 A 
ATOM     15  C   UNL d   1      45.204 -17.909  40.013  0.00  0.00     0.000 A 
ATOM     16  C   UNL d   1      45.879 -18.045  39.559  0.00  0.00     0.000 A 
ATOM     17  C   UNL d   1      46.556 -18.342  39.910  0.00  0.00     0.000 A 
ATOM     18  C   UNL d   1      46.565 -18.507  40.726  0.00  0.00     0.005 A 
ENDBRANCH  11  13
ENDBRANCH   2  10
BRANCH   1  19
ATOM     19  C   UNL d   1      46.085 -16.820  43.815  0.00  0.00     0.325 C 
ATOM     20  O   UNL d   1      46.525 -16.397  43.255  0.00  0.00    -0.257 OA
BRANCH  19  21
ATOM     21  O   UNL d   1      45.524 -16.441  44.274  0.00  0.00    -0.269 OA
BRANCH  21  22
ATOM     22  C   UNL d   1      45.478 -15.611  44.271  0.00  0.00     0.126 C 
ATOM     23  C   UNL d   1      44.842 -15.234  44.649  0.00  0.00     0.029 C 
ENDBRANCH  21  22
ENDBRANCH  19  21
ENDBRANCH   1  19
TORSDOF 5
ENDMDL
