MODEL 1
REMARK VINA RESULT:      23.0      0.000      0.000
REMARK  2 active torsions:
REMARK  status: ('A' for Active; 'I' for Inactive)
REMARK    1  A    between atoms: C_2  and  N_1 
REMARK    2  A    between atoms: O_12  and  C_10 
ROOT
ATOM      1  C   UNL d   1     -55.280-100.338 -44.321  0.00  0.00     0.072 A 
ATOM      2  C   UNL d   1     -56.080-100.149 -44.305  0.00  0.00     0.042 A 
ATOM      3  C   UNL d   1     -56.300 -99.355 -44.327  0.00  0.00     0.096 A 
ATOM      4  C   UNL d   1     -54.711 -99.739 -44.359  0.00  0.00     0.018 A 
ATOM      5  C   UNL d   1     -54.923 -98.964 -44.380  0.00  0.00     0.004 A 
ATOM      6  C   UNL d   1     -55.738 -98.755 -44.364  0.00  0.00     0.024 A 
ENDROOT
BRANCH   1   7
ATOM      7  N   UNL d   1     -55.057-101.133 -44.300  0.00  0.00    -0.242 N 
ATOM      8  C   UNL d   1     -54.929-101.585 -43.636  0.00  0.00     0.267 A 
ATOM      9  C   UNL d   1     -54.716-102.347 -43.870  0.00  0.00     0.066 A 
ATOM     10  O   UNL d   1     -55.001-101.325 -42.855  0.00  0.00    -0.267 OA
ATOM     11  C   UNL d   1     -54.713-102.361 -44.701  0.00  0.00     0.066 A 
ATOM     12  C   UNL d   1     -54.925-101.608 -44.976  0.00  0.00     0.267 A 
ATOM     13  O   UNL d   1     -54.990-101.380 -45.760  0.00  0.00    -0.267 OA
ENDBRANCH   1   7
BRANCH   3  14
ATOM     14  O   UNL d   1     -57.111 -99.157 -44.310  0.00  0.00    -0.328 OA
ATOM     15  C   UNL d   1     -57.431 -98.770 -44.948  0.00  0.00     0.181 C 
ENDBRANCH   3  14
TORSDOF 2
ENDMDL
MODEL 2
REMARK VINA RESULT:      23.0      6.199      7.313
REMARK  2 active torsions:
REMARK  status: ('A' for Active; 'I' for Inactive)
REMARK    1  A    between atoms: C_2  and  N_1 
REMARK    2  A    between atoms: O_12  and  C_10 
ROOT
ATOM      1  C   UNL d   1     -55.544-102.325 -37.528  0.00  0.00     0.072 A 
ATOM      2  C   UNL d   1     -55.307-101.544 -37.423  0.00  0.00     0.042 A 
ATOM      3  C   UNL d   1     -54.956-101.329 -36.710  0.00  0.00     0.096 A 
ATOM      4  C   UNL d   1     -55.429-102.879 -36.925  0.00  0.00     0.018 A 
ATOM      5  C   UNL d   1     -55.086-102.673 -36.228  0.00  0.00     0.004 A 
ATOM      6  C   UNL d   1     -54.839-101.877 -36.107  0.00  0.00     0.024 A 
ENDROOT
BRANCH   1   7
ATOM      7  N   UNL d   1     -55.898-102.543 -38.242  0.00  0.00    -0.242 N 
ATOM      8  C   UNL d   1     -55.522-102.668 -38.952  0.00  0.00     0.267 A 
ATOM      9  C   UNL d   1     -56.086-102.877 -39.518  0.00  0.00     0.066 A 
ATOM     10  O   UNL d   1     -54.711-102.598 -39.087  0.00  0.00    -0.267 OA
ATOM     11  C   UNL d   1     -56.827-102.879 -39.142  0.00  0.00     0.066 A 
ATOM     12  C   UNL d   1     -56.718-102.672 -38.346  0.00  0.00     0.267 A 
ATOM     13  O   UNL d   1     -57.304-102.608 -37.778  0.00  0.00    -0.267 OA
ENDBRANCH   1   7
BRANCH   3  14
ATOM     14  O   UNL d   1     -54.713-100.538 -36.598  0.00  0.00    -0.328 OA
ATOM     15  C   UNL d   1     -54.718-100.231 -35.847  0.00  0.00     0.181 C 
ENDBRANCH   3  14
TORSDOF 2
ENDMDL
MODEL 3
REMARK VINA RESULT:      24.5      1.123      3.076
REMARK  2 active torsions:
REMARK  status: ('A' for Active; 'I' for Inactive)
REMARK    1  A    between atoms: C_2  and  N_1 
REMARK    2  A    between atoms: O_12  and  C_10 
ROOT
ATOM      1  C   UNL d   1     -56.322 -99.321 -44.364  0.00  0.00     0.072 A 
ATOM      2  C   UNL d   1     -56.133-100.116 -44.456  0.00  0.00     0.042 A 
ATOM      3  C   UNL d   1     -55.339-100.335 -44.470  0.00  0.00     0.096 A 
ATOM      4  C   UNL d   1     -55.723 -98.756 -44.286  0.00  0.00     0.018 A 
ATOM      5  C   UNL d   1     -54.947 -98.967 -44.300  0.00  0.00     0.004 A 
ATOM      6  C   UNL d   1     -54.739 -99.777 -44.393  0.00  0.00     0.024 A 
ENDROOT
BRANCH   1   7
ATOM      7  N   UNL d   1     -57.118 -99.098 -44.349  0.00  0.00    -0.242 N 
ATOM      8  C   UNL d   1     -57.576 -98.969 -43.690  0.00  0.00     0.267 A 
ATOM      9  C   UNL d   1     -58.336 -98.757 -43.931  0.00  0.00     0.066 A 
ATOM     10  O   UNL d   1     -57.323 -99.039 -42.907  0.00  0.00    -0.267 OA
ATOM     11  C   UNL d   1     -58.342 -98.757 -44.762  0.00  0.00     0.066 A 
ATOM     12  C   UNL d   1     -57.587 -98.968 -45.030  0.00  0.00     0.267 A 
ATOM     13  O   UNL d   1     -57.352 -99.035 -45.812  0.00  0.00    -0.267 OA
ENDBRANCH   1   7
BRANCH   3  14
ATOM     14  O   UNL d   1     -55.141-101.141 -44.563  0.00  0.00    -0.328 OA
ATOM     15  C   UNL d   1     -54.731-101.513 -43.969  0.00  0.00     0.181 C 
ENDBRANCH   3  14
TORSDOF 2
ENDMDL
