MODEL 1
REMARK VINA RESULT:       4.0      0.000      0.000
REMARK  10 active torsions:
REMARK  status: ('A' for Active; 'I' for Inactive)
REMARK    1  A    between atoms: C_7  and  C_1 
REMARK    2  A    between atoms: C_8  and  C_2 
REMARK    3  A    between atoms: O_24  and  C_8 
REMARK    4  A    between atoms: O_25  and  C_12 
REMARK    5  A    between atoms: C_14  and  C_22 
REMARK    6  A    between atoms: O_26  and  C_14 
REMARK    7  A    between atoms: O_27  and  C_16 
REMARK    8  A    between atoms: O_21  and  C_20 
REMARK    9  A    between atoms: C_22  and  O_21 
REMARK   10  A    between atoms: C_28  and  O_24 
ROOT
ATOM      1  C   UNL d   1      56.974  -0.432  31.932  0.00  0.00     0.067 A 
ATOM      2  C   UNL d   1      57.674  -0.022  32.105  0.00  0.00     0.166 A 
ATOM      3  C   UNL d   1      56.928  -0.907  31.243  0.00  0.00     0.200 A 
ATOM      4  O   UNL d   1      58.335  -0.079  31.594  0.00  0.00    -0.301 OA
ATOM      5  C   UNL d   1      57.574  -0.966  30.741  0.00  0.00     0.062 A 
ATOM      6  C   UNL d   1      58.281  -0.552  30.914  0.00  0.00     0.105 A 
ATOM      7  C   UNL d   1      58.935  -0.611  30.406  0.00  0.00     0.050 A 
ATOM      8  C   UNL d   1      57.539  -1.435  30.054  0.00  0.00     0.007 A 
ATOM      9  O   UNL d   1      56.229  -1.314  31.076  0.00  0.00    -0.286 OA
ATOM     10  C   UNL d   1      58.883  -1.082  29.727  0.00  0.00     0.102 A 
ATOM     11  C   UNL d   1      58.189  -1.492  29.552  0.00  0.00     0.025 A 
ENDROOT
BRANCH   1  12
ATOM     12  C   UNL d   1      56.324  -0.375  32.435  0.00  0.00     0.007 A 
ATOM     13  C   UNL d   1      56.138  -1.015  32.929  0.00  0.00     0.026 A 
ATOM     14  C   UNL d   1      55.484  -0.950  33.432  0.00  0.00     0.116 A 
ATOM     15  C   UNL d   1      55.024  -0.260  33.439  0.00  0.00     0.116 A 
ATOM     16  C   UNL d   1      55.217   0.369  32.944  0.00  0.00     0.026 A 
ATOM     17  C   UNL d   1      55.867   0.311  32.442  0.00  0.00     0.002 A 
BRANCH  14  18
ATOM     18  O   UNL d   1      55.292  -1.579  33.927  0.00  0.00    -0.326 OA
ATOM     19  C   UNL d   1      55.548  -2.342  33.744  0.00  0.00     0.181 C 
ENDBRANCH  14  18
BRANCH  15  20
ATOM     20  O   UNL d   1      54.377  -0.205  33.941  0.00  0.00    -0.326 OA
ATOM     21  C   UNL d   1      53.969   0.512  34.005  0.00  0.00     0.181 C 
ENDBRANCH  15  20
ENDBRANCH   1  12
BRANCH   2  22
ATOM     22  C   UNL d   1      57.717   0.445  32.782  0.00  0.00     0.323 C 
ATOM     23  O   UNL d   1      57.033   0.681  33.171  0.00  0.00    -0.257 OA
BRANCH  22  24
ATOM     24  O   UNL d   1      58.459   0.681  33.079  0.00  0.00    -0.270 OA
BRANCH  24  25
ATOM     25  C   UNL d   1      58.702   0.437  33.826  0.00  0.00     0.126 C 
ATOM     26  C   UNL d   1      59.471   0.589  34.082  0.00  0.00     0.029 C 
ENDBRANCH  24  25
ENDBRANCH  22  24
ENDBRANCH   2  22
BRANCH  10  27
ATOM     27  O   UNL d   1      59.534  -1.138  29.225  0.00  0.00    -0.300 OA
BRANCH  27  28
ATOM     28  C   UNL d   1      59.711  -1.848  28.855  0.00  0.00     0.191 C 
BRANCH  28  29
ATOM     29  C   UNL d   1      60.473  -2.159  28.902  0.00  0.00     0.321 C 
ATOM     30  O   UNL d   1      61.086  -1.832  28.457  0.00  0.00    -0.257 OA
BRANCH  29  31
ATOM     31  O   UNL d   1      60.630  -2.801  29.394  0.00  0.00    -0.294 OA
ATOM     32  C   UNL d   1      61.114  -3.416  29.139  0.00  0.00     0.185 C 
ENDBRANCH  29  31
ENDBRANCH  28  29
ENDBRANCH  27  28
ENDBRANCH  10  27
TORSDOF 10
ENDMDL
MODEL 2
REMARK VINA RESULT:       4.2      1.344      2.281
REMARK  10 active torsions:
REMARK  status: ('A' for Active; 'I' for Inactive)
REMARK    1  A    between atoms: C_7  and  C_1 
REMARK    2  A    between atoms: C_8  and  C_2 
REMARK    3  A    between atoms: O_24  and  C_8 
REMARK    4  A    between atoms: O_25  and  C_12 
REMARK    5  A    between atoms: C_14  and  C_22 
REMARK    6  A    between atoms: O_26  and  C_14 
REMARK    7  A    between atoms: O_27  and  C_16 
REMARK    8  A    between atoms: O_21  and  C_20 
REMARK    9  A    between atoms: C_22  and  O_21 
REMARK   10  A    between atoms: C_28  and  O_24 
ROOT
ATOM      1  C   UNL d   1      56.237  -0.602  32.559  0.00  0.00     0.067 A 
ATOM      2  C   UNL d   1      56.460  -1.401  32.585  0.00  0.00     0.166 A 
ATOM      3  C   UNL d   1      56.514  -0.113  31.938  0.00  0.00     0.200 A 
ATOM      4  O   UNL d   1      56.960  -1.721  31.994  0.00  0.00    -0.301 OA
ATOM      5  C   UNL d   1      57.004  -0.423  31.357  0.00  0.00     0.062 A 
ATOM      6  C   UNL d   1      57.229  -1.228  31.383  0.00  0.00     0.105 A 
ATOM      7  C   UNL d   1      57.725  -1.542  30.795  0.00  0.00     0.050 A 
ATOM      8  C   UNL d   1      57.285   0.055  30.736  0.00  0.00     0.007 A 
ATOM      9  O   UNL d   1      56.290   0.682  31.916  0.00  0.00    -0.286 OA
ATOM     10  C   UNL d   1      57.995  -1.053  30.184  0.00  0.00     0.102 A 
ATOM     11  C   UNL d   1      57.776  -0.259  30.155  0.00  0.00     0.025 A 
ENDROOT
BRANCH   1  12
ATOM     12  C   UNL d   1      55.746  -0.288  33.140  0.00  0.00     0.007 A 
ATOM     13  C   UNL d   1      56.085   0.040  33.822  0.00  0.00     0.026 A 
ATOM     14  C   UNL d   1      55.584   0.353  34.402  0.00  0.00     0.116 A 
ATOM     15  C   UNL d   1      54.761   0.338  34.302  0.00  0.00     0.116 A 
ATOM     16  C   UNL d   1      54.434   0.010  33.621  0.00  0.00     0.026 A 
ATOM     17  C   UNL d   1      54.927  -0.303  33.040  0.00  0.00     0.002 A 
BRANCH  14  18
ATOM     18  O   UNL d   1      55.911   0.681  35.083  0.00  0.00    -0.326 OA
ATOM     19  C   UNL d   1      56.223   0.192  35.669  0.00  0.00     0.181 C 
ENDBRANCH  14  18
BRANCH  15  20
ATOM     20  O   UNL d   1      54.273   0.651  34.883  0.00  0.00    -0.326 OA
ATOM     21  C   UNL d   1      53.455   0.682  34.756  0.00  0.00     0.181 C 
ENDBRANCH  15  20
ENDBRANCH   1  12
BRANCH   2  22
ATOM     22  C   UNL d   1      56.187  -1.881  33.196  0.00  0.00     0.323 C 
ATOM     23  O   UNL d   1      56.591  -1.918  33.911  0.00  0.00    -0.257 OA
BRANCH  22  24
ATOM     24  O   UNL d   1      55.496  -2.335  33.093  0.00  0.00    -0.270 OA
BRANCH  24  25
ATOM     25  C   UNL d   1      55.493  -3.134  33.291  0.00  0.00     0.126 C 
ATOM     26  C   UNL d   1      55.029  -3.403  33.918  0.00  0.00     0.029 C 
ENDBRANCH  24  25
ENDBRANCH  22  24
ENDBRANCH   2  22
BRANCH  10  27
ATOM     27  O   UNL d   1      58.487  -1.368  29.604  0.00  0.00    -0.300 OA
BRANCH  27  28
ATOM     28  C   UNL d   1      59.288  -1.195  29.602  0.00  0.00     0.191 C 
BRANCH  28  29
ATOM     29  C   UNL d   1      59.779  -1.516  29.022  0.00  0.00     0.321 C 
ATOM     30  O   UNL d   1      59.891  -2.332  28.976  0.00  0.00    -0.257 OA
BRANCH  29  31
ATOM     31  O   UNL d   1      60.161  -1.025  28.483  0.00  0.00    -0.294 OA
ATOM     32  C   UNL d   1      60.709  -0.467  28.741  0.00  0.00     0.185 C 
ENDBRANCH  29  31
ENDBRANCH  28  29
ENDBRANCH  27  28
ENDBRANCH  10  27
TORSDOF 10
ENDMDL
