MODEL 1
REMARK VINA RESULT:      -3.5      0.000      0.000
REMARK  3 active torsions:
REMARK  status: ('A' for Active; 'I' for Inactive)
REMARK    1  A    between atoms: C_8  and  C_2 
REMARK    2  A    between atoms: N_9  and  C_8 
REMARK    3  A    between atoms: C_20  and  C_13 
ROOT
ATOM      1  C   UNL d   1      58.558   0.661  31.020  0.00  0.00     0.108 A 
ATOM      2  C   UNL d   1      57.740   0.666  31.144  0.00  0.00     0.079 A 
ATOM      3  O   UNL d   1      59.074   0.650  31.646  0.00  0.00    -0.273 OA
ATOM      4  C   UNL d   1      59.895   0.645  31.523  0.00  0.00     0.300 A 
ATOM      5  C   UNL d   1      59.656   0.661  30.102  0.00  0.00     0.007 A 
ATOM      6  C   UNL d   1      58.848   0.666  30.248  0.00  0.00     0.023 A 
ATOM      7  C   UNL d   1      60.188   0.650  30.744  0.00  0.00     0.064 A 
ATOM      8  C   UNL d   1      58.330   0.677  29.603  0.00  0.00     0.005 A 
ATOM      9  C   UNL d   1      57.217   0.676  30.515  0.00  0.00     0.199 A 
ATOM     10  O   UNL d   1      60.427   0.634  32.155  0.00  0.00    -0.259 OA
ATOM     11  C   UNL d   1      57.507   0.682  29.743  0.00  0.00     0.042 A 
ATOM     12  C   UNL d   1      60.091   0.665  29.407  0.00  0.00     0.000 A 
ATOM     13  C   UNL d   1      60.956   0.647  30.431  0.00  0.00     0.005 A 
ATOM     14  O   UNL d   1      56.403   0.682  30.640  0.00  0.00    -0.286 OA
ATOM     15  C   UNL d   1      60.905   0.656  29.610  0.00  0.00     0.000 A 
ENDROOT
BRANCH   2  16
ATOM     16  C   UNL d   1      57.455   0.660  31.926  0.00  0.00     0.085 C 
BRANCH  16  17
ATOM     17  N   UNL d   1      57.060   0.003  32.225  0.00  0.00    -0.304 N 
ATOM     18  C   UNL d   1      56.783   0.021  32.980  0.00  0.00     0.064 A 
ATOM     19  C   UNL d   1      56.388  -0.637  33.279  0.00  0.00     0.018 A 
ATOM     20  C   UNL d   1      56.278  -1.305  32.803  0.00  0.00     0.003 A 
ATOM     21  C   UNL d   1      56.559  -1.311  32.049  0.00  0.00     0.019 A 
ATOM     22  C   UNL d   1      56.955  -0.653  31.751  0.00  0.00     0.080 A 
BRANCH  18  23
ATOM     23  C   UNL d   1      56.890   0.681  33.455  0.00  0.00     0.018 C 
ATOM     24  C   UNL d   1      56.867   0.623  34.273  0.00  0.00     0.002 C 
ENDBRANCH  18  23
ENDBRANCH  16  17
ENDBRANCH   2  16
TORSDOF 3
ENDMDL
MODEL 2
REMARK VINA RESULT:      -2.2      1.445      4.190
REMARK  3 active torsions:
REMARK  status: ('A' for Active; 'I' for Inactive)
REMARK    1  A    between atoms: C_8  and  C_2 
REMARK    2  A    between atoms: N_9  and  C_8 
REMARK    3  A    between atoms: C_20  and  C_13 
ROOT
ATOM      1  C   UNL d   1      57.392  -0.423  31.846  0.00  0.00     0.108 A 
ATOM      2  C   UNL d   1      58.068  -0.322  31.380  0.00  0.00     0.079 A 
ATOM      3  O   UNL d   1      56.823  -0.965  31.642  0.00  0.00    -0.273 OA
ATOM      4  C   UNL d   1      56.144  -1.068  32.109  0.00  0.00     0.300 A 
ATOM      5  C   UNL d   1      56.636  -0.048  33.002  0.00  0.00     0.007 A 
ATOM      6  C   UNL d   1      57.299   0.035  32.525  0.00  0.00     0.023 A 
ATOM      7  C   UNL d   1      56.050  -0.605  32.795  0.00  0.00     0.064 A 
ATOM      8  C   UNL d   1      57.873   0.590  32.741  0.00  0.00     0.005 A 
ATOM      9  C   UNL d   1      58.644   0.224  31.582  0.00  0.00     0.199 A 
ATOM     10  O   UNL d   1      55.561  -1.617  31.909  0.00  0.00    -0.259 OA
ATOM     11  C   UNL d   1      58.550   0.682  32.261  0.00  0.00     0.042 A 
ATOM     12  C   UNL d   1      56.403   0.325  33.694  0.00  0.00     0.000 A 
ATOM     13  C   UNL d   1      55.455  -0.567  33.371  0.00  0.00     0.005 A 
ATOM     14  O   UNL d   1      59.315   0.323  31.117  0.00  0.00    -0.286 OA
ATOM     15  C   UNL d   1      55.665   0.002  33.927  0.00  0.00     0.000 A 
ENDROOT
BRANCH   2  16
ATOM     16  C   UNL d   1      58.154  -0.789  30.696  0.00  0.00     0.085 C 
BRANCH  16  17
ATOM     17  N   UNL d   1      58.165  -0.442  29.949  0.00  0.00    -0.304 N 
ATOM     18  C   UNL d   1      58.435  -0.868  29.322  0.00  0.00     0.064 A 
ATOM     19  C   UNL d   1      58.446  -0.522  28.576  0.00  0.00     0.018 A 
ATOM     20  C   UNL d   1      58.181   0.256  28.477  0.00  0.00     0.003 A 
ATOM     21  C   UNL d   1      57.913   0.672  29.111  0.00  0.00     0.019 A 
ATOM     22  C   UNL d   1      57.902   0.325  29.858  0.00  0.00     0.080 A 
BRANCH  18  23
ATOM     23  C   UNL d   1      58.699  -1.639  29.416  0.00  0.00     0.018 C 
ATOM     24  C   UNL d   1      58.955  -2.080  28.774  0.00  0.00     0.002 C 
ENDBRANCH  18  23
ENDBRANCH  16  17
ENDBRANCH   2  16
TORSDOF 3
ENDMDL
MODEL 3
REMARK VINA RESULT:      -1.1      1.766      2.189
REMARK  3 active torsions:
REMARK  status: ('A' for Active; 'I' for Inactive)
REMARK    1  A    between atoms: C_8  and  C_2 
REMARK    2  A    between atoms: N_9  and  C_8 
REMARK    3  A    between atoms: C_20  and  C_13 
ROOT
ATOM      1  C   UNL d   1      58.473  -1.000  29.946  0.00  0.00     0.108 A 
ATOM      2  C   UNL d   1      57.850  -0.514  30.191  0.00  0.00     0.079 A 
ATOM      3  O   UNL d   1      58.620  -1.707  30.316  0.00  0.00    -0.273 OA
ATOM      4  C   UNL d   1      59.244  -2.196  30.071  0.00  0.00     0.300 A 
ATOM      5  C   UNL d   1      59.571  -1.226  29.057  0.00  0.00     0.007 A 
ATOM      6  C   UNL d   1      58.948  -0.759  29.316  0.00  0.00     0.023 A 
ATOM      7  C   UNL d   1      59.724  -1.953  29.436  0.00  0.00     0.064 A 
ATOM      8  C   UNL d   1      58.806  -0.041  28.932  0.00  0.00     0.005 A 
ATOM      9  C   UNL d   1      57.699   0.200  29.820  0.00  0.00     0.199 A 
ATOM     10  O   UNL d   1      59.400  -2.918  30.443  0.00  0.00    -0.259 OA
ATOM     11  C   UNL d   1      58.174   0.440  29.190  0.00  0.00     0.042 A 
ATOM     12  C   UNL d   1      60.122  -1.128  28.457  0.00  0.00     0.000 A 
ATOM     13  C   UNL d   1      60.377  -2.298  29.059  0.00  0.00     0.005 A 
ATOM     14  O   UNL d   1      57.079   0.682  30.066  0.00  0.00    -0.286 OA
ATOM     15  C   UNL d   1      60.627  -1.797  28.457  0.00  0.00     0.000 A 
ENDROOT
BRANCH   2  16
ATOM     16  C   UNL d   1      57.375  -0.765  30.828  0.00  0.00     0.085 C 
BRANCH  16  17
ATOM     17  N   UNL d   1      57.383  -0.359  31.544  0.00  0.00    -0.304 N 
ATOM     18  C   UNL d   1      56.871  -0.576  32.124  0.00  0.00     0.064 A 
ATOM     19  C   UNL d   1      56.878  -0.170  32.840  0.00  0.00     0.018 A 
ATOM     20  C   UNL d   1      57.409   0.454  32.955  0.00  0.00     0.003 A 
ATOM     21  C   UNL d   1      57.916   0.663  32.368  0.00  0.00     0.019 A 
ATOM     22  C   UNL d   1      57.908   0.256  31.651  0.00  0.00     0.080 A 
BRANCH  18  23
ATOM     23  C   UNL d   1      56.343  -1.195  32.014  0.00  0.00     0.018 C 
ATOM     24  C   UNL d   1      55.918  -1.506  32.643  0.00  0.00     0.002 C 
ENDBRANCH  18  23
ENDBRANCH  16  17
ENDBRANCH   2  16
TORSDOF 3
ENDMDL
MODEL 4
REMARK VINA RESULT:      -0.6      1.595      4.587
REMARK  3 active torsions:
REMARK  status: ('A' for Active; 'I' for Inactive)
REMARK    1  A    between atoms: C_8  and  C_2 
REMARK    2  A    between atoms: N_9  and  C_8 
REMARK    3  A    between atoms: C_20  and  C_13 
ROOT
ATOM      1  C   UNL d   1      56.345   0.639  33.451  0.00  0.00     0.108 A 
ATOM      2  C   UNL d   1      57.049   0.642  33.019  0.00  0.00     0.079 A 
ATOM      3  O   UNL d   1      55.626   0.619  33.074  0.00  0.00    -0.273 OA
ATOM      4  C   UNL d   1      54.917   0.615  33.506  0.00  0.00     0.300 A 
ATOM      5  C   UNL d   1      55.689   0.654  34.723  0.00  0.00     0.007 A 
ATOM      6  C   UNL d   1      56.376   0.657  34.275  0.00  0.00     0.023 A 
ATOM      7  C   UNL d   1      54.949   0.633  34.338  0.00  0.00     0.064 A 
ATOM      8  C   UNL d   1      57.104   0.678  34.668  0.00  0.00     0.005 A 
ATOM      9  C   UNL d   1      57.776   0.663  33.395  0.00  0.00     0.199 A 
ATOM     10  O   UNL d   1      54.181   0.595  33.130  0.00  0.00    -0.259 OA
ATOM     11  C   UNL d   1      57.808   0.681  34.219  0.00  0.00     0.042 A 
ATOM     12  C   UNL d   1      55.557   0.669  35.532  0.00  0.00     0.000 A 
ATOM     13  C   UNL d   1      54.363   0.635  34.924  0.00  0.00     0.005 A 
ATOM     14  O   UNL d   1      58.477   0.666  32.964  0.00  0.00    -0.286 OA
ATOM     15  C   UNL d   1      54.728   0.657  35.661  0.00  0.00     0.000 A 
ENDROOT
BRANCH   2  16
ATOM     16  C   UNL d   1      57.008   0.624  32.187  0.00  0.00     0.085 C 
BRANCH  16  17
ATOM     17  N   UNL d   1      57.077  -0.087  31.778  0.00  0.00    -0.304 N 
ATOM     18  C   UNL d   1      57.261  -0.073  30.995  0.00  0.00     0.064 A 
ATOM     19  C   UNL d   1      57.330  -0.784  30.586  0.00  0.00     0.018 A 
ATOM     20  C   UNL d   1      57.210  -1.501  30.981  0.00  0.00     0.003 A 
ATOM     21  C   UNL d   1      57.027  -1.503  31.764  0.00  0.00     0.019 A 
ATOM     22  C   UNL d   1      56.958  -0.791  32.173  0.00  0.00     0.080 A 
BRANCH  18  23
ATOM     23  C   UNL d   1      57.381   0.636  30.600  0.00  0.00     0.018 C 
ATOM     24  C   UNL d   1      57.880   0.680  29.952  0.00  0.00     0.002 C 
ENDBRANCH  18  23
ENDBRANCH  16  17
ENDBRANCH   2  16
TORSDOF 3
ENDMDL
