MODEL 1
REMARK VINA RESULT:      -5.0      0.000      0.000
REMARK  2 active torsions:
REMARK  status: ('A' for Active; 'I' for Inactive)
REMARK    1  A    between atoms: S_6  and  C_1 
REMARK    2  A    between atoms: C_7  and  S_6 
ROOT
ATOM      1  C   UNL d   1      57.308   0.061  31.261  0.00  0.00     0.194 A 
ATOM      2  N   UNL d   1      56.880   0.593  31.766  0.00  0.00    -0.220 NA
ATOM      3  N   UNL d   1      57.098  -0.705  31.475  0.00  0.00    -0.220 NA
ATOM      4  C   UNL d   1      56.429   0.145  32.265  0.00  0.00     0.101 A 
ATOM      5  C   UNL d   1      56.567  -0.676  32.081  0.00  0.00     0.101 A 
ATOM      6  C   UNL d   1      55.891   0.316  32.884  0.00  0.00     0.021 A 
ATOM      7  C   UNL d   1      56.176  -1.264  32.505  0.00  0.00     0.021 A 
ATOM      8  C   UNL d   1      55.652  -1.060  33.109  0.00  0.00     0.002 A 
ATOM      9  C   UNL d   1      55.519  -0.264  33.288  0.00  0.00     0.002 A 
ENDROOT
BRANCH   1  10
ATOM     10  S   UNL d   1      57.698   0.651  30.837  0.00  0.00    -0.049 SA
BRANCH  10  11
ATOM     11  C   UNL d   1      58.264   0.446  30.272  0.00  0.00     0.032 C 
ATOM     12  C   UNL d   1      59.049   0.682  30.370  0.00  0.00     0.007 C 
ATOM     13  C   UNL d   1      58.247   0.023  29.564  0.00  0.00     0.007 C 
ENDBRANCH  10  11
ENDBRANCH   1  10
TORSDOF 2
ENDMDL
MODEL 2
REMARK VINA RESULT:      -4.0      1.210      3.313
REMARK  2 active torsions:
REMARK  status: ('A' for Active; 'I' for Inactive)
REMARK    1  A    between atoms: S_6  and  C_1 
REMARK    2  A    between atoms: C_7  and  S_6 
ROOT
ATOM      1  C   UNL d   1      56.265   0.087  32.559  0.00  0.00     0.194 A 
ATOM      2  N   UNL d   1      56.554  -0.653  32.260  0.00  0.00    -0.220 NA
ATOM      3  N   UNL d   1      56.556   0.682  32.072  0.00  0.00    -0.220 NA
ATOM      4  C   UNL d   1      57.006  -0.492  31.610  0.00  0.00     0.101 A 
ATOM      5  C   UNL d   1      57.007   0.352  31.490  0.00  0.00     0.101 A 
ATOM      6  C   UNL d   1      57.442  -0.959  31.067  0.00  0.00     0.021 A 
ATOM      7  C   UNL d   1      57.427   0.678  30.861  0.00  0.00     0.021 A 
ATOM      8  C   UNL d   1      57.846   0.189  30.345  0.00  0.00     0.002 A 
ATOM      9  C   UNL d   1      57.845  -0.629  30.461  0.00  0.00     0.002 A 
ENDROOT
BRANCH   1  10
ATOM     10  S   UNL d   1      55.845  -0.241  33.189  0.00  0.00    -0.049 SA
BRANCH  10  11
ATOM     11  C   UNL d   1      55.523   0.251  33.770  0.00  0.00     0.032 C 
ATOM     12  C   UNL d   1      54.714   0.409  33.773  0.00  0.00     0.007 C 
ATOM     13  C   UNL d   1      55.832   0.666  34.412  0.00  0.00     0.007 C 
ENDBRANCH  10  11
ENDBRANCH   1  10
TORSDOF 2
ENDMDL
MODEL 3
REMARK VINA RESULT:      -3.9      0.821      3.189
REMARK  2 active torsions:
REMARK  status: ('A' for Active; 'I' for Inactive)
REMARK    1  A    between atoms: S_6  and  C_1 
REMARK    2  A    between atoms: C_7  and  S_6 
ROOT
ATOM      1  C   UNL d   1      57.006  -0.224  31.808  0.00  0.00     0.194 A 
ATOM      2  N   UNL d   1      57.577   0.402  31.749  0.00  0.00    -0.220 NA
ATOM      3  N   UNL d   1      57.108  -0.713  31.154  0.00  0.00    -0.220 NA
ATOM      4  C   UNL d   1      58.003   0.280  31.074  0.00  0.00     0.101 A 
ATOM      5  C   UNL d   1      57.707  -0.425  30.697  0.00  0.00     0.101 A 
ATOM      6  C   UNL d   1      58.635   0.682  30.697  0.00  0.00     0.021 A 
ATOM      7  C   UNL d   1      58.041  -0.686  29.990  0.00  0.00     0.021 A 
ATOM      8  C   UNL d   1      58.662  -0.266  29.647  0.00  0.00     0.002 A 
ATOM      9  C   UNL d   1      58.949   0.418  30.011  0.00  0.00     0.002 A 
ENDROOT
BRANCH   1  10
ATOM     10  S   UNL d   1      56.673   0.038  32.515  0.00  0.00    -0.049 SA
BRANCH  10  11
ATOM     11  C   UNL d   1      56.069  -0.397  32.872  0.00  0.00     0.032 C 
ATOM     12  C   UNL d   1      55.473  -0.010  33.291  0.00  0.00     0.007 C 
ATOM     13  C   UNL d   1      55.888  -1.201  32.923  0.00  0.00     0.007 C 
ENDBRANCH  10  11
ENDBRANCH   1  10
TORSDOF 2
ENDMDL
MODEL 4
REMARK VINA RESULT:      -3.4      8.869      9.818
REMARK  2 active torsions:
REMARK  status: ('A' for Active; 'I' for Inactive)
REMARK    1  A    between atoms: S_6  and  C_1 
REMARK    2  A    between atoms: C_7  and  S_6 
ROOT
ATOM      1  C   UNL d   1      60.189  -8.307  34.993  0.00  0.00     0.194 A 
ATOM      2  N   UNL d   1      59.471  -8.663  34.716  0.00  0.00    -0.220 NA
ATOM      3  N   UNL d   1      60.781  -8.490  34.452  0.00  0.00    -0.220 NA
ATOM      4  C   UNL d   1      59.640  -9.047  34.025  0.00  0.00     0.101 A 
ATOM      5  C   UNL d   1      60.469  -8.938  33.858  0.00  0.00     0.101 A 
ATOM      6  C   UNL d   1      59.193  -9.499  33.479  0.00  0.00     0.021 A 
ATOM      7  C   UNL d   1      60.800  -9.271  33.181  0.00  0.00     0.021 A 
ATOM      8  C   UNL d   1      60.331  -9.711  32.665  0.00  0.00     0.002 A 
ATOM      9  C   UNL d   1      59.528  -9.817  32.826  0.00  0.00     0.002 A 
ENDROOT
BRANCH   1  10
ATOM     10  S   UNL d   1      59.857  -7.974  35.671  0.00  0.00    -0.049 SA
BRANCH  10  11
ATOM     11  C   UNL d   1      60.231  -7.340  36.044  0.00  0.00     0.032 C 
ATOM     12  C   UNL d   1      59.810  -6.648  36.203  0.00  0.00     0.007 C 
ATOM     13  C   UNL d   1      60.994  -7.204  36.327  0.00  0.00     0.007 C 
ENDBRANCH  10  11
ENDBRANCH   1  10
TORSDOF 2
ENDMDL
MODEL 5
REMARK VINA RESULT:      -2.8      0.988      3.503
REMARK  2 active torsions:
REMARK  status: ('A' for Active; 'I' for Inactive)
REMARK    1  A    between atoms: S_6  and  C_1 
REMARK    2  A    between atoms: C_7  and  S_6 
ROOT
ATOM      1  C   UNL d   1      57.657   0.394  31.101  0.00  0.00     0.194 A 
ATOM      2  N   UNL d   1      57.400   0.579  30.314  0.00  0.00    -0.220 NA
ATOM      3  N   UNL d   1      58.469   0.262  31.071  0.00  0.00    -0.220 NA
ATOM      4  C   UNL d   1      58.049   0.556  29.834  0.00  0.00     0.101 A 
ATOM      5  C   UNL d   1      58.725   0.356  30.313  0.00  0.00     0.101 A 
ATOM      6  C   UNL d   1      58.179   0.682  29.016  0.00  0.00     0.021 A 
ATOM      7  C   UNL d   1      59.471   0.293  29.967  0.00  0.00     0.021 A 
ATOM      8  C   UNL d   1      59.563   0.423  29.157  0.00  0.00     0.002 A 
ATOM      9  C   UNL d   1      58.908   0.617  28.693  0.00  0.00     0.002 A 
ENDROOT
BRANCH   1  10
ATOM     10  S   UNL d   1      56.911   0.458  31.447  0.00  0.00    -0.049 SA
BRANCH  10  11
ATOM     11  C   UNL d   1      56.759   0.090  32.170  0.00  0.00     0.032 C 
ATOM     12  C   UNL d   1      56.745   0.534  32.865  0.00  0.00     0.007 C 
ATOM     13  C   UNL d   1      56.600  -0.686  32.401  0.00  0.00     0.007 C 
ENDBRANCH  10  11
ENDBRANCH   1  10
TORSDOF 2
ENDMDL
