MODEL 1
REMARK VINA RESULT:     109.6      0.000      0.000
REMARK  5 active torsions:
REMARK  status: ('A' for Active; 'I' for Inactive)
REMARK    1  A    between atoms: C_9  and  N_1 
REMARK    2  A    between atoms: C_8  and  C_3 
REMARK       I    between atoms: N_12  and  C_8 
REMARK    3  A    between atoms: C_21  and  C_9 
REMARK    4  A    between atoms: C_20  and  N_12 
REMARK    5  A    between atoms: C_13  and  C_20 
ROOT
ATOM      1  N   UNL d   1     -57.293 -99.156 -45.259  0.00  0.00    -0.273 N 
ATOM      2  C   UNL d   1     -56.580 -99.557 -45.267  0.00  0.00     0.177 A 
ATOM      3  C   UNL d   1     -56.459 -99.868 -44.503  0.00  0.00     0.115 A 
ATOM      4  C   UNL d   1     -57.619 -99.208 -44.509  0.00  0.00     0.167 A 
ATOM      5  C   UNL d   1     -57.102 -99.650 -44.039  0.00  0.00     0.123 A 
ATOM      6  N   UNL d   1     -58.325 -98.912 -44.180  0.00  0.00    -0.225 NA
ATOM      7  N   UNL d   1     -57.290 -99.796 -43.241  0.00  0.00    -0.241 NA
ATOM      8  C   UNL d   1     -58.507 -99.059 -43.390  0.00  0.00     0.101 A 
ATOM      9  C   UNL d   1     -57.990 -99.501 -42.921  0.00  0.00     0.099 A 
ATOM     10  N   UNL d   1     -56.069 -99.643 -45.911  0.00  0.00    -0.128 N 
ATOM     11  C   UNL d   1     -58.172 -99.648 -42.129  0.00  0.00     0.021 A 
ATOM     12  C   UNL d   1     -59.207 -98.764 -43.069  0.00  0.00     0.021 A 
ATOM     13  C   UNL d   1     -58.873 -99.352 -41.807  0.00  0.00     0.002 A 
ATOM     14  C   UNL d   1     -59.391 -98.910 -42.277  0.00  0.00     0.002 A 
ENDROOT
BRANCH   3  15
ATOM     15  C   UNL d   1     -55.806-100.316 -44.256  0.00  0.00     0.284 C 
ATOM     16  N   UNL d   1     -55.880-100.842 -43.626  0.00  0.00    -0.204 NA
ATOM     17  O   UNL d   1     -55.079-100.231 -44.647  0.00  0.00    -0.265 OA
BRANCH  16  18
ATOM     18  C   UNL d   1     -55.221-101.288 -43.384  0.00  0.00     0.127 C 
BRANCH  18  19
ATOM     19  C   UNL d   1     -55.087-101.420 -42.576  0.00  0.00     0.119 A 
ATOM     20  O   UNL d   1     -55.222-102.131 -42.174  0.00  0.00    -0.304 OA
ATOM     21  C   UNL d   1     -55.015-102.011 -41.391  0.00  0.00     0.123 A 
ATOM     22  C   UNL d   1     -54.753-101.224 -41.309  0.00  0.00     0.029 A 
ATOM     23  C   UNL d   1     -54.800-100.870 -42.040  0.00  0.00     0.028 A 
ENDBRANCH  18  19
ENDBRANCH  16  18
ENDBRANCH   3  15
BRANCH   1  24
ATOM     24  C   UNL d   1     -57.633 -98.756 -45.914  0.00  0.00     0.083 C 
BRANCH  24  25
ATOM     25  C   UNL d   1     -58.378 -98.974 -46.191  0.00  0.00     0.018 A 
ATOM     26  C   UNL d   1     -58.449 -99.390 -46.895  0.00  0.00     0.002 A 
ATOM     27  C   UNL d   1     -59.198 -99.609 -47.173  0.00  0.00     0.000 A 
ATOM     28  C   UNL d   1     -59.872 -99.412 -46.748  0.00  0.00     0.000 A 
ATOM     29  C   UNL d   1     -59.799 -98.991 -46.036  0.00  0.00     0.000 A 
ATOM     30  C   UNL d   1     -59.050 -98.772 -45.758  0.00  0.00     0.002 A 
ENDBRANCH  24  25
ENDBRANCH   1  24
TORSDOF 5
ENDMDL
