MODEL 1
REMARK VINA RESULT:      28.2      0.000      0.000
REMARK  1 active torsions:
REMARK  status: ('A' for Active; 'I' for Inactive)
REMARK    1  A    between atoms: C_12  and  C_1 
ROOT
ATOM      1  C   UNL d   1      58.805  49.699  50.989  0.00  0.00     0.019 A 
ATOM      2  C   UNL d   1      57.397  49.701  50.726  0.00  0.00     0.103 A 
ATOM      3  C   UNL d   1      58.176  49.699  50.457  0.00  0.00     0.024 A 
ATOM      4  O   UNL d   1      57.240  49.703  51.535  0.00  0.00    -0.273 OA
ATOM      5  C   UNL d   1      57.870  49.702  52.071  0.00  0.00     0.300 A 
ATOM      6  C   UNL d   1      58.650  49.700  51.801  0.00  0.00     0.070 A 
ATOM      7  C   UNL d   1      58.329  49.698  49.646  0.00  0.00     0.002 A 
ATOM      8  C   UNL d   1      56.769  49.702  50.185  0.00  0.00     0.025 A 
ATOM      9  C   UNL d   1      57.710  49.698  49.106  0.00  0.00     0.000 A 
ATOM     10  O   UNL d   1      57.715  49.704  52.887  0.00  0.00    -0.259 OA
ATOM     11  C   UNL d   1      56.926  49.701  49.377  0.00  0.00     0.002 A 
ATOM     12  C   UNL d   1      59.106  49.696  49.369  0.00  0.00     0.000 C 
ATOM     13  C   UNL d   1      56.301  49.701  48.830  0.00  0.00     0.000 C 
ENDROOT
BRANCH   1  14
ATOM     14  C   UNL d   1      59.582  49.697  50.712  0.00  0.00     0.069 C 
ATOM     15 CL   UNL d   1      60.195  49.493  51.224  0.00  0.00    -0.082 Cl
ENDBRANCH   1  14
TORSDOF 1
ENDMDL
