MODEL 1
REMARK VINA RESULT:      18.5      0.000      0.000
REMARK  1 active torsions:
REMARK  status: ('A' for Active; 'I' for Inactive)
REMARK    1  A    between atoms: C_10  and  C_5 
ROOT
ATOM      1  C   UNL d   1      43.757 -15.003  36.830  0.00  0.00     0.118 A 
ATOM      2  C   UNL d   1      43.695 -15.787  36.627  0.00  0.00     0.088 A 
ATOM      3  N   UNL d   1      44.519 -14.661  36.946  0.00  0.00    -0.219 NA
ATOM      4  C   UNL d   1      44.395 -16.224  36.542  0.00  0.00     0.303 A 
ATOM      5  C   UNL d   1      45.192 -15.112  36.857  0.00  0.00     0.162 A 
ATOM      6  O   UNL d   1      45.128 -15.892  36.655  0.00  0.00    -0.259 OA
ATOM      7  S   UNL d   1      42.981 -14.686  36.881  0.00  0.00    -0.068 SA
ATOM      8  C   UNL d   1      42.897 -15.959  36.552  0.00  0.00     0.013 A 
ATOM      9  C   UNL d   1      42.480 -15.297  36.706  0.00  0.00     0.031 A 
ATOM     10  O   UNL d   1      44.371 -17.027  36.336  0.00  0.00    -0.259 OA
ATOM     11  C   UNL d   1      42.519 -16.662  36.359  0.00  0.00     0.001 A 
ATOM     12  C   UNL d   1      41.655 -15.274  36.680  0.00  0.00     0.006 A 
ATOM     13  C   UNL d   1      41.677 -16.648  36.330  0.00  0.00     0.000 A 
ATOM     14  C   UNL d   1      41.260 -15.996  36.480  0.00  0.00     0.001 A 
ENDROOT
BRANCH   5  15
ATOM     15  C   UNL d   1      45.936 -14.736  36.981  0.00  0.00     0.058 C 
ATOM     16  C   UNL d   1      45.600 -14.327  37.615  0.00  0.00     0.008 C 
ATOM     17  C   UNL d   1      46.647 -14.352  37.129  0.00  0.00     0.008 C 
ATOM     18  C   UNL d   1      46.276 -15.144  36.347  0.00  0.00     0.008 C 
ENDBRANCH   5  15
TORSDOF 1
ENDMDL
MODEL 2
REMARK VINA RESULT:      18.6      1.190      3.620
REMARK  1 active torsions:
REMARK  status: ('A' for Active; 'I' for Inactive)
REMARK    1  A    between atoms: C_10  and  C_5 
ROOT
ATOM      1  C   UNL d   1      44.172 -15.775  36.557  0.00  0.00     0.118 A 
ATOM      2  C   UNL d   1      44.221 -15.109  37.019  0.00  0.00     0.088 A 
ATOM      3  N   UNL d   1      43.418 -16.114  36.391  0.00  0.00    -0.219 NA
ATOM      4  C   UNL d   1      43.515 -14.786  37.312  0.00  0.00     0.303 A 
ATOM      5  C   UNL d   1      42.738 -15.778  36.692  0.00  0.00     0.162 A 
ATOM      6  O   UNL d   1      42.790 -15.115  37.151  0.00  0.00    -0.259 OA
ATOM      7  S   UNL d   1      44.951 -15.992  36.331  0.00  0.00    -0.068 SA
ATOM      8  C   UNL d   1      45.014 -14.911  37.082  0.00  0.00     0.013 A 
ATOM      9  C   UNL d   1      45.441 -15.443  36.669  0.00  0.00     0.031 A 
ATOM     10  O   UNL d   1      43.526 -14.106  37.787  0.00  0.00    -0.259 OA
ATOM     11  C   UNL d   1      45.379 -14.293  37.480  0.00  0.00     0.001 A 
ATOM     12  C   UNL d   1      46.263 -15.408  36.615  0.00  0.00     0.006 A 
ATOM     13  C   UNL d   1      46.219 -14.249  37.431  0.00  0.00     0.000 A 
ATOM     14  C   UNL d   1      46.646 -14.772  37.024  0.00  0.00     0.001 A 
ENDROOT
BRANCH   5  15
ATOM     15  C   UNL d   1      42.004 -16.144  36.505  0.00  0.00     0.058 C 
ATOM     16  C   UNL d   1      41.626 -15.430  36.679  0.00  0.00     0.008 C 
ATOM     17  C   UNL d   1      41.270 -16.471  36.330  0.00  0.00     0.008 C 
ATOM     18  C   UNL d   1      42.377 -16.861  36.330  0.00  0.00     0.008 C 
ENDBRANCH   5  15
TORSDOF 1
ENDMDL
MODEL 3
REMARK VINA RESULT:      19.4      7.597      8.273
REMARK  1 active torsions:
REMARK  status: ('A' for Active; 'I' for Inactive)
REMARK    1  A    between atoms: C_10  and  C_5 
ROOT
ATOM      1  C   UNL d   1      46.142 -17.768  44.527  0.00  0.00     0.118 A 
ATOM      2  C   UNL d   1      46.105 -17.942  43.735  0.00  0.00     0.088 A 
ATOM      3  N   UNL d   1      45.992 -16.981  44.789  0.00  0.00    -0.219 NA
ATOM      4  C   UNL d   1      45.917 -17.329  43.209  0.00  0.00     0.303 A 
ATOM      5  C   UNL d   1      45.809 -16.395  44.252  0.00  0.00     0.162 A 
ATOM      6  O   UNL d   1      45.772 -16.571  43.465  0.00  0.00    -0.259 OA
ATOM      7  S   UNL d   1      46.340 -18.473  44.939  0.00  0.00    -0.068 SA
ATOM      8  C   UNL d   1      46.275 -18.740  43.650  0.00  0.00     0.013 A 
ATOM      9  C   UNL d   1      46.414 -19.047  44.373  0.00  0.00     0.031 A 
ATOM     10  O   UNL d   1      45.870 -17.469  42.393  0.00  0.00    -0.259 OA
ATOM     11  C   UNL d   1      46.315 -19.208  42.977  0.00  0.00     0.001 A 
ATOM     12  C   UNL d   1      46.603 -19.842  44.490  0.00  0.00     0.006 A 
ATOM     13  C   UNL d   1      46.507 -20.021  43.087  0.00  0.00     0.000 A 
ATOM     14  C   UNL d   1      46.645 -20.330  43.799  0.00  0.00     0.001 A 
ENDROOT
BRANCH   5  15
ATOM     15  C   UNL d   1      45.664 -15.621  44.551  0.00  0.00     0.058 C 
ATOM     16  C   UNL d   1      45.008 -15.920  44.953  0.00  0.00     0.008 C 
ATOM     17  C   UNL d   1      45.496 -14.878  44.860  0.00  0.00     0.008 C 
ATOM     18  C   UNL d   1      46.321 -15.317  44.150  0.00  0.00     0.008 C 
ENDBRANCH   5  15
TORSDOF 1
ENDMDL
MODEL 4
REMARK VINA RESULT:      20.5      0.722      3.404
REMARK  1 active torsions:
REMARK  status: ('A' for Active; 'I' for Inactive)
REMARK    1  A    between atoms: C_10  and  C_5 
ROOT
ATOM      1  C   UNL d   1      43.961 -14.880  36.850  0.00  0.00     0.118 A 
ATOM      2  C   UNL d   1      44.485 -15.486  36.714  0.00  0.00     0.088 A 
ATOM      3  N   UNL d   1      43.135 -15.012  36.749  0.00  0.00    -0.219 NA
ATOM      4  C   UNL d   1      44.180 -16.220  36.478  0.00  0.00     0.303 A 
ATOM      5  C   UNL d   1      42.859 -15.744  36.515  0.00  0.00     0.162 A 
ATOM      6  O   UNL d   1      43.382 -16.345  36.381  0.00  0.00    -0.259 OA
ATOM      7  S   UNL d   1      44.401 -14.203  37.081  0.00  0.00    -0.068 SA
ATOM      8  C   UNL d   1      45.238 -15.195  36.856  0.00  0.00     0.013 A 
ATOM      9  C   UNL d   1      45.178 -14.430  37.074  0.00  0.00     0.031 A 
ATOM     10  O   UNL d   1      44.684 -16.861  36.330  0.00  0.00    -0.259 OA
ATOM     11  C   UNL d   1      45.970 -15.564  36.805  0.00  0.00     0.001 A 
ATOM     12  C   UNL d   1      45.835 -13.967  37.259  0.00  0.00     0.006 A 
ATOM     13  C   UNL d   1      46.647 -15.098  36.992  0.00  0.00     0.000 A 
ATOM     14  C   UNL d   1      46.593 -14.342  37.207  0.00  0.00     0.001 A 
ENDROOT
BRANCH   5  15
ATOM     15  C   UNL d   1      42.027 -15.839  36.424  0.00  0.00     0.058 C 
ATOM     16  C   UNL d   1      42.146 -16.654  36.369  0.00  0.00     0.008 C 
ATOM     17  C   UNL d   1      41.220 -15.966  36.333  0.00  0.00     0.008 C 
ATOM     18  C   UNL d   1      41.903 -15.023  36.479  0.00  0.00     0.008 C 
ENDBRANCH   5  15
TORSDOF 1
ENDMDL
