MODEL 1
REMARK VINA RESULT:      80.4      0.000      0.000
REMARK  5 active torsions:
REMARK  status: ('A' for Active; 'I' for Inactive)
REMARK    1  A    between atoms: C_10  and  N_1 
REMARK    2  A    between atoms: S_7  and  C_4 
REMARK    3  A    between atoms: C_9  and  C_6 
REMARK    4  A    between atoms: C_8  and  S_7 
REMARK    5  A    between atoms: N_14  and  C_13 
ROOT
ATOM      1  N   UNL d   1      60.088  48.294  50.602  0.00  0.00    -0.241 N 
ATOM      2  C   UNL d   1      60.389  49.032  50.681  0.00  0.00     0.268 A 
ATOM      3  C   UNL d   1      59.280  48.294  50.724  0.00  0.00     0.273 A 
ATOM      4  C   UNL d   1      59.068  49.075  50.888  0.00  0.00     0.091 A 
ATOM      5  C   UNL d   1      59.760  49.534  50.861  0.00  0.00     0.072 A 
ATOM      6  O   UNL d   1      61.185  49.223  50.594  0.00  0.00    -0.267 OA
ATOM      7  O   UNL d   1      58.774  47.623  50.687  0.00  0.00    -0.266 OA
ENDROOT
BRANCH   4   8
ATOM      8  S   UNL d   1      58.287  49.249  51.035  0.00  0.00    -0.082 SA
BRANCH   8   9
ATOM      9  C   UNL d   1      57.744  49.384  50.406  0.00  0.00     0.035 A 
ATOM     10  C   UNL d   1      56.913  49.335  50.535  0.00  0.00     0.070 A 
ATOM     11  C   UNL d   1      56.419  49.475  49.892  0.00  0.00     0.007 A 
ATOM     12  C   UNL d   1      56.741  49.657  49.143  0.00  0.00     0.000 A 
ATOM     13  C   UNL d   1      57.573  49.701  49.034  0.00  0.00     0.001 A 
ATOM     14  C   UNL d   1      58.069  49.564  49.667  0.00  0.00     0.007 A 
BRANCH  10  15
ATOM     15  C   UNL d   1      56.611  49.159  51.260  0.00  0.00     0.211 C 
ATOM     16  O   UNL d   1      56.315  48.409  51.405  0.00  0.00    -0.644 OA
ATOM     17  O   UNL d   1      56.583  49.699  51.876  0.00  0.00    -0.644 OA
ENDBRANCH  10  15
ENDBRANCH   8   9
ENDBRANCH   4   8
BRANCH   1  18
ATOM     18  C   UNL d   1      60.607  47.635  50.413  0.00  0.00     0.070 A 
ATOM     19  C   UNL d   1      60.363  46.874  50.542  0.00  0.00     0.019 A 
ATOM     20  C   UNL d   1      60.877  46.248  50.354  0.00  0.00     0.019 A 
ATOM     21  C   UNL d   1      61.622  46.408  50.040  0.00  0.00     0.064 A 
ATOM     22  C   UNL d   1      61.866  47.187  49.910  0.00  0.00     0.019 A 
ATOM     23  C   UNL d   1      61.361  47.806  50.095  0.00  0.00     0.019 A 
BRANCH  21  24
ATOM     24  N   UNL d   1      62.126  45.795  49.855  0.00  0.00    -0.301 N 
ATOM     25  C   UNL d   1      62.734  45.921  49.310  0.00  0.00     0.100 C 
ATOM     26  C   UNL d   1      62.021  45.067  50.211  0.00  0.00     0.100 C 
ENDBRANCH  21  24
ENDBRANCH   1  18
TORSDOF 5
ENDMDL
