MODEL 1
REMARK VINA RESULT:      41.1      0.000      0.000
REMARK  4 active torsions:
REMARK  status: ('A' for Active; 'I' for Inactive)
REMARK    1  A    between atoms: C_2  and  N_1 
REMARK       I    between atoms: C_3  and  N_1 
REMARK    2  A    between atoms: N_5  and  C_2 
REMARK    3  A    between atoms: C_4  and  C_3 
REMARK    4  A    between atoms: C_7  and  N_5 
ROOT
ATOM      1  C   UNL d   1     -54.938-101.263 -43.715  0.00  0.00     0.224 C 
ATOM      2  S   UNL d   1     -55.345-101.825 -44.164  0.00  0.00    -0.037 SA
ENDROOT
BRANCH   1   3
ATOM      3  N   UNL d   1     -54.759-101.417 -42.925  0.00  0.00    -0.177 NA
ATOM      4  C   UNL d   1     -55.190-101.978 -42.499  0.00  0.00     0.304 C 
ATOM      5  O   UNL d   1     -55.805-102.385 -42.871  0.00  0.00    -0.263 OA
BRANCH   4   6
ATOM      6  C   UNL d   1     -55.011-102.131 -41.708  0.00  0.00     0.158 A 
ATOM      7  O   UNL d   1     -54.868-101.555 -41.128  0.00  0.00    -0.300 OA
ATOM      8  C   UNL d   1     -54.712-101.961 -40.420  0.00  0.00     0.123 A 
ATOM      9  C   UNL d   1     -54.760-102.771 -40.568  0.00  0.00     0.029 A 
ATOM     10  C   UNL d   1     -54.945-102.875 -41.365  0.00  0.00     0.032 A 
ENDBRANCH   4   6
ENDBRANCH   1   3
BRANCH   1  11
ATOM     11  N   UNL d   1     -54.712-100.545 -44.065  0.00  0.00    -0.215 NA
BRANCH  11  12
ATOM     12  C   UNL d   1     -55.272-100.066 -44.436  0.00  0.00     0.112 A 
ATOM     13  C   UNL d   1     -55.278 -99.243 -44.296  0.00  0.00     0.156 A 
ATOM     14  N   UNL d   1     -55.838 -98.765 -44.667  0.00  0.00    -0.231 NA
ATOM     15 CL   UNL d   1     -54.716 -98.908 -43.780  0.00  0.00    -0.060 Cl
ATOM     16  C   UNL d   1     -56.392 -99.100 -45.177  0.00  0.00     0.100 A 
ATOM     17  C   UNL d   1     -56.387 -99.916 -45.316  0.00  0.00     0.022 A 
ATOM     18  C   UNL d   1     -55.827-100.402 -44.946  0.00  0.00     0.023 A 
ENDBRANCH  11  12
ENDBRANCH   1  11
TORSDOF 4
ENDMDL
MODEL 2
REMARK VINA RESULT:      42.6      1.836      4.307
REMARK  4 active torsions:
REMARK  status: ('A' for Active; 'I' for Inactive)
REMARK    1  A    between atoms: C_2  and  N_1 
REMARK       I    between atoms: C_3  and  N_1 
REMARK    2  A    between atoms: N_5  and  C_2 
REMARK    3  A    between atoms: C_4  and  C_3 
REMARK    4  A    between atoms: C_7  and  N_5 
ROOT
ATOM      1  C   UNL d   1     -55.002-101.319 -41.801  0.00  0.00     0.224 C 
ATOM      2  S   UNL d   1     -54.888-102.124 -41.950  0.00  0.00    -0.037 SA
ENDROOT
BRANCH   1   3
ATOM      3  N   UNL d   1     -54.919-100.769 -42.410  0.00  0.00    -0.177 NA
ATOM      4  C   UNL d   1     -55.072-100.986 -43.192  0.00  0.00     0.304 C 
ATOM      5  O   UNL d   1     -55.308-101.759 -43.360  0.00  0.00    -0.263 OA
BRANCH   4   6
ATOM      6  C   UNL d   1     -54.990-100.435 -43.801  0.00  0.00     0.158 A 
ATOM      7  O   UNL d   1     -55.177-100.572 -44.599  0.00  0.00    -0.300 OA
ATOM      8  C   UNL d   1     -55.007 -99.869 -45.008  0.00  0.00     0.123 A 
ATOM      9  C   UNL d   1     -54.722 -99.314 -44.468  0.00  0.00     0.029 A 
ATOM     10  C   UNL d   1     -54.712 -99.666 -43.722  0.00  0.00     0.032 A 
ENDBRANCH   4   6
ENDBRANCH   1   3
BRANCH   1  11
ATOM     11  N   UNL d   1     -55.199-101.070 -41.034  0.00  0.00    -0.215 NA
BRANCH  11  12
ATOM     12  C   UNL d   1     -55.073-101.567 -40.387  0.00  0.00     0.112 A 
ATOM     13  C   UNL d   1     -54.849-101.245 -39.650  0.00  0.00     0.156 A 
ATOM     14  N   UNL d   1     -54.724-101.742 -39.003  0.00  0.00    -0.231 NA
ATOM     15 CL   UNL d   1     -54.754-100.422 -39.571  0.00  0.00    -0.060 Cl
ATOM     16  C   UNL d   1     -54.820-102.557 -39.086  0.00  0.00     0.100 A 
ATOM     17  C   UNL d   1     -55.041-102.875 -39.816  0.00  0.00     0.022 A 
ATOM     18  C   UNL d   1     -55.169-102.382 -40.470  0.00  0.00     0.023 A 
ENDBRANCH  11  12
ENDBRANCH   1  11
TORSDOF 4
ENDMDL
