MODEL 1
REMARK VINA RESULT:      -1.7      0.000      0.000
REMARK  5 active torsions:
REMARK  status: ('A' for Active; 'I' for Inactive)
REMARK    1  A    between atoms: C_10  and  N_1 
REMARK    2  A    between atoms: N_2  and  C_8 
REMARK    3  A    between atoms: C_5  and  C_12 
REMARK       I    between atoms: N_6  and  C_5 
REMARK    4  A    between atoms: C_7  and  N_6 
REMARK    5  A    between atoms: O_26  and  C_14 
ROOT
ATOM      1  C   UNL d   1      32.609  20.216 -22.161  0.00  0.00     0.279 C 
ATOM      2  N   UNL d   1      33.056  20.840 -22.437  0.00  0.00    -0.206 NA
ATOM      3  O   UNL d   1      32.155  20.290 -21.483  0.00  0.00    -0.265 OA
ENDROOT
BRANCH   1   4
ATOM      4  C   UNL d   1      32.613  19.483 -22.580  0.00  0.00     0.058 A 
ATOM      5  C   UNL d   1      31.997  19.303 -23.083  0.00  0.00     0.006 A 
ATOM      6  C   UNL d   1      32.001  18.575 -23.499  0.00  0.00     0.018 A 
ATOM      7  C   UNL d   1      32.620  18.055 -23.396  0.00  0.00     0.070 A 
ATOM      8  C   UNL d   1      33.241  18.233 -22.891  0.00  0.00     0.018 A 
ATOM      9  C   UNL d   1      33.237  18.962 -22.475  0.00  0.00     0.006 A 
BRANCH   7  10
ATOM     10  N   UNL d   1      32.624  17.318 -23.817  0.00  0.00    -0.242 N 
ATOM     11  C   UNL d   1      32.374  16.553 -23.601  0.00  0.00     0.267 A 
ATOM     12  C   UNL d   1      32.513  16.053 -24.238  0.00  0.00     0.066 A 
ATOM     13  O   UNL d   1      32.029  16.324 -22.840  0.00  0.00    -0.267 OA
ATOM     14  C   UNL d   1      32.846  16.523 -24.833  0.00  0.00     0.066 A 
ATOM     15  C   UNL d   1      32.916  17.297 -24.581  0.00  0.00     0.267 A 
ATOM     16  O   UNL d   1      33.232  17.925 -25.042  0.00  0.00    -0.267 OA
ENDBRANCH   7  10
ENDBRANCH   1   4
BRANCH   2  17
ATOM     17  C   UNL d   1      33.052  21.576 -22.016  0.00  0.00     0.108 A 
ATOM     18  C   UNL d   1      32.956  21.584 -21.192  0.00  0.00     0.045 A 
ATOM     19  C   UNL d   1      32.952  22.301 -20.782  0.00  0.00     0.128 A 
ATOM     20  C   UNL d   1      33.045  23.024 -21.189  0.00  0.00     0.026 A 
ATOM     21  C   UNL d   1      33.140  23.003 -22.010  0.00  0.00     0.027 A 
ATOM     22  C   UNL d   1      33.143  22.287 -22.419  0.00  0.00     0.112 A 
BRANCH  19  23
ATOM     23  N   UNL d   1      32.858  22.298 -19.974  0.00  0.00    -0.114 N 
ATOM     24  O   UNL d   1      33.239  21.776 -19.444  0.00  0.00    -0.532 OA
ATOM     25  O   UNL d   1      32.327  22.870 -19.609  0.00  0.00    -0.532 OA
ENDBRANCH  19  23
BRANCH  22  26
ATOM     26  O   UNL d   1      33.239  22.293 -23.231  0.00  0.00    -0.327 OA
ATOM     27  C   UNL d   1      33.238  23.012 -23.641  0.00  0.00     0.181 C 
ENDBRANCH  22  26
ENDBRANCH   2  17
TORSDOF 5
ENDMDL
MODEL 2
REMARK VINA RESULT:      -0.2      1.344      5.319
REMARK  5 active torsions:
REMARK  status: ('A' for Active; 'I' for Inactive)
REMARK    1  A    between atoms: C_10  and  N_1 
REMARK    2  A    between atoms: N_2  and  C_8 
REMARK    3  A    between atoms: C_5  and  C_12 
REMARK       I    between atoms: N_6  and  C_5 
REMARK    4  A    between atoms: C_7  and  N_6 
REMARK    5  A    between atoms: O_26  and  C_14 
ROOT
ATOM      1  C   UNL d   1      32.569  19.757 -22.054  0.00  0.00     0.279 C 
ATOM      2  N   UNL d   1      33.154  19.625 -22.607  0.00  0.00    -0.206 NA
ATOM      3  O   UNL d   1      31.943  19.235 -21.969  0.00  0.00    -0.265 OA
ENDROOT
BRANCH   1   4
ATOM      4  C   UNL d   1      32.608  20.442 -21.562  0.00  0.00     0.058 A 
ATOM      5  C   UNL d   1      32.060  21.039 -21.658  0.00  0.00     0.006 A 
ATOM      6  C   UNL d   1      32.098  21.719 -21.168  0.00  0.00     0.018 A 
ATOM      7  C   UNL d   1      32.683  21.776 -20.602  0.00  0.00     0.070 A 
ATOM      8  C   UNL d   1      33.234  21.177 -20.504  0.00  0.00     0.018 A 
ATOM      9  C   UNL d   1      33.196  20.497 -20.993  0.00  0.00     0.006 A 
BRANCH   7  10
ATOM     10  N   UNL d   1      32.721  22.464 -20.107  0.00  0.00    -0.242 N 
ATOM     11  C   UNL d   1      32.544  23.265 -20.254  0.00  0.00     0.267 A 
ATOM     12  C   UNL d   1      32.687  23.686 -19.563  0.00  0.00     0.066 A 
ATOM     13  O   UNL d   1      32.260  23.597 -21.003  0.00  0.00    -0.267 OA
ATOM     14  C   UNL d   1      32.949  23.133 -19.005  0.00  0.00     0.066 A 
ATOM     15  C   UNL d   1      32.972  22.385 -19.333  0.00  0.00     0.267 A 
ATOM     16  O   UNL d   1      33.211  21.690 -18.925  0.00  0.00    -0.267 OA
ENDBRANCH   7  10
ENDBRANCH   1   4
BRANCH   2  17
ATOM     17  C   UNL d   1      33.116  18.937 -23.101  0.00  0.00     0.108 A 
ATOM     18  C   UNL d   1      33.068  18.181 -22.761  0.00  0.00     0.045 A 
ATOM     19  C   UNL d   1      33.030  17.512 -23.242  0.00  0.00     0.128 A 
ATOM     20  C   UNL d   1      33.040  17.585 -24.074  0.00  0.00     0.026 A 
ATOM     21  C   UNL d   1      33.087  18.343 -24.401  0.00  0.00     0.027 A 
ATOM     22  C   UNL d   1      33.125  19.012 -23.920  0.00  0.00     0.112 A 
BRANCH  19  23
ATOM     23  N   UNL d   1      32.984  16.776 -22.899  0.00  0.00    -0.114 N 
ATOM     24  O   UNL d   1      33.241  16.585 -22.127  0.00  0.00    -0.532 OA
ATOM     25  O   UNL d   1      32.646  16.122 -23.347  0.00  0.00    -0.532 OA
ENDBRANCH  19  23
BRANCH  22  26
ATOM     26  O   UNL d   1      33.172  19.750 -24.268  0.00  0.00    -0.327 OA
ATOM     27  C   UNL d   1      33.233  19.815 -25.090  0.00  0.00     0.181 C 
ENDBRANCH  22  26
ENDBRANCH   2  17
TORSDOF 5
ENDMDL
