MODEL 1
REMARK VINA RESULT:      57.2      0.000      0.000
REMARK  8 active torsions:
REMARK  status: ('A' for Active; 'I' for Inactive)
REMARK    1  A    between atoms: N_5  and  C_1 
REMARK    2  A    between atoms: C_2  and  N_5 
REMARK    3  A    between atoms: N_3  and  C_2 
REMARK       I    between atoms: C_6  and  N_3 
REMARK    4  A    between atoms: C_13  and  C_6 
REMARK    5  A    between atoms: C_9  and  C_7 
REMARK    6  A    between atoms: C_11  and  C_9 
REMARK    7  A    between atoms: O_18  and  C_11 
REMARK    8  A    between atoms: C_22  and  O_18 
ROOT
ATOM      1  C   UNL d   1      60.207  49.541  51.146  0.00  0.00     0.225 C 
ATOM      2  S   UNL d   1      60.156  49.482  51.969  0.00  0.00    -0.037 SA
ENDROOT
BRANCH   1   3
ATOM      3  N   UNL d   1      60.921  49.482  50.743  0.00  0.00    -0.192 NA
BRANCH   3   4
ATOM      4  C   UNL d   1      61.224  48.746  50.588  0.00  0.00     0.196 A 
ATOM      5  N   UNL d   1      60.946  47.976  50.631  0.00  0.00    -0.220 NA
ATOM      6  C   UNL d   1      61.507  47.468  50.402  0.00  0.00     0.095 A 
ATOM      7  C   UNL d   1      62.179  47.868  50.197  0.00  0.00     0.058 A 
ATOM      8  S   UNL d   1      62.031  48.667  50.303  0.00  0.00    -0.046 SA
BRANCH   6   9
ATOM      9  C   UNL d   1      61.430  46.597  50.368  0.00  0.00     0.088 C 
BRANCH   9  10
ATOM     10  C   UNL d   1      61.885  46.163  49.856  0.00  0.00     0.302 C 
ATOM     11  O   UNL d   1      62.346  46.535  49.286  0.00  0.00    -0.259 OA
BRANCH  10  12
ATOM     12  O   UNL d   1      61.886  45.327  49.908  0.00  0.00    -0.271 OA
BRANCH  12  13
ATOM     13  C   UNL d   1      61.181  44.902  49.783  0.00  0.00     0.126 C 
ATOM     14  C   UNL d   1      61.007  44.246  50.232  0.00  0.00     0.029 C 
ENDBRANCH  12  13
ENDBRANCH  10  12
ENDBRANCH   9  10
ENDBRANCH   6   9
ENDBRANCH   3   4
ENDBRANCH   1   3
BRANCH   1  15
ATOM     15  N   UNL d   1      59.500  49.665  50.705  0.00  0.00    -0.179 NA
ATOM     16  C   UNL d   1      58.861  49.223  50.877  0.00  0.00     0.281 C 
ATOM     17  O   UNL d   1      58.882  48.647  51.478  0.00  0.00    -0.265 OA
BRANCH  16  18
ATOM     18  C   UNL d   1      58.139  49.338  50.439  0.00  0.00     0.058 A 
ATOM     19  C   UNL d   1      58.126  49.227  49.621  0.00  0.00     0.005 A 
ATOM     20  C   UNL d   1      57.451  49.330  49.182  0.00  0.00     0.000 A 
ATOM     21  C   UNL d   1      56.747  49.556  49.575  0.00  0.00     0.000 A 
ATOM     22  C   UNL d   1      56.760  49.665  50.381  0.00  0.00     0.000 A 
ATOM     23  C   UNL d   1      56.040  49.671  49.164  0.00  0.00     0.000 C 
ATOM     24  C   UNL d   1      57.442  49.563  50.838  0.00  0.00     0.005 A 
ENDBRANCH  16  18
ENDBRANCH   1  15
TORSDOF 8
ENDMDL
