MODEL 1
REMARK VINA RESULT:      65.1      0.000      0.000
REMARK  5 active torsions:
REMARK  status: ('A' for Active; 'I' for Inactive)
REMARK    1  A    between atoms: C_5  and  C_1 
REMARK    2  A    between atoms: O_8  and  C_2 
REMARK    3  A    between atoms: C_20  and  O_8 
REMARK    4  A    between atoms: C_11  and  O_14 
REMARK    5  A    between atoms: O_14  and  C_13 
ROOT
ATOM      1  C   UNL d   1     -56.097 -99.740 -44.797  0.00  0.00     0.197 A 
ATOM      2  C   UNL d   1     -56.092 -99.576 -43.987  0.00  0.00     0.165 A 
ATOM      3  O   UNL d   1     -56.772 -99.619 -45.224  0.00  0.00    -0.301 OA
ATOM      4  C   UNL d   1     -56.768 -99.291 -43.613  0.00  0.00     0.222 A 
ATOM      5  C   UNL d   1     -57.452 -99.335 -44.860  0.00  0.00     0.105 A 
ATOM      6  C   UNL d   1     -57.446 -99.172 -44.049  0.00  0.00     0.064 A 
ATOM      7  C   UNL d   1     -58.140 -99.212 -45.296  0.00  0.00     0.050 A 
ATOM      8  C   UNL d   1     -58.133 -98.885 -43.682  0.00  0.00     0.007 A 
ATOM      9  O   UNL d   1     -56.763 -99.129 -42.810  0.00  0.00    -0.284 OA
ATOM     10  C   UNL d   1     -58.807 -98.933 -44.937  0.00  0.00     0.105 A 
ATOM     11  C   UNL d   1     -58.805 -98.769 -44.129  0.00  0.00     0.025 A 
ENDROOT
BRANCH   2  12
ATOM     12  O   UNL d   1     -55.405 -99.694 -43.526  0.00  0.00    -0.302 OA
BRANCH  12  13
ATOM     13  C   UNL d   1     -55.223-100.438 -43.224  0.00  0.00     0.100 A 
ATOM     14  C   UNL d   1     -54.896-100.515 -42.476  0.00  0.00     0.025 A 
ATOM     15  C   UNL d   1     -54.714-101.261 -42.177  0.00  0.00     0.002 A 
ATOM     16  C   UNL d   1     -54.863-101.936 -42.632  0.00  0.00     0.000 A 
ATOM     17  C   UNL d   1     -55.195-101.865 -43.392  0.00  0.00     0.002 A 
ATOM     18  C   UNL d   1     -55.376-101.114 -43.689  0.00  0.00     0.025 A 
ENDBRANCH  12  13
ENDBRANCH   2  12
BRANCH   1  19
ATOM     19  C   UNL d   1     -55.430-100.022 -45.169  0.00  0.00     0.442 C 
ATOM     20  F   UNL d   1     -54.736-100.231 -45.544  0.00  0.00    -0.164 F 
ATOM     21  F   UNL d   1     -55.320-100.877 -45.362  0.00  0.00    -0.164 F 
ATOM     22  F   UNL d   1     -54.903 -99.491 -45.342  0.00  0.00    -0.164 F 
ENDBRANCH   1  19
BRANCH  10  23
ATOM     23  O   UNL d   1     -59.518 -98.808 -45.401  0.00  0.00    -0.273 OA
BRANCH  23  24
ATOM     24  C   UNL d   1     -59.695 -99.329 -46.017  0.00  0.00     0.300 C 
ATOM     25  O   UNL d   1     -59.885-100.137 -45.851  0.00  0.00    -0.259 OA
ATOM     26  C   UNL d   1     -59.685 -99.060 -46.787  0.00  0.00     0.074 C 
ENDBRANCH  23  24
ENDBRANCH  10  23
TORSDOF 5
ENDMDL
