MODEL 1
REMARK VINA RESULT:      27.8      0.000      0.000
REMARK  3 active torsions:
REMARK  status: ('A' for Active; 'I' for Inactive)
REMARK    1  A    between atoms: C_14  and  N_3 
REMARK    2  A    between atoms: O_17  and  C_12 
REMARK    3  A    between atoms: O_16  and  C_13 
ROOT
ATOM      1  C   UNL d   1      46.056 -17.107  44.073  0.00  0.00     0.166 A 
ATOM      2  C   UNL d   1      46.181 -16.966  43.247  0.00  0.00     0.117 A 
ATOM      3  N   UNL d   1      46.143 -17.923  44.204  0.00  0.00    -0.289 N 
ATOM      4  N   UNL d   1      45.882 -16.451  44.565  0.00  0.00    -0.225 NA
ATOM      5  N   UNL d   1      46.131 -16.206  42.947  0.00  0.00    -0.241 NA
ATOM      6  C   UNL d   1      46.338 -17.699  42.912  0.00  0.00     0.037 A 
ATOM      7  C   UNL d   1      46.315 -18.282  43.495  0.00  0.00     0.067 A 
ATOM      8  C   UNL d   1      45.832 -15.694  44.267  0.00  0.00     0.103 A 
ATOM      9  C   UNL d   1      45.956 -15.571  43.459  0.00  0.00     0.101 A 
ATOM     10  C   UNL d   1      45.664 -15.084  44.764  0.00  0.00     0.047 A 
ATOM     11  C   UNL d   1      45.907 -14.812  43.157  0.00  0.00     0.047 A 
ATOM     12  C   UNL d   1      45.733 -14.157  43.649  0.00  0.00     0.118 A 
ATOM     13  C   UNL d   1      45.614 -14.319  44.459  0.00  0.00     0.118 A 
ATOM     14  C   UNL d   1      46.502 -17.909  42.129  0.00  0.00     0.003 A 
ATOM     15  C   UNL d   1      46.457 -19.058  43.277  0.00  0.00     0.018 A 
ATOM     16  C   UNL d   1      46.644 -18.699  41.925  0.00  0.00     0.000 A 
ATOM     17  C   UNL d   1      46.621 -19.282  42.508  0.00  0.00     0.002 A 
ENDROOT
BRANCH   3  18
ATOM     18  C   UNL d   1      46.069 -18.294  44.920  0.00  0.00     0.082 C 
ATOM     19  C   UNL d   1      45.813 -19.078  44.953  0.00  0.00     0.021 C 
ENDBRANCH   3  18
BRANCH  13  20
ATOM     20  O   UNL d   1      45.445 -13.702  44.955  0.00  0.00    -0.326 OA
ATOM     21  C   UNL d   1      45.831 -12.972  44.877  0.00  0.00     0.181 C 
ENDBRANCH  13  20
BRANCH  12  22
ATOM     22  O   UNL d   1      45.683 -13.380  43.332  0.00  0.00    -0.326 OA
ATOM     23  C   UNL d   1      44.991 -13.139  42.935  0.00  0.00     0.181 C 
ENDBRANCH  12  22
TORSDOF 3
ENDMDL
