MODEL 1
REMARK VINA RESULT:      -9.3      0.000      0.000
REMARK  3 active torsions:
REMARK  status: ('A' for Active; 'I' for Inactive)
REMARK    1  A    between atoms: C_4  and  C_1 
REMARK    2  A    between atoms: C_6  and  C_4 
REMARK    3  A    between atoms: N_5  and  C_7 
ROOT
ATOM      1  C   UNL d   1      52.745  33.329  53.612  0.00  0.00     0.231 C 
ATOM      2  O   UNL d   1      53.307  33.826  53.931  0.00  0.00    -0.283 OA
ENDROOT
BRANCH   1   3
ATOM      3  C   UNL d   1      52.899  32.515  53.519  0.00  0.00     0.188 A 
ATOM      4  N   UNL d   1      52.623  32.041  52.912  0.00  0.00    -0.224 NA
ATOM      5  C   UNL d   1      52.901  31.260  53.021  0.00  0.00     0.099 A 
ATOM      6  C   UNL d   1      52.810  30.571  52.608  0.00  0.00     0.021 A 
ATOM      7  C   UNL d   1      53.362  31.267  53.722  0.00  0.00     0.083 A 
ATOM      8  C   UNL d   1      53.159  29.894  52.866  0.00  0.00     0.002 A 
ATOM      9  C   UNL d   1      53.619  29.861  53.549  0.00  0.00     0.002 A 
ATOM     10  C   UNL d   1      53.709  30.571  53.968  0.00  0.00     0.019 A 
ATOM     11  N   UNL d   1      53.344  32.053  54.009  0.00  0.00    -0.285 N 
ATOM     12  C   UNL d   1      53.700  32.389  54.681  0.00  0.00     0.101 C 
ENDBRANCH   1   3
BRANCH   1  13
ATOM     13  C   UNL d   1      51.994  33.641  53.370  0.00  0.00     0.064 A 
ATOM     14  C   UNL d   1      51.947  34.373  53.008  0.00  0.00     0.130 A 
ATOM     15  C   UNL d   1      51.217  34.673  52.775  0.00  0.00     0.024 A 
ATOM     16  C   UNL d   1      50.527  34.239  52.902  0.00  0.00     0.002 A 
ATOM     17  C   UNL d   1      50.592  33.491  53.274  0.00  0.00     0.000 A 
ATOM     18  C   UNL d   1      51.321  33.186  53.510  0.00  0.00     0.005 A 
BRANCH  14  19
ATOM     19  N   UNL d   1      52.636  34.815  52.876  0.00  0.00    -0.114 N 
ATOM     20  O   UNL d   1      52.948  34.748  52.124  0.00  0.00    -0.532 OA
ATOM     21  O   UNL d   1      52.979  35.293  53.481  0.00  0.00    -0.532 OA
ENDBRANCH  14  19
ENDBRANCH   1  13
TORSDOF 3
ENDMDL
MODEL 2
REMARK VINA RESULT:      -9.0      1.422      2.526
REMARK  3 active torsions:
REMARK  status: ('A' for Active; 'I' for Inactive)
REMARK    1  A    between atoms: C_4  and  C_1 
REMARK    2  A    between atoms: C_6  and  C_4 
REMARK    3  A    between atoms: N_5  and  C_7 
ROOT
ATOM      1  C   UNL d   1      53.409  33.130  53.754  0.00  0.00     0.231 C 
ATOM      2  O   UNL d   1      52.869  33.653  53.437  0.00  0.00    -0.283 OA
ENDROOT
BRANCH   1   3
ATOM      3  C   UNL d   1      53.308  32.308  53.665  0.00  0.00     0.188 A 
ATOM      4  N   UNL d   1      53.608  31.731  54.164  0.00  0.00    -0.224 NA
ATOM      5  C   UNL d   1      53.384  30.976  53.882  0.00  0.00     0.099 A 
ATOM      6  C   UNL d   1      53.515  30.222  54.139  0.00  0.00     0.021 A 
ATOM      7  C   UNL d   1      52.931  31.106  53.187  0.00  0.00     0.083 A 
ATOM      8  C   UNL d   1      53.215  29.596  53.733  0.00  0.00     0.002 A 
ATOM      9  C   UNL d   1      52.766  29.683  53.047  0.00  0.00     0.002 A 
ATOM     10  C   UNL d   1      52.635  30.459  52.788  0.00  0.00     0.019 A 
ATOM     11  N   UNL d   1      52.901  31.935  53.077  0.00  0.00    -0.285 N 
ATOM     12  C   UNL d   1      52.532  32.385  52.483  0.00  0.00     0.101 C 
ENDBRANCH   1   3
BRANCH   1  13
ATOM     13  C   UNL d   1      54.082  33.424  54.179  0.00  0.00     0.064 A 
ATOM     14  C   UNL d   1      53.993  34.006  54.745  0.00  0.00     0.130 A 
ATOM     15  C   UNL d   1      54.647  34.289  55.154  0.00  0.00     0.024 A 
ATOM     16  C   UNL d   1      55.400  33.989  54.999  0.00  0.00     0.002 A 
ATOM     17  C   UNL d   1      55.475  33.392  54.416  0.00  0.00     0.000 A 
ATOM     18  C   UNL d   1      54.823  33.105  54.002  0.00  0.00     0.005 A 
BRANCH  14  19
ATOM     19  N   UNL d   1      53.240  34.314  54.907  0.00  0.00    -0.114 N 
ATOM     20  O   UNL d   1      52.860  33.973  55.545  0.00  0.00    -0.532 OA
ATOM     21  O   UNL d   1      52.903  34.932  54.441  0.00  0.00    -0.532 OA
ENDBRANCH  14  19
ENDBRANCH   1  13
TORSDOF 3
ENDMDL
MODEL 3
REMARK VINA RESULT:      -8.7      0.933      3.522
REMARK  3 active torsions:
REMARK  status: ('A' for Active; 'I' for Inactive)
REMARK    1  A    between atoms: C_4  and  C_1 
REMARK    2  A    between atoms: C_6  and  C_4 
REMARK    3  A    between atoms: N_5  and  C_7 
ROOT
ATOM      1  C   UNL d   1      53.165  33.071  53.288  0.00  0.00     0.231 C 
ATOM      2  O   UNL d   1      53.809  33.568  53.339  0.00  0.00    -0.283 OA
ENDROOT
BRANCH   1   3
ATOM      3  C   UNL d   1      52.402  33.375  53.153  0.00  0.00     0.188 A 
ATOM      4  N   UNL d   1      51.713  33.119  53.515  0.00  0.00    -0.224 NA
ATOM      5  C   UNL d   1      51.066  33.566  53.229  0.00  0.00     0.099 A 
ATOM      6  C   UNL d   1      50.273  33.562  53.381  0.00  0.00     0.021 A 
ATOM      7  C   UNL d   1      51.381  34.110  52.673  0.00  0.00     0.083 A 
ATOM      8  C   UNL d   1      49.784  34.077  53.003  0.00  0.00     0.002 A 
ATOM      9  C   UNL d   1      50.055  34.626  52.451  0.00  0.00     0.002 A 
ATOM     10  C   UNL d   1      50.870  34.625  52.299  0.00  0.00     0.019 A 
ATOM     11  N   UNL d   1      52.205  33.971  52.646  0.00  0.00    -0.285 N 
ATOM     12  C   UNL d   1      52.799  34.341  52.197  0.00  0.00     0.101 C 
ENDBRANCH   1   3
BRANCH   1  13
ATOM     13  C   UNL d   1      53.272  32.233  53.372  0.00  0.00     0.064 A 
ATOM     14  C   UNL d   1      53.748  31.933  53.965  0.00  0.00     0.130 A 
ATOM     15  C   UNL d   1      53.849  31.121  54.044  0.00  0.00     0.024 A 
ATOM     16  C   UNL d   1      53.471  30.600  53.527  0.00  0.00     0.002 A 
ATOM     17  C   UNL d   1      52.986  30.923  52.924  0.00  0.00     0.000 A 
ATOM     18  C   UNL d   1      52.882  31.737  52.841  0.00  0.00     0.005 A 
BRANCH  14  19
ATOM     19  N   UNL d   1      54.131  32.449  54.489  0.00  0.00    -0.114 N 
ATOM     20  O   UNL d   1      54.853  32.729  54.228  0.00  0.00    -0.532 OA
ATOM     21  O   UNL d   1      53.791  32.662  55.231  0.00  0.00    -0.532 OA
ENDBRANCH  14  19
ENDBRANCH   1  13
TORSDOF 3
ENDMDL
MODEL 4
REMARK VINA RESULT:      -8.3      1.568      3.460
REMARK  3 active torsions:
REMARK  status: ('A' for Active; 'I' for Inactive)
REMARK    1  A    between atoms: C_4  and  C_1 
REMARK    2  A    between atoms: C_6  and  C_4 
REMARK    3  A    between atoms: N_5  and  C_7 
ROOT
ATOM      1  C   UNL d   1      53.348  32.602  53.708  0.00  0.00     0.231 C 
ATOM      2  O   UNL d   1      53.502  31.864  53.397  0.00  0.00    -0.283 OA
ENDROOT
BRANCH   1   3
ATOM      3  C   UNL d   1      52.664  33.023  53.486  0.00  0.00     0.188 A 
ATOM      4  N   UNL d   1      52.605  33.836  53.407  0.00  0.00    -0.224 NA
ATOM      5  C   UNL d   1      51.827  34.038  53.177  0.00  0.00     0.099 A 
ATOM      6  C   UNL d   1      51.454  34.736  53.020  0.00  0.00     0.021 A 
ATOM      7  C   UNL d   1      51.403  33.316  53.116  0.00  0.00     0.083 A 
ATOM      8  C   UNL d   1      50.679  34.743  52.806  0.00  0.00     0.002 A 
ATOM      9  C   UNL d   1      50.228  34.057  52.735  0.00  0.00     0.002 A 
ATOM     10  C   UNL d   1      50.617  33.343  52.898  0.00  0.00     0.019 A 
ATOM     11  N   UNL d   1      51.942  32.707  53.312  0.00  0.00    -0.285 N 
ATOM     12  C   UNL d   1      51.835  31.884  53.346  0.00  0.00     0.101 C 
ENDBRANCH   1   3
BRANCH   1  13
ATOM     13  C   UNL d   1      53.889  32.948  54.262  0.00  0.00     0.064 A 
ATOM     14  C   UNL d   1      54.682  33.022  54.078  0.00  0.00     0.130 A 
ATOM     15  C   UNL d   1      55.203  33.357  54.618  0.00  0.00     0.024 A 
ATOM     16  C   UNL d   1      54.933  33.623  55.351  0.00  0.00     0.002 A 
ATOM     17  C   UNL d   1      54.117  33.540  55.525  0.00  0.00     0.000 A 
ATOM     18  C   UNL d   1      53.591  33.205  54.988  0.00  0.00     0.005 A 
BRANCH  14  19
ATOM     19  N   UNL d   1      54.962  32.757  53.343  0.00  0.00    -0.114 N 
ATOM     20  O   UNL d   1      55.148  33.351  52.813  0.00  0.00    -0.532 OA
ATOM     21  O   UNL d   1      55.044  31.935  53.169  0.00  0.00    -0.532 OA
ENDBRANCH  14  19
ENDBRANCH   1  13
TORSDOF 3
ENDMDL
MODEL 5
REMARK VINA RESULT:      -8.1      2.070      3.527
REMARK  3 active torsions:
REMARK  status: ('A' for Active; 'I' for Inactive)
REMARK    1  A    between atoms: C_4  and  C_1 
REMARK    2  A    between atoms: C_6  and  C_4 
REMARK    3  A    between atoms: N_5  and  C_7 
ROOT
ATOM      1  C   UNL d   1      53.526  32.042  53.181  0.00  0.00     0.231 C 
ATOM      2  O   UNL d   1      53.353  32.401  52.469  0.00  0.00    -0.283 OA
ENDROOT
BRANCH   1   3
ATOM      3  C   UNL d   1      53.906  32.466  53.790  0.00  0.00     0.188 A 
ATOM      4  N   UNL d   1      53.663  32.504  54.571  0.00  0.00    -0.224 NA
ATOM      5  C   UNL d   1      54.193  32.985  55.003  0.00  0.00     0.099 A 
ATOM      6  C   UNL d   1      54.234  33.217  55.776  0.00  0.00     0.021 A 
ATOM      7  C   UNL d   1      54.777  33.244  54.459  0.00  0.00     0.083 A 
ATOM      8  C   UNL d   1      54.831  33.695  56.025  0.00  0.00     0.002 A 
ATOM      9  C   UNL d   1      55.422  33.971  55.522  0.00  0.00     0.002 A 
ATOM     10  C   UNL d   1      55.375  33.729  54.730  0.00  0.00     0.019 A 
ATOM     11  N   UNL d   1      54.576  32.910  53.719  0.00  0.00    -0.285 N 
ATOM     12  C   UNL d   1      54.951  32.974  52.980  0.00  0.00     0.101 C 
ENDBRANCH   1   3
BRANCH   1  13
ATOM     13  C   UNL d   1      53.318  31.229  53.306  0.00  0.00     0.064 A 
ATOM     14  C   UNL d   1      52.557  30.969  53.160  0.00  0.00     0.130 A 
ATOM     15  C   UNL d   1      52.358  30.181  53.281  0.00  0.00     0.024 A 
ATOM     16  C   UNL d   1      52.924  29.644  53.552  0.00  0.00     0.002 A 
ATOM     17  C   UNL d   1      53.700  29.926  53.697  0.00  0.00     0.000 A 
ATOM     18  C   UNL d   1      53.903  30.715  53.577  0.00  0.00     0.005 A 
BRANCH  14  19
ATOM     19  N   UNL d   1      51.982  31.502  52.887  0.00  0.00    -0.114 N 
ATOM     20  O   UNL d   1      51.388  31.669  53.423  0.00  0.00    -0.532 OA
ATOM     21  O   UNL d   1      52.020  31.839  52.114  0.00  0.00    -0.532 OA
ENDBRANCH  14  19
ENDBRANCH   1  13
TORSDOF 3
ENDMDL
MODEL 6
REMARK VINA RESULT:      -7.9      1.652      2.695
REMARK  3 active torsions:
REMARK  status: ('A' for Active; 'I' for Inactive)
REMARK    1  A    between atoms: C_4  and  C_1 
REMARK    2  A    between atoms: C_6  and  C_4 
REMARK    3  A    between atoms: N_5  and  C_7 
ROOT
ATOM      1  C   UNL d   1      52.339  32.849  53.234  0.00  0.00     0.231 C 
ATOM      2  O   UNL d   1      52.133  32.060  53.202  0.00  0.00    -0.283 OA
ENDROOT
BRANCH   1   3
ATOM      3  C   UNL d   1      52.967  33.105  53.718  0.00  0.00     0.188 A 
ATOM      4  N   UNL d   1      52.958  33.762  54.208  0.00  0.00    -0.224 NA
ATOM      5  C   UNL d   1      53.695  33.827  54.598  0.00  0.00     0.099 A 
ATOM      6  C   UNL d   1      53.999  34.350  55.133  0.00  0.00     0.021 A 
ATOM      7  C   UNL d   1      54.163  33.183  54.332  0.00  0.00     0.083 A 
ATOM      8  C   UNL d   1      54.748  34.257  55.410  0.00  0.00     0.002 A 
ATOM      9  C   UNL d   1      55.239  33.639  55.173  0.00  0.00     0.002 A 
ATOM     10  C   UNL d   1      54.921  33.105  54.624  0.00  0.00     0.019 A 
ATOM     11  N   UNL d   1      53.690  32.755  53.791  0.00  0.00    -0.285 N 
ATOM     12  C   UNL d   1      53.860  32.069  53.353  0.00  0.00     0.101 C 
ENDBRANCH   1   3
BRANCH   1  13
ATOM     13  C   UNL d   1      51.911  33.416  52.771  0.00  0.00     0.064 A 
ATOM     14  C   UNL d   1      51.101  33.492  52.854  0.00  0.00     0.130 A 
ATOM     15  C   UNL d   1      50.689  34.044  52.403  0.00  0.00     0.024 A 
ATOM     16  C   UNL d   1      51.087  34.525  51.864  0.00  0.00     0.002 A 
ATOM     17  C   UNL d   1      51.918  34.435  51.791  0.00  0.00     0.000 A 
ATOM     18  C   UNL d   1      52.335  33.884  52.240  0.00  0.00     0.005 A 
BRANCH  14  19
ATOM     19  N   UNL d   1      50.693  33.013  53.393  0.00  0.00    -0.114 N 
ATOM     20  O   UNL d   1      50.449  33.393  54.074  0.00  0.00    -0.532 OA
ATOM     21  O   UNL d   1      50.548  32.196  53.239  0.00  0.00    -0.532 OA
ENDBRANCH  14  19
ENDBRANCH   1  13
TORSDOF 3
ENDMDL
