MODEL 1
REMARK VINA RESULT:      -2.6      0.000      0.000
REMARK  8 active torsions:
REMARK  status: ('A' for Active; 'I' for Inactive)
REMARK    1  A    between atoms: C_7  and  N_1 
REMARK    2  A    between atoms: C_23  and  C_5 
REMARK    3  A    between atoms: C_22  and  C_6 
REMARK    4  A    between atoms: C_8  and  C_7 
REMARK       I    between atoms: N_10  and  C_8 
REMARK    5  A    between atoms: C_9  and  C_13 
REMARK    6  A    between atoms: O_19  and  C_9 
REMARK    7  A    between atoms: C_18  and  N_10 
REMARK    8  A    between atoms: C_24  and  O_19 
ROOT
ATOM      1  C   UNL d   1      32.557  18.658 -23.429  0.00  0.00     0.297 C 
ATOM      2  N   UNL d   1      32.452  18.132 -24.059  0.00  0.00    -0.207 NA
ATOM      3  O   UNL d   1      31.969  18.731 -22.855  0.00  0.00    -0.264 OA
ENDROOT
BRANCH   1   4
ATOM      4  C   UNL d   1      33.237  19.106 -23.368  0.00  0.00     0.148 C 
BRANCH   4   5
ATOM      5  N   UNL d   1      33.215  19.846 -23.003  0.00  0.00    -0.235 N 
ATOM      6  C   UNL d   1      33.191  19.896 -22.177  0.00  0.00     0.273 A 
ATOM      7  C   UNL d   1      33.169  20.628 -21.815  0.00  0.00     0.086 A 
ATOM      8  O   UNL d   1      33.190  19.205 -21.722  0.00  0.00    -0.266 OA
ATOM      9  S   UNL d   1      33.169  21.317 -22.257  0.00  0.00    -0.077 SA
ATOM     10  C   UNL d   1      33.192  21.272 -23.076  0.00  0.00     0.086 A 
ATOM     11  C   UNL d   1      33.215  20.540 -23.457  0.00  0.00     0.273 A 
ATOM     12  O   UNL d   1      33.239  20.492 -24.278  0.00  0.00    -0.266 OA
BRANCH   7  13
ATOM     13  C   UNL d   1      33.145  20.676 -20.985  0.00  0.00     0.011 C 
ATOM     14  C   UNL d   1      32.620  21.195 -20.617  0.00  0.00     0.001 C 
ENDBRANCH   7  13
BRANCH  10  15
ATOM     15  C   UNL d   1      33.193  21.961 -23.528  0.00  0.00     0.011 C 
ATOM     16  C   UNL d   1      33.224  22.697 -23.155  0.00  0.00     0.001 C 
ENDBRANCH  10  15
ENDBRANCH   4   5
ENDBRANCH   1   4
BRANCH   2  17
ATOM     17  C   UNL d   1      31.761  17.681 -24.114  0.00  0.00     0.085 A 
ATOM     18  C   UNL d   1      31.114  17.968 -24.537  0.00  0.00     0.019 A 
ATOM     19  C   UNL d   1      30.434  17.509 -24.581  0.00  0.00     0.007 A 
ATOM     20  C   UNL d   1      30.391  16.778 -24.216  0.00  0.00     0.064 A 
ATOM     21  C   UNL d   1      31.041  16.494 -23.794  0.00  0.00     0.007 A 
ATOM     22  C   UNL d   1      31.732  16.945 -23.740  0.00  0.00     0.019 A 
BRANCH  20  23
ATOM     23  C   UNL d   1      29.701  16.323 -24.268  0.00  0.00     0.300 C 
ATOM     24  O   UNL d   1      29.530  15.919 -24.966  0.00  0.00    -0.259 OA
BRANCH  23  25
ATOM     25  O   UNL d   1      29.193  16.272 -23.633  0.00  0.00    -0.271 OA
BRANCH  25  26
ATOM     26  C   UNL d   1      28.476  15.874 -23.694  0.00  0.00     0.126 C 
ATOM     27  C   UNL d   1      27.915  15.925 -23.105  0.00  0.00     0.029 C 
ENDBRANCH  25  26
ENDBRANCH  23  25
ENDBRANCH  20  23
ENDBRANCH   2  17
TORSDOF 8
ENDMDL
MODEL 2
REMARK VINA RESULT:      -2.2      1.798      5.412
REMARK  8 active torsions:
REMARK  status: ('A' for Active; 'I' for Inactive)
REMARK    1  A    between atoms: C_7  and  N_1 
REMARK    2  A    between atoms: C_23  and  C_5 
REMARK    3  A    between atoms: C_22  and  C_6 
REMARK    4  A    between atoms: C_8  and  C_7 
REMARK       I    between atoms: N_10  and  C_8 
REMARK    5  A    between atoms: C_9  and  C_13 
REMARK    6  A    between atoms: O_19  and  C_9 
REMARK    7  A    between atoms: C_18  and  N_10 
REMARK    8  A    between atoms: C_24  and  O_19 
ROOT
ATOM      1  C   UNL d   1      32.467  18.228 -23.389  0.00  0.00     0.297 C 
ATOM      2  N   UNL d   1      33.172  18.661 -23.353  0.00  0.00    -0.207 NA
ATOM      3  O   UNL d   1      31.778  18.541 -23.061  0.00  0.00    -0.264 OA
ENDROOT
BRANCH   1   4
ATOM      4  C   UNL d   1      32.447  17.493 -23.744  0.00  0.00     0.148 C 
BRANCH   4   5
ATOM      5  N   UNL d   1      31.730  17.093 -23.826  0.00  0.00    -0.235 N 
ATOM      6  C   UNL d   1      31.198  17.318 -24.419  0.00  0.00     0.273 A 
ATOM      7  C   UNL d   1      30.488  16.921 -24.500  0.00  0.00     0.086 A 
ATOM      8  O   UNL d   1      31.387  17.943 -24.927  0.00  0.00    -0.266 OA
ATOM      9  S   UNL d   1      30.293  16.302 -24.002  0.00  0.00    -0.077 SA
ATOM     10  C   UNL d   1      30.817  16.075 -23.413  0.00  0.00     0.086 A 
ATOM     11  C   UNL d   1      31.537  16.466 -23.318  0.00  0.00     0.273 A 
ATOM     12  O   UNL d   1      32.065  16.241 -22.728  0.00  0.00    -0.266 OA
BRANCH   7  13
ATOM     13  C   UNL d   1      29.955  17.149 -25.097  0.00  0.00     0.011 C 
ATOM     14  C   UNL d   1      29.214  17.449 -24.895  0.00  0.00     0.001 C 
ENDBRANCH   7  13
BRANCH  10  15
ATOM     15  C   UNL d   1      30.627  15.453 -22.907  0.00  0.00     0.011 C 
ATOM     16  C   UNL d   1      29.949  15.497 -22.438  0.00  0.00     0.001 C 
ENDBRANCH  10  15
ENDBRANCH   4   5
ENDBRANCH   1   4
BRANCH   2  17
ATOM     17  C   UNL d   1      33.185  19.404 -22.991  0.00  0.00     0.085 A 
ATOM     18  C   UNL d   1      33.207  20.088 -23.453  0.00  0.00     0.019 A 
ATOM     19  C   UNL d   1      33.219  20.819 -23.079  0.00  0.00     0.007 A 
ATOM     20  C   UNL d   1      33.211  20.878 -22.263  0.00  0.00     0.064 A 
ATOM     21  C   UNL d   1      33.190  20.193 -21.804  0.00  0.00     0.007 A 
ATOM     22  C   UNL d   1      33.177  19.449 -22.166  0.00  0.00     0.019 A 
BRANCH  20  23
ATOM     23  C   UNL d   1      33.224  21.620 -21.895  0.00  0.00     0.300 C 
ATOM     24  O   UNL d   1      33.239  22.304 -22.357  0.00  0.00    -0.259 OA
BRANCH  23  25
ATOM     25  O   UNL d   1      33.223  21.678 -21.083  0.00  0.00    -0.271 OA
BRANCH  25  26
ATOM     26  C   UNL d   1      33.143  22.405 -20.709  0.00  0.00     0.126 C 
ATOM     27  C   UNL d   1      32.964  22.453 -19.915  0.00  0.00     0.029 C 
ENDBRANCH  25  26
ENDBRANCH  23  25
ENDBRANCH  20  23
ENDBRANCH   2  17
TORSDOF 8
ENDMDL
MODEL 3
REMARK VINA RESULT:      -2.0      1.761      5.231
REMARK  8 active torsions:
REMARK  status: ('A' for Active; 'I' for Inactive)
REMARK    1  A    between atoms: C_7  and  N_1 
REMARK    2  A    between atoms: C_23  and  C_5 
REMARK    3  A    between atoms: C_22  and  C_6 
REMARK    4  A    between atoms: C_8  and  C_7 
REMARK       I    between atoms: N_10  and  C_8 
REMARK    5  A    between atoms: C_9  and  C_13 
REMARK    6  A    between atoms: O_19  and  C_9 
REMARK    7  A    between atoms: C_18  and  N_10 
REMARK    8  A    between atoms: C_24  and  O_19 
ROOT
ATOM      1  C   UNL d   1      32.715  18.855 -23.392  0.00  0.00     0.297 C 
ATOM      2  N   UNL d   1      33.222  19.508 -23.351  0.00  0.00    -0.207 NA
ATOM      3  O   UNL d   1      32.170  18.721 -22.787  0.00  0.00    -0.264 OA
ENDROOT
BRANCH   1   4
ATOM      4  C   UNL d   1      32.749  18.340 -24.025  0.00  0.00     0.148 C 
BRANCH   4   5
ATOM      5  N   UNL d   1      32.193  17.735 -24.097  0.00  0.00    -0.235 N 
ATOM      6  C   UNL d   1      32.336  17.000 -23.743  0.00  0.00     0.273 A 
ATOM      7  C   UNL d   1      31.786  16.401 -23.814  0.00  0.00     0.086 A 
ATOM      8  O   UNL d   1      33.036  16.876 -23.319  0.00  0.00    -0.266 OA
ATOM      9  S   UNL d   1      31.090  16.515 -24.231  0.00  0.00    -0.077 SA
ATOM     10  C   UNL d   1      30.944  17.241 -24.583  0.00  0.00     0.086 A 
ATOM     11  C   UNL d   1      31.490  17.856 -24.521  0.00  0.00     0.273 A 
ATOM     12  O   UNL d   1      31.346  18.586 -24.873  0.00  0.00    -0.266 OA
BRANCH   7  13
ATOM     13  C   UNL d   1      31.932  15.663 -23.457  0.00  0.00     0.011 C 
ATOM     14  C   UNL d   1      31.535  15.454 -22.765  0.00  0.00     0.001 C 
ENDBRANCH   7  13
BRANCH  10  15
ATOM     15  C   UNL d   1      30.246  17.363 -25.005  0.00  0.00     0.011 C 
ATOM     16  C   UNL d   1      29.521  17.345 -24.612  0.00  0.00     0.001 C 
ENDBRANCH  10  15
ENDBRANCH   4   5
ENDBRANCH   1   4
BRANCH   2  17
ATOM     17  C   UNL d   1      33.182  20.024 -22.706  0.00  0.00     0.085 A 
ATOM     18  C   UNL d   1      33.200  20.840 -22.829  0.00  0.00     0.019 A 
ATOM     19  C   UNL d   1      33.160  21.340 -22.179  0.00  0.00     0.007 A 
ATOM     20  C   UNL d   1      33.103  21.044 -21.418  0.00  0.00     0.064 A 
ATOM     21  C   UNL d   1      33.086  20.228 -21.299  0.00  0.00     0.007 A 
ATOM     22  C   UNL d   1      33.125  19.711 -21.944  0.00  0.00     0.019 A 
BRANCH  20  23
ATOM     23  C   UNL d   1      33.063  21.557 -20.769  0.00  0.00     0.300 C 
ATOM     24  O   UNL d   1      33.233  21.273 -20.013  0.00  0.00    -0.259 OA
BRANCH  23  25
ATOM     25  O   UNL d   1      32.858  22.338 -20.874  0.00  0.00    -0.271 OA
BRANCH  25  26
ATOM     26  C   UNL d   1      32.717  22.830 -20.231  0.00  0.00     0.126 C 
ATOM     27  C   UNL d   1      32.334  23.544 -20.323  0.00  0.00     0.029 C 
ENDBRANCH  25  26
ENDBRANCH  23  25
ENDBRANCH  20  23
ENDBRANCH   2  17
TORSDOF 8
ENDMDL
