MODEL 1
REMARK VINA RESULT:      -2.7      0.000      0.000
REMARK  3 active torsions:
REMARK  status: ('A' for Active; 'I' for Inactive)
REMARK    1  A    between atoms: C_2  and  C_1 
REMARK       I    between atoms: N_7  and  C_2 
REMARK    2  A    between atoms: C_9  and  N_7 
REMARK    3  A    between atoms: O_16  and  C_10 
ROOT
ATOM      1  C   UNL d   1      60.281   0.014  28.845  0.00  0.00     0.280 C 
ATOM      2  N   UNL d   1      59.999   0.626  29.320  0.00  0.00    -0.208 NA
ATOM      3  O   UNL d   1      61.011   0.100  28.459  0.00  0.00    -0.265 OA
ENDROOT
BRANCH   1   4
ATOM      4  C   UNL d   1      59.843  -0.678  28.752  0.00  0.00     0.065 A 
ATOM      5  C   UNL d   1      60.091  -1.439  28.942  0.00  0.00     0.011 A 
ATOM      6  C   UNL d   1      59.477  -1.952  28.757  0.00  0.00     0.030 A 
ATOM      7  C   UNL d   1      60.796  -1.733  29.260  0.00  0.00     0.001 A 
ATOM      8  C   UNL d   1      59.563  -2.768  28.889  0.00  0.00     0.006 A 
ATOM      9  S   UNL d   1      58.853  -1.513  28.455  0.00  0.00    -0.086 SA
ATOM     10  C   UNL d   1      60.256  -3.058  29.201  0.00  0.00     0.001 A 
ATOM     11  C   UNL d   1      60.876  -2.542  29.388  0.00  0.00     0.000 A 
ATOM     12  C   UNL d   1      59.090  -0.722  28.456  0.00  0.00     0.040 A 
ENDBRANCH   1   4
BRANCH   2  13
ATOM     13  C   UNL d   1      59.272   0.540  29.704  0.00  0.00     0.085 A 
ATOM     14  C   UNL d   1      58.574   0.679  29.292  0.00  0.00     0.021 A 
ATOM     15  C   UNL d   1      57.840   0.594  29.677  0.00  0.00     0.026 A 
ATOM     16  C   UNL d   1      57.811   0.370  30.470  0.00  0.00     0.094 A 
ATOM     17  C   UNL d   1      58.517   0.231  30.879  0.00  0.00     0.026 A 
ATOM     18  C   UNL d   1      59.243   0.316  30.498  0.00  0.00     0.021 A 
BRANCH  16  19
ATOM     19  O   UNL d   1      57.069   0.288  30.842  0.00  0.00    -0.328 OA
ATOM     20  C   UNL d   1      57.019   0.047  31.630  0.00  0.00     0.181 C 
ENDBRANCH  16  19
ENDBRANCH   2  13
TORSDOF 3
ENDMDL
MODEL 2
REMARK VINA RESULT:      -2.7      1.275      3.513
REMARK  3 active torsions:
REMARK  status: ('A' for Active; 'I' for Inactive)
REMARK    1  A    between atoms: C_2  and  C_1 
REMARK       I    between atoms: N_7  and  C_2 
REMARK    2  A    between atoms: C_9  and  N_7 
REMARK    3  A    between atoms: O_16  and  C_10 
ROOT
ATOM      1  C   UNL d   1      58.359   0.201  28.903  0.00  0.00     0.280 C 
ATOM      2  N   UNL d   1      58.608  -0.444  28.455  0.00  0.00    -0.208 NA
ATOM      3  O   UNL d   1      57.744   0.682  28.620  0.00  0.00    -0.265 OA
ENDROOT
BRANCH   1   4
ATOM      4  C   UNL d   1      58.717   0.371  29.626  0.00  0.00     0.065 A 
ATOM      5  C   UNL d   1      58.345   0.390  30.359  0.00  0.00     0.011 A 
ATOM      6  C   UNL d   1      58.914   0.583  30.920  0.00  0.00     0.030 A 
ATOM      7  C   UNL d   1      57.562   0.258  30.592  0.00  0.00     0.001 A 
ATOM      8  C   UNL d   1      58.705   0.644  31.721  0.00  0.00     0.006 A 
ATOM      9  S   UNL d   1      59.633   0.682  30.537  0.00  0.00    -0.086 SA
ATOM     10  C   UNL d   1      57.935   0.514  31.950  0.00  0.00     0.001 A 
ATOM     11  C   UNL d   1      57.360   0.320  31.387  0.00  0.00     0.000 A 
ATOM     12  C   UNL d   1      59.501   0.548  29.732  0.00  0.00     0.040 A 
ENDBRANCH   1   4
BRANCH   2  13
ATOM     13  C   UNL d   1      59.222  -0.922  28.737  0.00  0.00     0.085 A 
ATOM     14  C   UNL d   1      59.045  -1.593  29.179  0.00  0.00     0.021 A 
ATOM     15  C   UNL d   1      59.661  -2.077  29.464  0.00  0.00     0.026 A 
ATOM     16  C   UNL d   1      60.447  -1.884  29.305  0.00  0.00     0.094 A 
ATOM     17  C   UNL d   1      60.618  -1.208  28.860  0.00  0.00     0.026 A 
ATOM     18  C   UNL d   1      60.008  -0.730  28.578  0.00  0.00     0.021 A 
BRANCH  16  19
ATOM     19  O   UNL d   1      61.053  -2.378  29.597  0.00  0.00    -0.328 OA
ATOM     20  C   UNL d   1      61.127  -3.154  29.327  0.00  0.00     0.181 C 
ENDBRANCH  16  19
ENDBRANCH   2  13
TORSDOF 3
ENDMDL
MODEL 3
REMARK VINA RESULT:      -1.5      1.534      2.250
REMARK  3 active torsions:
REMARK  status: ('A' for Active; 'I' for Inactive)
REMARK    1  A    between atoms: C_2  and  C_1 
REMARK       I    between atoms: N_7  and  C_2 
REMARK    2  A    between atoms: C_9  and  N_7 
REMARK    3  A    between atoms: O_16  and  C_10 
ROOT
ATOM      1  C   UNL d   1      58.122   0.217  29.279  0.00  0.00     0.280 C 
ATOM      2  N   UNL d   1      57.384   0.103  29.627  0.00  0.00    -0.208 NA
ATOM      3  O   UNL d   1      58.176   0.312  28.456  0.00  0.00    -0.265 OA
ENDROOT
BRANCH   1   4
ATOM      4  C   UNL d   1      58.804   0.238  29.742  0.00  0.00     0.065 A 
ATOM      5  C   UNL d   1      59.496  -0.185  29.606  0.00  0.00     0.011 A 
ATOM      6  C   UNL d   1      60.025   0.007  30.205  0.00  0.00     0.030 A 
ATOM      7  C   UNL d   1      59.717  -0.720  29.014  0.00  0.00     0.001 A 
ATOM      8  C   UNL d   1      60.781  -0.336  30.219  0.00  0.00     0.006 A 
ATOM      9  S   UNL d   1      59.663   0.544  30.709  0.00  0.00    -0.086 SA
ATOM     10  C   UNL d   1      60.998  -0.863  29.637  0.00  0.00     0.001 A 
ATOM     11  C   UNL d   1      60.467  -1.058  29.032  0.00  0.00     0.000 A 
ATOM     12  C   UNL d   1      58.904   0.681  30.413  0.00  0.00     0.040 A 
ENDBRANCH   1   4
BRANCH   2  13
ATOM     13  C   UNL d   1      57.332   0.008  30.447  0.00  0.00     0.085 A 
ATOM     14  C   UNL d   1      57.335  -0.747  30.771  0.00  0.00     0.021 A 
ATOM     15  C   UNL d   1      57.282  -0.846  31.597  0.00  0.00     0.026 A 
ATOM     16  C   UNL d   1      57.228  -0.187  32.091  0.00  0.00     0.094 A 
ATOM     17  C   UNL d   1      57.225   0.570  31.758  0.00  0.00     0.026 A 
ATOM     18  C   UNL d   1      57.277   0.667  30.941  0.00  0.00     0.021 A 
BRANCH  16  19
ATOM     19  O   UNL d   1      57.176  -0.302  32.915  0.00  0.00    -0.328 OA
ATOM     20  C   UNL d   1      56.489  -0.094  33.325  0.00  0.00     0.181 C 
ENDBRANCH  16  19
ENDBRANCH   2  13
TORSDOF 3
ENDMDL
MODEL 4
REMARK VINA RESULT:      -0.7      2.076      4.381
REMARK  3 active torsions:
REMARK  status: ('A' for Active; 'I' for Inactive)
REMARK    1  A    between atoms: C_2  and  C_1 
REMARK       I    between atoms: N_7  and  C_2 
REMARK    2  A    between atoms: C_9  and  N_7 
REMARK    3  A    between atoms: O_16  and  C_10 
ROOT
ATOM      1  C   UNL d   1      57.977   0.397  32.600  0.00  0.00     0.280 C 
ATOM      2  N   UNL d   1      58.454   0.654  31.980  0.00  0.00    -0.208 NA
ATOM      3  O   UNL d   1      58.114   0.682  33.368  0.00  0.00    -0.265 OA
ENDROOT
BRANCH   1   4
ATOM      4  C   UNL d   1      57.366  -0.140  32.462  0.00  0.00     0.065 A 
ATOM      5  C   UNL d   1      56.632  -0.147  32.833  0.00  0.00     0.011 A 
ATOM      6  C   UNL d   1      56.204  -0.776  32.523  0.00  0.00     0.030 A 
ATOM      7  C   UNL d   1      56.296   0.337  33.415  0.00  0.00     0.001 A 
ATOM      8  C   UNL d   1      55.433  -0.927  32.792  0.00  0.00     0.006 A 
ATOM      9  S   UNL d   1      56.669  -1.155  31.963  0.00  0.00    -0.086 SA
ATOM     10  C   UNL d   1      55.102  -0.451  33.364  0.00  0.00     0.001 A 
ATOM     11  C   UNL d   1      55.531   0.183  33.678  0.00  0.00     0.000 A 
ATOM     12  C   UNL d   1      57.390  -0.752  31.932  0.00  0.00     0.040 A 
ENDBRANCH   1   4
BRANCH   2  13
ATOM     13  C   UNL d   1      58.317   0.370  31.216  0.00  0.00     0.085 A 
ATOM     14  C   UNL d   1      58.794  -0.226  30.911  0.00  0.00     0.021 A 
ATOM     15  C   UNL d   1      58.658  -0.514  30.141  0.00  0.00     0.026 A 
ATOM     16  C   UNL d   1      58.046  -0.203  29.684  0.00  0.00     0.094 A 
ATOM     17  C   UNL d   1      57.570   0.397  29.997  0.00  0.00     0.026 A 
ATOM     18  C   UNL d   1      57.705   0.682  30.758  0.00  0.00     0.021 A 
BRANCH  16  19
ATOM     19  O   UNL d   1      57.922  -0.502  28.915  0.00  0.00    -0.328 OA
ATOM     20  C   UNL d   1      58.523  -0.908  28.521  0.00  0.00     0.181 C 
ENDBRANCH  16  19
ENDBRANCH   2  13
TORSDOF 3
ENDMDL
