MODEL 1
REMARK VINA RESULT:      12.2      0.000      0.000
REMARK  4 active torsions:
REMARK  status: ('A' for Active; 'I' for Inactive)
REMARK    1  A    between atoms: C_6  and  C_2 
REMARK    2  A    between atoms: C_8  and  C_6 
REMARK    3  A    between atoms: C_7  and  C_9 
REMARK    4  A    between atoms: C_9  and  C_8 
ROOT
ATOM      1  C   UNL d   1      46.007 -17.245  43.629  0.00  0.00     0.006 C 
ENDROOT
BRANCH   1   2
ATOM      2  C   UNL d   1      46.225 -18.033  43.698  0.00  0.00     0.039 A 
ATOM      3  C   UNL d   1      46.429 -18.601  43.137  0.00  0.00     0.103 A 
ATOM      4  N   UNL d   1      46.597 -19.301  43.534  0.00  0.00    -0.165 NA
ATOM      5  C   UNL d   1      46.447 -18.438  42.327  0.00  0.00     0.022 C 
ATOM      6  N   UNL d   1      46.497 -19.168  44.334  0.00  0.00    -0.225 N 
ATOM      7  C   UNL d   1      46.267 -18.386  44.438  0.00  0.00     0.102 A 
ATOM      8  C   UNL d   1      46.610 -19.730  44.927  0.00  0.00     0.121 C 
ENDBRANCH   1   2
BRANCH   1   9
ATOM      9  C   UNL d   1      45.923 -16.778  44.304  0.00  0.00     0.043 C 
BRANCH   9  10
ATOM     10  C   UNL d   1      45.977 -15.950  44.245  0.00  0.00     0.202 C 
ATOM     11  O   UNL d   1      46.646 -15.608  43.914  0.00  0.00    -0.286 OA
BRANCH  10  12
ATOM     12  C   UNL d   1      45.353 -15.474  44.521  0.00  0.00     0.068 A 
ATOM     13  S   UNL d   1      44.581 -15.444  44.801  0.00  0.00    -0.083 SA
ATOM     14  C   UNL d   1      44.395 -14.655  44.955  0.00  0.00     0.035 A 
ATOM     15  C   UNL d   1      45.056 -14.195  44.768  0.00  0.00     0.008 A 
ATOM     16  C   UNL d   1      45.651 -14.705  44.499  0.00  0.00     0.010 A 
ENDBRANCH  10  12
ENDBRANCH   9  10
ENDBRANCH   1   9
TORSDOF 4
ENDMDL
