MODEL 1
REMARK VINA RESULT:      -3.5      0.000      0.000
REMARK  7 active torsions:
REMARK  status: ('A' for Active; 'I' for Inactive)
REMARK    1  A    between atoms: S_2  and  C_1 
REMARK    2  A    between atoms: C_8  and  S_2 
REMARK    3  A    between atoms: N_16  and  C_6 
REMARK    4  A    between atoms: N_9  and  C_22 
REMARK    5  A    between atoms: C_24  and  N_16 
REMARK    6  A    between atoms: C_22  and  C_23 
REMARK    7  A    between atoms: C_23  and  C_24 
ROOT
ATOM      1  C   UNL d   1      31.992  17.524 -23.926  0.00  0.00     0.187 A 
ATOM      2  N   UNL d   1      32.125  18.116 -23.379  0.00  0.00    -0.208 NA
ATOM      3  C   UNL d   1      32.663  17.448 -24.397  0.00  0.00     0.118 A 
ATOM      4  S   UNL d   1      33.209  17.993 -24.138  0.00  0.00    -0.035 SA
ATOM      5  C   UNL d   1      32.880  18.412 -23.504  0.00  0.00     0.196 A 
ATOM      6 CL   UNL d   1      32.768  16.919 -25.016  0.00  0.00    -0.073 Cl
ENDROOT
BRANCH   1   7
ATOM      7  S   UNL d   1      31.303  17.080 -23.995  0.00  0.00     0.228 S 
ATOM      8  O   UNL d   1      31.614  16.482 -23.531  0.00  0.00    -0.216 OA
ATOM      9  O   UNL d   1      30.988  17.685 -24.464  0.00  0.00    -0.216 OA
BRANCH   7  10
ATOM     10  C   UNL d   1      30.594  16.670 -24.091  0.00  0.00     0.089 A 
ATOM     11  C   UNL d   1      30.480  15.941 -23.734  0.00  0.00     0.011 A 
ATOM     12  C   UNL d   1      29.771  15.531 -23.830  0.00  0.00     0.001 A 
ATOM     13  C   UNL d   1      29.166  15.859 -24.292  0.00  0.00     0.000 A 
ATOM     14  C   UNL d   1      29.275  16.593 -24.653  0.00  0.00     0.001 A 
ATOM     15  C   UNL d   1      28.453  15.453 -24.392  0.00  0.00     0.000 C 
ATOM     16  C   UNL d   1      29.984  17.003 -24.557  0.00  0.00     0.011 A 
ENDBRANCH   7  10
ENDBRANCH   1   7
BRANCH   5  17
ATOM     17  N   UNL d   1      33.241  19.018 -23.074  0.00  0.00    -0.220 NA
BRANCH  17  18
ATOM     18  C   UNL d   1      32.808  19.422 -22.499  0.00  0.00     0.103 C 
BRANCH  18  19
ATOM     19  C   UNL d   1      33.065  20.165 -22.244  0.00  0.00     0.040 C 
BRANCH  19  20
ATOM     20  C   UNL d   1      32.891  20.414 -21.476  0.00  0.00     0.083 C 
BRANCH  20  21
ATOM     21  N   UNL d   1      32.686  21.198 -21.343  0.00  0.00    -0.285 N 
ATOM     22  C   UNL d   1      32.044  21.464 -20.911  0.00  0.00     0.183 A 
ATOM     23  N   UNL d   1      32.053  22.286 -20.922  0.00  0.00    -0.222 NA
ATOM     24  C   UNL d   1      32.699  22.523 -21.360  0.00  0.00     0.120 A 
ATOM     25  C   UNL d   1      33.095  21.852 -21.623  0.00  0.00     0.102 A 
ENDBRANCH  20  21
ENDBRANCH  19  20
ENDBRANCH  18  19
ENDBRANCH  17  18
ENDBRANCH   5  17
TORSDOF 7
ENDMDL
MODEL 2
REMARK VINA RESULT:      -2.7      2.411      6.027
REMARK  7 active torsions:
REMARK  status: ('A' for Active; 'I' for Inactive)
REMARK    1  A    between atoms: S_2  and  C_1 
REMARK    2  A    between atoms: C_8  and  S_2 
REMARK    3  A    between atoms: N_16  and  C_6 
REMARK    4  A    between atoms: N_9  and  C_22 
REMARK    5  A    between atoms: C_24  and  N_16 
REMARK    6  A    between atoms: C_22  and  C_23 
REMARK    7  A    between atoms: C_23  and  C_24 
ROOT
ATOM      1  C   UNL d   1      33.007  20.906 -22.001  0.00  0.00     0.187 A 
ATOM      2  N   UNL d   1      32.978  20.101 -21.870  0.00  0.00    -0.208 NA
ATOM      3  C   UNL d   1      33.151  21.036 -22.802  0.00  0.00     0.118 A 
ATOM      4  S   UNL d   1      33.211  20.308 -23.162  0.00  0.00    -0.035 SA
ATOM      5  C   UNL d   1      33.105  19.722 -22.587  0.00  0.00     0.196 A 
ATOM      6 CL   UNL d   1      33.222  21.764 -23.174  0.00  0.00    -0.073 Cl
ENDROOT
BRANCH   1   7
ATOM      7  S   UNL d   1      32.908  21.489 -21.430  0.00  0.00     0.228 S 
ATOM      8  O   UNL d   1      32.578  22.003 -21.976  0.00  0.00    -0.216 OA
ATOM      9  O   UNL d   1      33.240  20.971 -20.878  0.00  0.00    -0.216 OA
BRANCH   7  10
ATOM     10  C   UNL d   1      32.827  22.044 -20.825  0.00  0.00     0.089 A 
ATOM     11  C   UNL d   1      32.400  22.733 -20.943  0.00  0.00     0.011 A 
ATOM     12  C   UNL d   1      32.320  23.288 -20.338  0.00  0.00     0.001 A 
ATOM     13  C   UNL d   1      32.675  23.148 -19.602  0.00  0.00     0.000 A 
ATOM     14  C   UNL d   1      33.107  22.456 -19.478  0.00  0.00     0.001 A 
ATOM     15  C   UNL d   1      32.598  23.700 -18.991  0.00  0.00     0.000 C 
ATOM     16  C   UNL d   1      33.187  21.901 -20.083  0.00  0.00     0.011 A 
ENDBRANCH   7  10
ENDBRANCH   1   7
BRANCH   5  17
ATOM     17  N   UNL d   1      33.122  18.905 -22.708  0.00  0.00    -0.220 NA
BRANCH  17  18
ATOM     18  C   UNL d   1      32.656  18.572 -23.303  0.00  0.00     0.103 C 
BRANCH  18  19
ATOM     19  C   UNL d   1      32.447  17.774 -23.257  0.00  0.00     0.040 C 
BRANCH  19  20
ATOM     20  C   UNL d   1      32.027  17.427 -23.878  0.00  0.00     0.083 C 
BRANCH  20  21
ATOM     21  N   UNL d   1      31.595  16.742 -23.740  0.00  0.00    -0.285 N 
ATOM     22  C   UNL d   1      30.787  16.655 -23.823  0.00  0.00     0.183 A 
ATOM     23  N   UNL d   1      30.592  15.880 -23.628  0.00  0.00    -0.222 NA
ATOM     24  C   UNL d   1      31.282  15.494 -23.427  0.00  0.00     0.120 A 
ATOM     25  C   UNL d   1      31.907  16.024 -23.495  0.00  0.00     0.102 A 
ENDBRANCH  20  21
ENDBRANCH  19  20
ENDBRANCH  18  19
ENDBRANCH  17  18
ENDBRANCH   5  17
TORSDOF 7
ENDMDL
MODEL 3
REMARK VINA RESULT:      -1.5      1.754      5.357
REMARK  7 active torsions:
REMARK  status: ('A' for Active; 'I' for Inactive)
REMARK    1  A    between atoms: S_2  and  C_1 
REMARK    2  A    between atoms: C_8  and  S_2 
REMARK    3  A    between atoms: N_16  and  C_6 
REMARK    4  A    between atoms: N_9  and  C_22 
REMARK    5  A    between atoms: C_24  and  N_16 
REMARK    6  A    between atoms: C_22  and  C_23 
REMARK    7  A    between atoms: C_23  and  C_24 
ROOT
ATOM      1  C   UNL d   1      32.876  19.166 -23.042  0.00  0.00     0.187 A 
ATOM      2  N   UNL d   1      32.675  18.410 -22.808  0.00  0.00    -0.208 NA
ATOM      3  C   UNL d   1      33.022  19.158 -23.853  0.00  0.00     0.118 A 
ATOM      4  S   UNL d   1      32.910  18.395 -24.115  0.00  0.00    -0.035 SA
ATOM      5  C   UNL d   1      32.694  17.925 -23.470  0.00  0.00     0.196 A 
ATOM      6 CL   UNL d   1      33.241  19.799 -24.316  0.00  0.00    -0.073 Cl
ENDROOT
BRANCH   1   7
ATOM      7  S   UNL d   1      32.924  19.823 -22.551  0.00  0.00     0.228 S 
ATOM      8  O   UNL d   1      32.610  20.309 -23.131  0.00  0.00    -0.216 OA
ATOM      9  O   UNL d   1      33.241  19.333 -21.965  0.00  0.00    -0.216 OA
BRANCH   7  10
ATOM     10  C   UNL d   1      32.990  20.455 -22.025  0.00  0.00     0.089 A 
ATOM     11  C   UNL d   1      33.175  21.207 -22.293  0.00  0.00     0.011 A 
ATOM     12  C   UNL d   1      33.241  21.838 -21.767  0.00  0.00     0.001 A 
ATOM     13  C   UNL d   1      33.120  21.712 -20.957  0.00  0.00     0.000 A 
ATOM     14  C   UNL d   1      32.934  20.957 -20.680  0.00  0.00     0.001 A 
ATOM     15  C   UNL d   1      33.185  22.340 -20.424  0.00  0.00     0.000 C 
ATOM     16  C   UNL d   1      32.867  20.325 -21.207  0.00  0.00     0.011 A 
ENDBRANCH   7  10
ENDBRANCH   1   7
BRANCH   5  17
ATOM     17  N   UNL d   1      32.527  17.116 -23.484  0.00  0.00    -0.220 NA
BRANCH  17  18
ATOM     18  C   UNL d   1      31.973  16.824 -24.021  0.00  0.00     0.103 C 
BRANCH  18  19
ATOM     19  C   UNL d   1      31.472  16.207 -23.795  0.00  0.00     0.040 C 
BRANCH  19  20
ATOM     20  C   UNL d   1      30.826  16.011 -24.271  0.00  0.00     0.083 C 
BRANCH  20  21
ATOM     21  N   UNL d   1      30.068  16.047 -23.959  0.00  0.00    -0.285 N 
ATOM     22  C   UNL d   1      29.774  15.594 -23.345  0.00  0.00     0.183 A 
ATOM     23  N   UNL d   1      28.993  15.814 -23.215  0.00  0.00    -0.222 NA
ATOM     24  C   UNL d   1      28.808  16.403 -23.750  0.00  0.00     0.120 A 
ATOM     25  C   UNL d   1      29.472  16.551 -24.213  0.00  0.00     0.102 A 
ENDBRANCH  20  21
ENDBRANCH  19  20
ENDBRANCH  18  19
ENDBRANCH  17  18
ENDBRANCH   5  17
TORSDOF 7
ENDMDL
MODEL 4
REMARK VINA RESULT:      -1.4      1.073      1.305
REMARK  7 active torsions:
REMARK  status: ('A' for Active; 'I' for Inactive)
REMARK    1  A    between atoms: S_2  and  C_1 
REMARK    2  A    between atoms: C_8  and  S_2 
REMARK    3  A    between atoms: N_16  and  C_6 
REMARK    4  A    between atoms: N_9  and  C_22 
REMARK    5  A    between atoms: C_24  and  N_16 
REMARK    6  A    between atoms: C_22  and  C_23 
REMARK    7  A    between atoms: C_23  and  C_24 
ROOT
ATOM      1  C   UNL d   1      31.682  17.140 -24.210  0.00  0.00     0.187 A 
ATOM      2  N   UNL d   1      31.929  17.851 -23.895  0.00  0.00    -0.208 NA
ATOM      3  C   UNL d   1      32.307  16.809 -24.631  0.00  0.00     0.118 A 
ATOM      4  S   UNL d   1      32.939  17.319 -24.574  0.00  0.00    -0.035 SA
ATOM      5  C   UNL d   1      32.710  17.970 -24.117  0.00  0.00     0.196 A 
ATOM      6 CL   UNL d   1      32.300  16.095 -25.037  0.00  0.00    -0.073 Cl
ENDROOT
BRANCH   1   7
ATOM      7  S   UNL d   1      30.934  16.809 -24.121  0.00  0.00     0.228 S 
ATOM      8  O   UNL d   1      30.845  16.733 -24.932  0.00  0.00    -0.216 OA
ATOM      9  O   UNL d   1      31.023  16.887 -23.302  0.00  0.00    -0.216 OA
BRANCH   7  10
ATOM     10  C   UNL d   1      30.189  16.483 -23.985  0.00  0.00     0.089 A 
ATOM     11  C   UNL d   1      30.105  15.808 -23.527  0.00  0.00     0.011 A 
ATOM     12  C   UNL d   1      29.360  15.481 -23.391  0.00  0.00     0.001 A 
ATOM     13  C   UNL d   1      28.689  15.838 -23.719  0.00  0.00     0.000 A 
ATOM     14  C   UNL d   1      28.767  16.518 -24.181  0.00  0.00     0.001 A 
ATOM     15  C   UNL d   1      27.939  15.516 -23.587  0.00  0.00     0.000 C 
ATOM     16  C   UNL d   1      29.512  16.845 -24.318  0.00  0.00     0.011 A 
ENDBRANCH   7  10
ENDBRANCH   1   7
BRANCH   5  17
ATOM     17  N   UNL d   1      33.178  18.621 -23.919  0.00  0.00    -0.220 NA
BRANCH  17  18
ATOM     18  C   UNL d   1      32.962  19.373 -24.184  0.00  0.00     0.103 C 
BRANCH  18  19
ATOM     19  C   UNL d   1      33.195  20.038 -23.754  0.00  0.00     0.040 C 
BRANCH  19  20
ATOM     20  C   UNL d   1      32.751  20.733 -23.805  0.00  0.00     0.083 C 
BRANCH  20  21
ATOM     21  N   UNL d   1      32.919  21.358 -23.300  0.00  0.00    -0.285 N 
ATOM     22  C   UNL d   1      33.121  22.118 -23.521  0.00  0.00     0.183 A 
ATOM     23  N   UNL d   1      33.241  22.560 -22.838  0.00  0.00    -0.222 NA
ATOM     24  C   UNL d   1      33.111  22.069 -22.199  0.00  0.00     0.120 A 
ATOM     25  C   UNL d   1      32.911  21.323 -22.480  0.00  0.00     0.102 A 
ENDBRANCH  20  21
ENDBRANCH  19  20
ENDBRANCH  18  19
ENDBRANCH  17  18
ENDBRANCH   5  17
TORSDOF 7
ENDMDL
MODEL 5
REMARK VINA RESULT:      -1.4      3.558      6.834
REMARK  7 active torsions:
REMARK  status: ('A' for Active; 'I' for Inactive)
REMARK    1  A    between atoms: S_2  and  C_1 
REMARK    2  A    between atoms: C_8  and  S_2 
REMARK    3  A    between atoms: N_16  and  C_6 
REMARK    4  A    between atoms: N_9  and  C_22 
REMARK    5  A    between atoms: C_24  and  N_16 
REMARK    6  A    between atoms: C_22  and  C_23 
REMARK    7  A    between atoms: C_23  and  C_24 
ROOT
ATOM      1  C   UNL d   1      32.777  22.040 -20.372  0.00  0.00     0.187 A 
ATOM      2  N   UNL d   1      33.222  21.438 -20.699  0.00  0.00    -0.208 NA
ATOM      3  C   UNL d   1      32.221  22.285 -20.928  0.00  0.00     0.118 A 
ATOM      4  S   UNL d   1      32.324  21.832 -21.596  0.00  0.00    -0.035 SA
ATOM      5  C   UNL d   1      32.946  21.303 -21.460  0.00  0.00     0.196 A 
ATOM      6 CL   UNL d   1      31.661  22.877 -20.831  0.00  0.00    -0.073 Cl
ENDROOT
BRANCH   1   7
ATOM      7  S   UNL d   1      32.870  22.349 -19.616  0.00  0.00     0.228 S 
ATOM      8  O   UNL d   1      32.887  23.115 -19.905  0.00  0.00    -0.216 OA
ATOM      9  O   UNL d   1      32.853  21.576 -19.324  0.00  0.00    -0.216 OA
BRANCH   7  10
ATOM     10  C   UNL d   1      32.962  22.615 -18.841  0.00  0.00     0.089 A 
ATOM     11  C   UNL d   1      33.009  22.083 -18.219  0.00  0.00     0.011 A 
ATOM     12  C   UNL d   1      33.101  22.349 -17.443  0.00  0.00     0.001 A 
ATOM     13  C   UNL d   1      33.148  23.162 -17.290  0.00  0.00     0.000 A 
ATOM     14  C   UNL d   1      33.102  23.702 -17.913  0.00  0.00     0.001 A 
ATOM     15  C   UNL d   1      33.240  23.435 -16.515  0.00  0.00     0.000 C 
ATOM     16  C   UNL d   1      33.009  23.437 -18.688  0.00  0.00     0.011 A 
ENDBRANCH   7  10
ENDBRANCH   1   7
BRANCH   5  17
ATOM     17  N   UNL d   1      33.239  20.741 -21.990  0.00  0.00    -0.220 NA
BRANCH  17  18
ATOM     18  C   UNL d   1      32.715  20.329 -22.477  0.00  0.00     0.103 C 
BRANCH  18  19
ATOM     19  C   UNL d   1      32.990  19.691 -22.924  0.00  0.00     0.040 C 
BRANCH  19  20
ATOM     20  C   UNL d   1      32.504  19.033 -23.036  0.00  0.00     0.083 C 
BRANCH  20  21
ATOM     21  N   UNL d   1      32.598  18.572 -23.709  0.00  0.00    -0.285 N 
ATOM     22  C   UNL d   1      32.812  18.837 -24.452  0.00  0.00     0.183 A 
ATOM     23  N   UNL d   1      32.839  18.189 -24.957  0.00  0.00    -0.222 NA
ATOM     24  C   UNL d   1      32.642  17.527 -24.523  0.00  0.00     0.120 A 
ATOM     25  C   UNL d   1      32.491  17.759 -23.748  0.00  0.00     0.102 A 
ENDBRANCH  20  21
ENDBRANCH  19  20
ENDBRANCH  18  19
ENDBRANCH  17  18
ENDBRANCH   5  17
TORSDOF 7
ENDMDL
