MODEL 1
REMARK VINA RESULT:      46.4      0.000      0.000
REMARK  5 active torsions:
REMARK  status: ('A' for Active; 'I' for Inactive)
REMARK    1  A    between atoms: C_11  and  C_1 
REMARK    2  A    between atoms: C_2  and  N_5 
REMARK    3  A    between atoms: N_3  and  C_7 
REMARK       I    between atoms: N_5  and  C_6 
REMARK    4  A    between atoms: C_6  and  C_9 
REMARK    5  A    between atoms: C_16  and  C_8 
ROOT
ATOM      1  N   UNL d   1      14.430  12.795  -2.025  0.00  0.00    -0.183 NA
ATOM      2  C   UNL d   1      14.353  13.642  -1.798  0.00  0.00     0.281 C 
ATOM      3  O   UNL d   1      13.785  14.120  -2.184  0.00  0.00    -0.265 OA
ENDROOT
BRANCH   2   4
ATOM      4  C   UNL d   1      14.878  13.953  -1.169  0.00  0.00     0.065 A 
ATOM      5  C   UNL d   1      14.995  14.770  -1.164  0.00  0.00     0.091 A 
ATOM      6  C   UNL d   1      15.494  15.084  -0.572  0.00  0.00     0.133 A 
ATOM      7  C   UNL d   1      15.854  14.594  -0.014  0.00  0.00     0.024 A 
ATOM      8  C   UNL d   1      15.732  13.767  -0.024  0.00  0.00     0.002 A 
ATOM      9  C   UNL d   1      15.239  13.462  -0.612  0.00  0.00     0.005 A 
BRANCH   5  10
ATOM     10  C   UNL d   1      14.641  15.252  -1.713  0.00  0.00     0.213 C 
ATOM     11  O   UNL d   1      14.996  15.394  -2.456  0.00  0.00    -0.644 OA
ATOM     12  O   UNL d   1      13.955  15.557  -1.474  0.00  0.00    -0.644 OA
ENDBRANCH   5  10
BRANCH   6  13
ATOM     13  N   UNL d   1      15.634  15.886  -0.533  0.00  0.00    -0.114 N 
ATOM     14  O   UNL d   1      16.372  16.238  -0.649  0.00  0.00    -0.532 OA
ATOM     15  O   UNL d   1      15.064  16.444  -0.374  0.00  0.00    -0.532 OA
ENDBRANCH   6  13
ENDBRANCH   2   4
BRANCH   1  16
ATOM     16  C   UNL d   1      13.941  12.492  -2.615  0.00  0.00     0.197 A 
ATOM     17  N   UNL d   1      14.097  12.665  -3.373  0.00  0.00    -0.221 NA
ATOM     18  C   UNL d   1      13.538  12.300  -3.827  0.00  0.00     0.090 A 
ATOM     19  C   UNL d   1      13.076  11.931  -3.378  0.00  0.00     0.058 A 
ATOM     20  S   UNL d   1      13.253  11.994  -2.579  0.00  0.00    -0.046 SA
BRANCH  18  21
ATOM     21  C   UNL d   1      13.440  12.296  -4.643  0.00  0.00     0.018 A 
ATOM     22  C   UNL d   1      12.877  11.792  -4.981  0.00  0.00     0.002 A 
ATOM     23  C   UNL d   1      12.770  11.780  -5.811  0.00  0.00     0.000 A 
ATOM     24  C   UNL d   1      13.235  12.280  -6.290  0.00  0.00     0.000 A 
ATOM     25  C   UNL d   1      13.789  12.776  -5.952  0.00  0.00     0.000 A 
ATOM     26  C   UNL d   1      13.896  12.787  -5.122  0.00  0.00     0.002 A 
ENDBRANCH  18  21
ENDBRANCH   1  16
TORSDOF 5
ENDMDL
