MODEL 1
REMARK VINA RESULT:      12.9      0.000      0.000
REMARK  2 active torsions:
REMARK  status: ('A' for Active; 'I' for Inactive)
REMARK    1  A    between atoms: C_7  and  C_1 
REMARK    2  A    between atoms: C_8  and  C_7 
ROOT
ATOM      1  C   UNL d   1      14.149  11.894  -1.642  0.00  0.00     0.118 A 
ATOM      2  N   UNL d   1      14.220  11.891  -3.069  0.00  0.00    -0.178 NA
ATOM      3  N   UNL d   1      12.957  11.783  -2.418  0.00  0.00    -0.178 NA
ATOM      4  C   UNL d   1      14.596  11.929  -2.332  0.00  0.00     0.286 A 
ATOM      5  C   UNL d   1      13.333  11.821  -1.682  0.00  0.00     0.286 A 
ATOM      6  C   UNL d   1      13.390  11.817  -3.128  0.00  0.00     0.226 A 
ATOM      7  S   UNL d   1      13.016  11.779  -3.860  0.00  0.00    -0.037 SA
ATOM      8  O   UNL d   1      15.429  12.004  -2.301  0.00  0.00    -0.265 OA
ATOM      9  O   UNL d   1      12.873  11.784  -0.984  0.00  0.00    -0.265 OA
ENDROOT
BRANCH   1  10
ATOM     10  C   UNL d   1      14.527  11.932  -0.902  0.00  0.00     0.034 C 
BRANCH  10  11
ATOM     11  C   UNL d   1      14.711  12.660  -0.582  0.00  0.00     0.100 A 
ATOM     12  O   UNL d   1      15.497  12.920  -0.584  0.00  0.00    -0.307 OA
ATOM     13  C   UNL d   1      15.511  13.665  -0.229  0.00  0.00     0.100 A 
ATOM     14  C   UNL d   1      16.182  14.135  -0.111  0.00  0.00     0.027 C 
ATOM     15  C   UNL d   1      14.758  13.855  -0.015  0.00  0.00     0.027 A 
ATOM     16  C   UNL d   1      14.244  13.246  -0.224  0.00  0.00     0.027 A 
ENDBRANCH  10  11
ENDBRANCH   1  10
TORSDOF 2
ENDMDL
MODEL 2
REMARK VINA RESULT:      13.3      1.949      3.095
REMARK  2 active torsions:
REMARK  status: ('A' for Active; 'I' for Inactive)
REMARK    1  A    between atoms: C_7  and  C_1 
REMARK    2  A    between atoms: C_8  and  C_7 
ROOT
ATOM      1  C   UNL d   1      14.927  12.503  -0.997  0.00  0.00     0.118 A 
ATOM      2  N   UNL d   1      15.874  13.573  -0.978  0.00  0.00    -0.178 NA
ATOM      3  N   UNL d   1      14.800  13.557  -0.042  0.00  0.00    -0.178 NA
ATOM      4  C   UNL d   1      15.601  12.863  -1.304  0.00  0.00     0.286 A 
ATOM      5  C   UNL d   1      14.526  12.847  -0.368  0.00  0.00     0.286 A 
ATOM      6  C   UNL d   1      15.479  13.936  -0.339  0.00  0.00     0.226 A 
ATOM      7  S   UNL d   1      15.751  14.642  -0.015  0.00  0.00    -0.037 SA
ATOM      8  O   UNL d   1      16.016  12.519  -1.945  0.00  0.00    -0.265 OA
ATOM      9  O   UNL d   1      13.841  12.487  -0.051  0.00  0.00    -0.265 OA
ENDROOT
BRANCH   1  10
ATOM     10  C   UNL d   1      14.652  11.790  -1.324  0.00  0.00     0.034 C 
BRANCH  10  11
ATOM     11  C   UNL d   1      14.015  11.801  -1.835  0.00  0.00     0.100 A 
ATOM     12  O   UNL d   1      14.148  11.840  -2.651  0.00  0.00    -0.307 OA
ATOM     13  C   UNL d   1      13.410  11.843  -3.021  0.00  0.00     0.100 A 
ATOM     14  C   UNL d   1      13.274  11.877  -3.837  0.00  0.00     0.027 C 
ATOM     15  C   UNL d   1      12.843  11.808  -2.450  0.00  0.00     0.027 A 
ATOM     16  C   UNL d   1      13.196  11.781  -1.705  0.00  0.00     0.027 A 
ENDBRANCH  10  11
ENDBRANCH   1  10
TORSDOF 2
ENDMDL
