MODEL 1
REMARK VINA RESULT:      -9.7      0.000      0.000
REMARK  1 active torsions:
REMARK  status: ('A' for Active; 'I' for Inactive)
REMARK    1  A    between atoms: N_2  and  C_1 
ROOT
ATOM      1  C   UNL d   1      52.315  34.178  53.495  0.00  0.00     0.110 A 
ATOM      2  C   UNL d   1      52.607  33.423  53.714  0.00  0.00     0.212 A 
ATOM      3  C   UNL d   1      52.677  34.862  53.793  0.00  0.00     0.056 A 
ATOM      4  C   UNL d   1      53.250  33.367  54.221  0.00  0.00     0.046 A 
ATOM      5  S   UNL d   1      53.332  34.791  54.310  0.00  0.00    -0.085 SA
ATOM      6  C   UNL d   1      53.616  34.047  54.523  0.00  0.00     0.033 A 
ATOM      7  O   UNL d   1      52.249  32.745  53.418  0.00  0.00    -0.285 OA
ATOM      8  C   UNL d   1      53.540  32.627  54.438  0.00  0.00     0.004 A 
ATOM      9  C   UNL d   1      54.259  33.986  55.031  0.00  0.00     0.007 A 
ATOM     10  C   UNL d   1      54.182  32.559  54.945  0.00  0.00     0.000 A 
ATOM     11  C   UNL d   1      54.543  33.243  55.243  0.00  0.00     0.001 A 
ENDROOT
BRANCH   1  12
ATOM     12  N   UNL d   1      51.668  34.243  52.984  0.00  0.00    -0.301 N 
ATOM     13  C   UNL d   1      50.948  34.498  53.266  0.00  0.00     0.080 A 
ATOM     14  C   UNL d   1      50.296  34.564  52.757  0.00  0.00     0.018 A 
ATOM     15  C   UNL d   1      49.572  34.821  53.042  0.00  0.00     0.002 A 
ATOM     16  C   UNL d   1      50.380  34.371  51.962  0.00  0.00     0.003 A 
ATOM     17  C   UNL d   1      48.924  34.886  52.534  0.00  0.00     0.000 A 
ATOM     18  C   UNL d   1      49.008  34.692  51.736  0.00  0.00     0.000 A 
ATOM     19  C   UNL d   1      49.740  34.433  51.449  0.00  0.00     0.000 A 
ATOM     20  C   UNL d   1      51.116  34.109  51.666  0.00  0.00     0.019 A 
ATOM     21  C   UNL d   1      51.753  34.048  52.182  0.00  0.00     0.080 A 
ENDBRANCH   1  12
TORSDOF 1
ENDMDL
MODEL 2
REMARK VINA RESULT:      -9.3      2.262      4.380
REMARK  1 active torsions:
REMARK  status: ('A' for Active; 'I' for Inactive)
REMARK    1  A    between atoms: N_2  and  C_1 
ROOT
ATOM      1  C   UNL d   1      53.127  32.158  53.527  0.00  0.00     0.110 A 
ATOM      2  C   UNL d   1      52.416  32.539  53.296  0.00  0.00     0.212 A 
ATOM      3  C   UNL d   1      53.795  32.612  53.714  0.00  0.00     0.056 A 
ATOM      4  C   UNL d   1      52.388  33.358  53.258  0.00  0.00     0.046 A 
ATOM      5  S   UNL d   1      53.753  33.447  53.670  0.00  0.00    -0.085 SA
ATOM      6  C   UNL d   1      53.052  33.818  53.443  0.00  0.00     0.033 A 
ATOM      7  O   UNL d   1      51.753  32.089  53.111  0.00  0.00    -0.285 OA
ATOM      8  C   UNL d   1      51.691  33.736  53.031  0.00  0.00     0.004 A 
ATOM      9  C   UNL d   1      53.020  34.638  53.403  0.00  0.00     0.007 A 
ATOM     10  C   UNL d   1      51.651  34.554  52.989  0.00  0.00     0.000 A 
ATOM     11  C   UNL d   1      52.320  35.008  53.176  0.00  0.00     0.001 A 
ENDROOT
BRANCH   1  12
ATOM     12  N   UNL d   1      53.163  31.333  53.569  0.00  0.00    -0.301 N 
ATOM     13  C   UNL d   1      53.230  30.962  54.291  0.00  0.00     0.080 A 
ATOM     14  C   UNL d   1      53.266  30.135  54.337  0.00  0.00     0.018 A 
ATOM     15  C   UNL d   1      53.334  29.763  55.065  0.00  0.00     0.002 A 
ATOM     16  C   UNL d   1      53.235  29.687  53.648  0.00  0.00     0.003 A 
ATOM     17  C   UNL d   1      53.370  28.939  55.109  0.00  0.00     0.000 A 
ATOM     18  C   UNL d   1      53.338  28.490  54.418  0.00  0.00     0.000 A 
ATOM     19  C   UNL d   1      53.271  28.866  53.684  0.00  0.00     0.000 A 
ATOM     20  C   UNL d   1      53.166  30.061  52.904  0.00  0.00     0.019 A 
ATOM     21  C   UNL d   1      53.131  30.882  52.874  0.00  0.00     0.080 A 
ENDBRANCH   1  12
TORSDOF 1
ENDMDL
MODEL 3
REMARK VINA RESULT:      -8.6      2.274      3.630
REMARK  1 active torsions:
REMARK  status: ('A' for Active; 'I' for Inactive)
REMARK    1  A    between atoms: N_2  and  C_1 
ROOT
ATOM      1  C   UNL d   1      53.281  31.898  53.679  0.00  0.00     0.110 A 
ATOM      2  C   UNL d   1      53.395  31.300  54.256  0.00  0.00     0.212 A 
ATOM      3  C   UNL d   1      53.053  31.690  52.909  0.00  0.00     0.056 A 
ATOM      4  C   UNL d   1      53.281  30.513  54.054  0.00  0.00     0.046 A 
ATOM      5  S   UNL d   1      52.939  30.884  52.716  0.00  0.00    -0.085 SA
ATOM      6  C   UNL d   1      53.053  30.298  53.286  0.00  0.00     0.033 A 
ATOM      7  O   UNL d   1      53.621  31.506  55.019  0.00  0.00    -0.285 OA
ATOM      8  C   UNL d   1      53.392  29.923  54.618  0.00  0.00     0.004 A 
ATOM      9  C   UNL d   1      52.939  29.509  53.088  0.00  0.00     0.007 A 
ATOM     10  C   UNL d   1      53.280  29.133  54.427  0.00  0.00     0.000 A 
ATOM     11  C   UNL d   1      53.052  28.924  53.658  0.00  0.00     0.001 A 
ENDROOT
BRANCH   1  12
ATOM     12  N   UNL d   1      53.395  32.694  53.875  0.00  0.00    -0.301 N 
ATOM     13  C   UNL d   1      52.783  33.226  53.796  0.00  0.00     0.080 A 
ATOM     14  C   UNL d   1      52.893  34.025  53.991  0.00  0.00     0.018 A 
ATOM     15  C   UNL d   1      52.277  34.560  53.911  0.00  0.00     0.002 A 
ATOM     16  C   UNL d   1      53.625  34.279  54.266  0.00  0.00     0.003 A 
ATOM     17  C   UNL d   1      52.388  35.354  54.106  0.00  0.00     0.000 A 
ATOM     18  C   UNL d   1      53.122  35.609  54.382  0.00  0.00     0.000 A 
ATOM     19  C   UNL d   1      53.744  35.069  54.463  0.00  0.00     0.000 A 
ATOM     20  C   UNL d   1      54.256  33.738  54.350  0.00  0.00     0.019 A 
ATOM     21  C   UNL d   1      54.133  32.950  54.153  0.00  0.00     0.080 A 
ENDBRANCH   1  12
TORSDOF 1
ENDMDL
MODEL 4
REMARK VINA RESULT:      -8.4      0.989      4.289
REMARK  1 active torsions:
REMARK  status: ('A' for Active; 'I' for Inactive)
REMARK    1  A    between atoms: N_2  and  C_1 
ROOT
ATOM      1  C   UNL d   1      51.731  34.209  52.948  0.00  0.00     0.110 A 
ATOM      2  C   UNL d   1      50.992  34.484  53.235  0.00  0.00     0.212 A 
ATOM      3  C   UNL d   1      51.810  33.991  52.152  0.00  0.00     0.056 A 
ATOM      4  C   UNL d   1      50.352  34.536  52.723  0.00  0.00     0.046 A 
ATOM      5  S   UNL d   1      51.149  34.049  51.641  0.00  0.00    -0.085 SA
ATOM      6  C   UNL d   1      50.424  34.321  51.926  0.00  0.00     0.033 A 
ATOM      7  O   UNL d   1      50.915  34.699  54.024  0.00  0.00    -0.285 OA
ATOM      8  C   UNL d   1      49.625  34.806  53.001  0.00  0.00     0.004 A 
ATOM      9  C   UNL d   1      49.781  34.374  51.418  0.00  0.00     0.007 A 
ATOM     10  C   UNL d   1      48.978  34.862  52.499  0.00  0.00     0.000 A 
ATOM     11  C   UNL d   1      49.057  34.645  51.703  0.00  0.00     0.001 A 
ENDROOT
BRANCH   1  12
ATOM     12  N   UNL d   1      52.381  34.153  53.457  0.00  0.00    -0.301 N 
ATOM     13  C   UNL d   1      52.632  33.425  53.723  0.00  0.00     0.080 A 
ATOM     14  C   UNL d   1      53.283  33.365  54.233  0.00  0.00     0.018 A 
ATOM     15  C   UNL d   1      53.534  32.631  54.500  0.00  0.00     0.002 A 
ATOM     16  C   UNL d   1      53.677  34.046  54.472  0.00  0.00     0.003 A 
ATOM     17  C   UNL d   1      54.183  32.573  55.008  0.00  0.00     0.000 A 
ATOM     18  C   UNL d   1      54.578  33.257  55.247  0.00  0.00     0.000 A 
ATOM     19  C   UNL d   1      54.324  33.997  54.978  0.00  0.00     0.000 A 
ATOM     20  C   UNL d   1      53.425  34.796  54.203  0.00  0.00     0.019 A 
ATOM     21  C   UNL d   1      52.778  34.840  53.698  0.00  0.00     0.080 A 
ENDBRANCH   1  12
TORSDOF 1
ENDMDL
