MODEL 1
REMARK VINA RESULT:      -1.8      0.000      0.000
REMARK  4 active torsions:
REMARK  status: ('A' for Active; 'I' for Inactive)
REMARK    1  A    between atoms: C_2  and  S_1 
REMARK    2  A    between atoms: N_3  and  S_1 
REMARK    3  A    between atoms: C_5  and  C_11 
REMARK    4  A    between atoms: O_20  and  C_8 
ROOT
ATOM      1  S   UNL d   1      58.063  -0.068  30.726  0.00  0.00     0.273 S 
ATOM      2  O   UNL d   1      58.389   0.640  31.008  0.00  0.00    -0.200 OA
ATOM      3  O   UNL d   1      57.739  -0.776  30.440  0.00  0.00    -0.200 OA
ENDROOT
BRANCH   1   4
ATOM      4  C   UNL d   1      58.622  -0.071  30.124  0.00  0.00     0.128 A 
ATOM      5  C   UNL d   1      59.389  -0.331  30.274  0.00  0.00     0.044 A 
ATOM      6  C   UNL d   1      59.950  -0.334  29.669  0.00  0.00     0.141 A 
ATOM      7  F   UNL d   1      60.721  -0.595  29.821  0.00  0.00    -0.204 F 
ATOM      8  C   UNL d   1      59.739  -0.077  28.917  0.00  0.00     0.032 A 
ATOM      9  C   UNL d   1      58.969   0.184  28.765  0.00  0.00     0.027 A 
ATOM     10  C   UNL d   1      58.412   0.186  29.369  0.00  0.00     0.106 A 
BRANCH  10  11
ATOM     11  O   UNL d   1      57.637   0.446  29.224  0.00  0.00    -0.327 OA
ATOM     12  C   UNL d   1      57.419   0.682  28.460  0.00  0.00     0.181 C 
ENDBRANCH  10  11
ENDBRANCH   1   4
BRANCH   1  13
ATOM     13  N   UNL d   1      57.499  -0.065  31.332  0.00  0.00    -0.229 N 
ATOM     14  C   UNL d   1      57.365   0.623  31.781  0.00  0.00     0.092 A 
ATOM     15  C   UNL d   1      56.800   0.626  32.388  0.00  0.00     0.025 A 
ATOM     16  C   UNL d   1      56.371  -0.058  32.547  0.00  0.00     0.062 A 
ATOM     17  C   UNL d   1      56.493  -0.745  32.111  0.00  0.00     0.025 A 
ATOM     18  C   UNL d   1      57.058  -0.748  31.503  0.00  0.00     0.092 A 
BRANCH  16  19
ATOM     19  C   UNL d   1      55.806  -0.054  33.154  0.00  0.00     0.297 C 
ATOM     20  O   UNL d   1      55.148  -0.554  33.111  0.00  0.00    -0.264 OA
ATOM     21  N   UNL d   1      55.895   0.448  33.810  0.00  0.00    -0.102 N 
ENDBRANCH  16  19
ENDBRANCH   1  13
TORSDOF 4
ENDMDL
MODEL 2
REMARK VINA RESULT:      -1.4      2.281      4.646
REMARK  4 active torsions:
REMARK  status: ('A' for Active; 'I' for Inactive)
REMARK    1  A    between atoms: C_2  and  S_1 
REMARK    2  A    between atoms: N_3  and  S_1 
REMARK    3  A    between atoms: C_5  and  C_11 
REMARK    4  A    between atoms: O_20  and  C_8 
ROOT
ATOM      1  S   UNL d   1      56.310   0.025  33.194  0.00  0.00     0.273 S 
ATOM      2  O   UNL d   1      55.802  -0.629  33.154  0.00  0.00    -0.200 OA
ATOM      3  O   UNL d   1      56.817   0.680  33.239  0.00  0.00    -0.200 OA
ENDROOT
BRANCH   1   4
ATOM      4  C   UNL d   1      55.953   0.243  33.901  0.00  0.00     0.128 A 
ATOM      5  C   UNL d   1      56.390   0.254  34.599  0.00  0.00     0.044 A 
ATOM      6  C   UNL d   1      56.031   0.473  35.309  0.00  0.00     0.141 A 
ATOM      7  F   UNL d   1      56.472   0.484  36.009  0.00  0.00    -0.204 F 
ATOM      8  C   UNL d   1      55.235   0.679  35.315  0.00  0.00     0.032 A 
ATOM      9  C   UNL d   1      54.794   0.668  34.614  0.00  0.00     0.027 A 
ATOM     10  C   UNL d   1      55.155   0.450  33.910  0.00  0.00     0.106 A 
BRANCH  10  11
ATOM     11  O   UNL d   1      54.719   0.436  33.203  0.00  0.00    -0.327 OA
ATOM     12  C   UNL d   1      53.927   0.682  33.203  0.00  0.00     0.181 C 
ENDBRANCH  10  11
ENDBRANCH   1   4
BRANCH   1  13
ATOM     13  N   UNL d   1      56.670  -0.194  32.482  0.00  0.00    -0.229 N 
ATOM     14  C   UNL d   1      57.130   0.351  32.054  0.00  0.00     0.092 A 
ATOM     15  C   UNL d   1      57.490   0.132  31.341  0.00  0.00     0.025 A 
ATOM     16  C   UNL d   1      57.391  -0.634  31.055  0.00  0.00     0.062 A 
ATOM     17  C   UNL d   1      56.940  -1.184  31.468  0.00  0.00     0.025 A 
ATOM     18  C   UNL d   1      56.579  -0.964  32.181  0.00  0.00     0.092 A 
BRANCH  16  19
ATOM     19  C   UNL d   1      57.752  -0.854  30.341  0.00  0.00     0.297 C 
ATOM     20  O   UNL d   1      57.686  -0.366  29.677  0.00  0.00    -0.264 OA
ATOM     21  N   UNL d   1      58.181  -1.563  30.286  0.00  0.00    -0.102 N 
ENDBRANCH  16  19
ENDBRANCH   1  13
TORSDOF 4
ENDMDL
MODEL 3
REMARK VINA RESULT:       0.9      9.802     10.077
REMARK  4 active torsions:
REMARK  status: ('A' for Active; 'I' for Inactive)
REMARK    1  A    between atoms: C_2  and  S_1 
REMARK    2  A    between atoms: N_3  and  S_1 
REMARK    3  A    between atoms: C_5  and  C_11 
REMARK    4  A    between atoms: O_20  and  C_8 
ROOT
ATOM      1  S   UNL d   1      59.573  -9.580  32.354  0.00  0.00     0.273 S 
ATOM      2  O   UNL d   1      58.795  -9.343  32.516  0.00  0.00    -0.200 OA
ATOM      3  O   UNL d   1      60.349  -9.818  32.186  0.00  0.00    -0.200 OA
ENDROOT
BRANCH   1   4
ATOM      4  C   UNL d   1      59.372  -9.650  31.561  0.00  0.00     0.128 A 
ATOM      5  C   UNL d   1      59.958  -9.627  30.982  0.00  0.00     0.044 A 
ATOM      6  C   UNL d   1      59.756  -9.696  30.185  0.00  0.00     0.141 A 
ATOM      7  F   UNL d   1      60.345  -9.673  29.605  0.00  0.00    -0.204 F 
ATOM      8  C   UNL d   1      58.966  -9.789  29.973  0.00  0.00     0.032 A 
ATOM      9  C   UNL d   1      58.377  -9.813  30.552  0.00  0.00     0.027 A 
ATOM     10  C   UNL d   1      58.581  -9.743  31.345  0.00  0.00     0.106 A 
BRANCH  10  11
ATOM     11  O   UNL d   1      57.995  -9.766  31.933  0.00  0.00    -0.327 OA
ATOM     12  C   UNL d   1      57.197  -9.810  31.715  0.00  0.00     0.181 C 
ENDBRANCH  10  11
ENDBRANCH   1   4
BRANCH   1  13
ATOM     13  N   UNL d   1      59.775  -9.510  33.154  0.00  0.00    -0.229 N 
ATOM     14  C   UNL d   1      60.482  -9.135  33.380  0.00  0.00     0.092 A 
ATOM     15  C   UNL d   1      60.685  -9.064  34.180  0.00  0.00     0.025 A 
ATOM     16  C   UNL d   1      60.181  -9.370  34.755  0.00  0.00     0.062 A 
ATOM     17  C   UNL d   1      59.478  -9.744  34.545  0.00  0.00     0.025 A 
ATOM     18  C   UNL d   1      59.276  -9.814  33.745  0.00  0.00     0.092 A 
BRANCH  16  19
ATOM     19  C   UNL d   1      60.383  -9.300  35.556  0.00  0.00     0.297 C 
ATOM     20  O   UNL d   1      60.977  -9.778  35.876  0.00  0.00    -0.264 OA
ATOM     21  N   UNL d   1      59.994  -8.751  36.043  0.00  0.00    -0.102 N 
ENDBRANCH  16  19
ENDBRANCH   1  13
TORSDOF 4
ENDMDL
