MODEL 1
REMARK VINA RESULT:      29.3      0.000      0.000
REMARK  1 active torsions:
REMARK  status: ('A' for Active; 'I' for Inactive)
REMARK    1  A    between atoms: C_7  and  C_2 
ROOT
ATOM      1  C   UNL d   1     -57.605 -98.796 -45.197  0.00  0.00     0.257 A 
ATOM      2  C   UNL d   1     -57.702 -98.785 -44.380  0.00  0.00     0.142 A 
ATOM      3  C   UNL d   1     -56.844 -98.796 -45.525  0.00  0.00     0.238 A 
ATOM      4  O   UNL d   1     -57.045 -98.776 -43.899  0.00  0.00    -0.304 OA
ATOM      5  C   UNL d   1     -56.176 -98.786 -45.016  0.00  0.00     0.065 A 
ATOM      6  C   UNL d   1     -56.272 -98.776 -44.200  0.00  0.00     0.103 A 
ATOM      7  O   UNL d   1     -56.756 -98.806 -46.361  0.00  0.00    -0.283 OA
ATOM      8  O   UNL d   1     -58.274 -98.806 -45.706  0.00  0.00    -0.281 OA
ATOM      9  C   UNL d   1     -55.410 -98.786 -45.347  0.00  0.00     0.005 A 
ATOM     10  C   UNL d   1     -55.616 -98.766 -43.718  0.00  0.00     0.025 A 
ATOM     11  C   UNL d   1     -54.750 -98.776 -44.856  0.00  0.00     0.000 A 
ATOM     12  C   UNL d   1     -54.850 -98.766 -44.049  0.00  0.00     0.002 A 
ENDROOT
BRANCH   2  13
ATOM     13  C   UNL d   1     -58.459 -98.785 -44.031  0.00  0.00     0.026 A 
ATOM     14  C   UNL d   1     -58.512 -98.757 -43.191  0.00  0.00     0.002 A 
ATOM     15  C   UNL d   1     -59.262 -98.757 -42.851  0.00  0.00     0.000 A 
ATOM     16  C   UNL d   1     -59.953 -98.783 -43.300  0.00  0.00     0.000 A 
ATOM     17  C   UNL d   1     -59.886 -98.810 -44.125  0.00  0.00     0.000 A 
ATOM     18  C   UNL d   1     -59.147 -98.811 -44.487  0.00  0.00     0.002 A 
ENDBRANCH   2  13
TORSDOF 1
ENDMDL
