MODEL 1
REMARK VINA RESULT:      14.2      0.000      0.000
REMARK  4 active torsions:
REMARK  status: ('A' for Active; 'I' for Inactive)
REMARK    1  A    between atoms: C_3  and  C_1 
REMARK    2  A    between atoms: C_2  and  C_3 
REMARK    3  A    between atoms: C_6  and  C_2 
REMARK    4  A    between atoms: C_4  and  C_6 
ROOT
ATOM      1  C   UNL d   1     -57.073 -98.894 -43.927  0.00  0.00     0.043 C 
ENDROOT
BRANCH   1   2
ATOM      2  C   UNL d   1     -57.755 -98.820 -44.376  0.00  0.00     0.202 C 
ATOM      3  O   UNL d   1     -57.747 -98.758 -45.193  0.00  0.00    -0.286 OA
BRANCH   2   4
ATOM      4  C   UNL d   1     -58.517 -98.803 -44.015  0.00  0.00     0.068 A 
ATOM      5  S   UNL d   1     -58.692 -98.771 -43.213  0.00  0.00    -0.083 SA
ATOM      6  C   UNL d   1     -59.499 -98.764 -43.103  0.00  0.00     0.035 A 
ATOM      7  C   UNL d   1     -59.832 -98.794 -43.866  0.00  0.00     0.008 A 
ATOM      8  C   UNL d   1     -59.255 -98.817 -44.428  0.00  0.00     0.010 A 
ENDBRANCH   2   4
ENDBRANCH   1   2
BRANCH   1   9
ATOM      9  C   UNL d   1     -56.344 -98.770 -44.295  0.00  0.00     0.010 C 
BRANCH   9  10
ATOM     10  C   UNL d   1     -55.817 -99.408 -44.352  0.00  0.00     0.030 A 
ATOM     11  S   UNL d   1     -55.859-100.185 -44.102  0.00  0.00    -0.086 SA
ATOM     12  C   UNL d   1     -55.152-100.558 -44.323  0.00  0.00     0.035 A 
ATOM     13  C   UNL d   1     -54.720-100.028 -44.683  0.00  0.00     0.007 A 
ATOM     14  C   UNL d   1     -55.083 -99.327 -44.721  0.00  0.00     0.007 A 
ENDBRANCH   9  10
ENDBRANCH   1   9
TORSDOF 4
ENDMDL
MODEL 2
REMARK VINA RESULT:      15.1      0.789      1.165
REMARK  4 active torsions:
REMARK  status: ('A' for Active; 'I' for Inactive)
REMARK    1  A    between atoms: C_3  and  C_1 
REMARK    2  A    between atoms: C_2  and  C_3 
REMARK    3  A    between atoms: C_6  and  C_2 
REMARK    4  A    between atoms: C_4  and  C_6 
ROOT
ATOM      1  C   UNL d   1     -56.426 -99.375 -44.271  0.00  0.00     0.043 C 
ENDROOT
BRANCH   1   2
ATOM      2  C   UNL d   1     -57.032 -99.027 -44.700  0.00  0.00     0.202 C 
ATOM      3  O   UNL d   1     -56.938 -98.759 -45.469  0.00  0.00    -0.286 OA
BRANCH   2   4
ATOM      4  C   UNL d   1     -57.799 -98.922 -44.366  0.00  0.00     0.068 A 
ATOM      5  S   UNL d   1     -58.517 -98.875 -44.763  0.00  0.00    -0.083 SA
ATOM      6  C   UNL d   1     -59.125 -98.773 -44.231  0.00  0.00     0.035 A 
ATOM      7  C   UNL d   1     -58.767 -98.756 -43.478  0.00  0.00     0.008 A 
ATOM      8  C   UNL d   1     -57.968 -98.844 -43.540  0.00  0.00     0.010 A 
ENDBRANCH   2   4
ENDBRANCH   1   2
BRANCH   1   9
ATOM      9  C   UNL d   1     -55.751 -99.627 -44.676  0.00  0.00     0.010 C 
BRANCH   9  10
ATOM     10  C   UNL d   1     -55.347-100.293 -44.393  0.00  0.00     0.030 A 
ATOM     11  S   UNL d   1     -55.131-100.532 -43.642  0.00  0.00    -0.086 SA
ATOM     12  C   UNL d   1     -54.734-101.257 -43.714  0.00  0.00     0.035 A 
ATOM     13  C   UNL d   1     -54.718-101.432 -44.467  0.00  0.00     0.007 A 
ATOM     14  C   UNL d   1     -55.075-100.880 -44.906  0.00  0.00     0.007 A 
ENDBRANCH   9  10
ENDBRANCH   1   9
TORSDOF 4
ENDMDL
