MODEL 1
REMARK VINA RESULT:      45.5      0.000      0.000
REMARK  9 active torsions:
REMARK  status: ('A' for Active; 'I' for Inactive)
REMARK    1  A    between atoms: C_2  and  C_1 
REMARK    2  A    between atoms: C_23  and  C_7 
REMARK    3  A    between atoms: C_12  and  O_16 
REMARK    4  A    between atoms: C_18  and  C_12 
REMARK    5  A    between atoms: O_16  and  C_14 
REMARK    6  A    between atoms: C_30  and  C_17 
REMARK    7  A    between atoms: C_20  and  C_28 
REMARK    8  A    between atoms: O_25  and  C_23 
REMARK    9  A    between atoms: C_28  and  O_25 
ROOT
ATOM      1  C   UNL d   1      46.094 -16.912  43.685  0.00  0.00     0.098 A 
ATOM      2  C   UNL d   1      45.844 -16.313  44.210  0.00  0.00     0.202 A 
ATOM      3  C   UNL d   1      45.890 -15.520  43.989  0.00  0.00     0.062 A 
ATOM      4  C   UNL d   1      46.391 -16.705  42.933  0.00  0.00     0.130 A 
ATOM      5  C   UNL d   1      46.187 -15.312  43.237  0.00  0.00     0.105 A 
ATOM      6  O   UNL d   1      46.441 -15.904  42.701  0.00  0.00    -0.305 OA
ATOM      7  C   UNL d   1      45.644 -14.930  44.504  0.00  0.00     0.007 A 
ATOM      8  C   UNL d   1      45.985 -13.931  43.538  0.00  0.00     0.105 A 
ATOM      9  C   UNL d   1      46.234 -14.519  43.015  0.00  0.00     0.050 A 
ATOM     10  C   UNL d   1      45.690 -14.136  44.282  0.00  0.00     0.023 A 
ATOM     11  O   UNL d   1      45.549 -16.519  44.955  0.00  0.00    -0.286 OA
ENDROOT
BRANCH   1  12
ATOM     12  C   UNL d   1      46.046 -17.707  43.910  0.00  0.00     0.153 A 
ATOM     13  N   UNL d   1      46.590 -18.103  44.387  0.00  0.00    -0.227 NA
ATOM     14  C   UNL d   1      46.330 -18.881  44.470  0.00  0.00     0.099 A 
ATOM     15  C   UNL d   1      46.642 -19.523  44.878  0.00  0.00     0.021 A 
ATOM     16  C   UNL d   1      45.628 -18.963  44.044  0.00  0.00     0.083 A 
ATOM     17  C   UNL d   1      46.254 -20.252  44.862  0.00  0.00     0.002 A 
ATOM     18  C   UNL d   1      45.549 -20.327  44.432  0.00  0.00     0.002 A 
ATOM     19  C   UNL d   1      45.239 -19.688  44.026  0.00  0.00     0.019 A 
ATOM     20  N   UNL d   1      45.457 -18.234  43.699  0.00  0.00    -0.288 N 
ATOM     21  C   UNL d   1      44.803 -18.067  43.224  0.00  0.00     0.101 C 
ENDBRANCH   1  12
BRANCH   4  22
ATOM     22  C   UNL d   1      46.642 -17.301  42.407  0.00  0.00     0.142 C 
BRANCH  22  23
ATOM     23  O   UNL d   1      46.237 -17.425  41.699  0.00  0.00    -0.315 OA
BRANCH  23  24
ATOM     24  C   UNL d   1      46.641 -17.718  41.037  0.00  0.00     0.246 C 
BRANCH  24  25
ATOM     25  C   UNL d   1      46.486 -18.488  40.773  0.00  0.00     0.217 C 
ATOM     26  O   UNL d   1      46.634 -19.139  41.261  0.00  0.00    -0.645 OA
ATOM     27  O   UNL d   1      46.181 -18.602  40.015  0.00  0.00    -0.645 OA
ENDBRANCH  24  25
ENDBRANCH  23  24
ENDBRANCH  22  23
ENDBRANCH   4  22
BRANCH  10  28
ATOM     28  C   UNL d   1      45.441 -13.545  44.806  0.00  0.00     0.002 C 
ATOM     29  C   UNL d   1      45.925 -12.893  44.952  0.00  0.00     0.000 C 
ENDBRANCH  10  28
BRANCH   8  30
ATOM     30  O   UNL d   1      46.031 -13.137  43.316  0.00  0.00    -0.276 OA
BRANCH  30  31
ATOM     31  C   UNL d   1      45.500 -12.830  42.763  0.00  0.00     0.275 C 
ATOM     32  O   UNL d   1      45.749 -12.671  41.993  0.00  0.00    -0.264 OA
BRANCH  31  33
ATOM     33  C   UNL d   1      44.714 -12.681  42.982  0.00  0.00     0.078 C 
ATOM     34  C   UNL d   1      43.924 -12.534  43.201  0.00  0.00     0.010 C 
ATOM     35  C   UNL d   1      44.970 -12.082  43.488  0.00  0.00     0.010 C 
ATOM     36  C   UNL d   1      44.464 -13.286  42.471  0.00  0.00     0.010 C 
ENDBRANCH  31  33
ENDBRANCH  30  31
ENDBRANCH   8  30
TORSDOF 9
ENDMDL
