MODEL 1
REMARK VINA RESULT:      -7.6      0.000      0.000
REMARK  3 active torsions:
REMARK  status: ('A' for Active; 'I' for Inactive)
REMARK       I    between atoms: C_2  and  N_1 
REMARK    1  A    between atoms: C_5  and  C_2 
REMARK    2  A    between atoms: S_8  and  C_3 
REMARK    3  A    between atoms: O_13  and  C_11 
ROOT
ATOM      1  N   UNL d   1      53.185  33.264  53.809  0.00  0.00    -0.251 N 
ATOM      2  C   UNL d   1      52.815  33.991  53.727  0.00  0.00     0.266 C 
ATOM      3  C   UNL d   1      53.782  33.077  54.346  0.00  0.00     0.178 A 
ATOM      4  N   UNL d   1      53.984  32.295  54.230  0.00  0.00    -0.219 NA
ATOM      5  O   UNL d   1      53.030  34.623  54.209  0.00  0.00    -0.267 OA
ATOM      6  C   UNL d   1      53.020  32.587  53.361  0.00  0.00     0.106 A 
ATOM      7  C   UNL d   1      53.520  31.987  53.628  0.00  0.00     0.120 A 
ENDROOT
BRANCH   2   8
ATOM      8  C   UNL d   1      52.223  34.093  53.161  0.00  0.00     0.059 A 
ATOM      9  C   UNL d   1      51.432  34.060  53.391  0.00  0.00     0.029 A 
ATOM     10  C   UNL d   1      50.856  34.161  52.828  0.00  0.00     0.094 A 
ATOM     11  C   UNL d   1      51.059  34.295  52.031  0.00  0.00     0.024 A 
ATOM     12  C   UNL d   1      51.831  34.327  51.809  0.00  0.00     0.002 A 
ATOM     13  C   UNL d   1      52.427  34.226  52.377  0.00  0.00     0.005 A 
BRANCH  10  14
ATOM     14  O   UNL d   1      50.062  34.129  53.049  0.00  0.00    -0.328 OA
ATOM     15  C   UNL d   1      49.545  34.731  52.836  0.00  0.00     0.181 C 
ENDBRANCH  10  14
ENDBRANCH   2   8
BRANCH   3  16
ATOM     16  S   UNL d   1      54.106  33.593  54.891  0.00  0.00    -0.076 SA
ATOM     17  C   UNL d   1      54.752  33.364  55.352  0.00  0.00     0.077 C 
ENDBRANCH   3  16
TORSDOF 3
ENDMDL
MODEL 2
REMARK VINA RESULT:      -7.3      2.247      3.218
REMARK  3 active torsions:
REMARK  status: ('A' for Active; 'I' for Inactive)
REMARK       I    between atoms: C_2  and  N_1 
REMARK    1  A    between atoms: C_5  and  C_2 
REMARK    2  A    between atoms: S_8  and  C_3 
REMARK    3  A    between atoms: O_13  and  C_11 
ROOT
ATOM      1  N   UNL d   1      53.301  31.896  53.553  0.00  0.00    -0.251 N 
ATOM      2  C   UNL d   1      53.754  31.991  54.230  0.00  0.00     0.266 C 
ATOM      3  C   UNL d   1      52.984  31.188  53.273  0.00  0.00     0.178 A 
ATOM      4  N   UNL d   1      52.575  31.353  52.586  0.00  0.00    -0.219 NA
ATOM      5  O   UNL d   1      53.933  31.342  54.704  0.00  0.00    -0.267 OA
ATOM      6  C   UNL d   1      53.082  32.500  53.031  0.00  0.00     0.106 A 
ATOM      7  C   UNL d   1      52.630  32.157  52.431  0.00  0.00     0.120 A 
ENDROOT
BRANCH   2   8
ATOM      8  C   UNL d   1      54.032  32.740  54.439  0.00  0.00     0.059 A 
ATOM      9  C   UNL d   1      53.521  33.275  54.802  0.00  0.00     0.029 A 
ATOM     10  C   UNL d   1      53.802  34.009  55.004  0.00  0.00     0.094 A 
ATOM     11  C   UNL d   1      54.593  34.219  54.849  0.00  0.00     0.024 A 
ATOM     12  C   UNL d   1      55.090  33.695  54.494  0.00  0.00     0.002 A 
ATOM     13  C   UNL d   1      54.812  32.943  54.284  0.00  0.00     0.005 A 
BRANCH  10  14
ATOM     14  O   UNL d   1      53.298  34.551  55.368  0.00  0.00    -0.328 OA
ATOM     15  C   UNL d   1      53.082  35.244  54.983  0.00  0.00     0.181 C 
ENDBRANCH  10  14
ENDBRANCH   2   8
BRANCH   3  16
ATOM     16  S   UNL d   1      53.072  30.457  53.629  0.00  0.00    -0.076 SA
ATOM     17  C   UNL d   1      52.777  29.776  53.266  0.00  0.00     0.077 C 
ENDBRANCH   3  16
TORSDOF 3
ENDMDL
MODEL 3
REMARK VINA RESULT:      -7.1      1.893      3.513
REMARK  3 active torsions:
REMARK  status: ('A' for Active; 'I' for Inactive)
REMARK       I    between atoms: C_2  and  N_1 
REMARK    1  A    between atoms: C_5  and  C_2 
REMARK    2  A    between atoms: S_8  and  C_3 
REMARK    3  A    between atoms: O_13  and  C_11 
ROOT
ATOM      1  N   UNL d   1      52.575  32.894  53.489  0.00  0.00    -0.251 N 
ATOM      2  C   UNL d   1      53.250  32.431  53.537  0.00  0.00     0.266 C 
ATOM      3  C   UNL d   1      52.536  33.712  53.586  0.00  0.00     0.178 A 
ATOM      4  N   UNL d   1      51.757  33.936  53.492  0.00  0.00    -0.219 NA
ATOM      5  O   UNL d   1      53.980  32.776  53.695  0.00  0.00    -0.267 OA
ATOM      6  C   UNL d   1      51.810  32.617  53.335  0.00  0.00     0.106 A 
ATOM      7  C   UNL d   1      51.305  33.270  53.338  0.00  0.00     0.120 A 
ENDROOT
BRANCH   2   8
ATOM      8  C   UNL d   1      53.199  31.614  53.426  0.00  0.00     0.059 A 
ATOM      9  C   UNL d   1      53.283  31.111  54.074  0.00  0.00     0.029 A 
ATOM     10  C   UNL d   1      53.232  30.310  53.957  0.00  0.00     0.094 A 
ATOM     11  C   UNL d   1      53.098  29.999  53.196  0.00  0.00     0.024 A 
ATOM     12  C   UNL d   1      53.016  30.491  52.565  0.00  0.00     0.002 A 
ATOM     13  C   UNL d   1      53.067  31.312  52.674  0.00  0.00     0.005 A 
BRANCH  10  14
ATOM     14  O   UNL d   1      53.314  29.800  54.600  0.00  0.00    -0.328 OA
ATOM     15  C   UNL d   1      53.345  28.987  54.486  0.00  0.00     0.181 C 
ENDBRANCH  10  14
ENDBRANCH   2   8
BRANCH   3  16
ATOM     16  S   UNL d   1      53.172  34.200  53.747  0.00  0.00    -0.076 SA
ATOM     17  C   UNL d   1      53.053  34.996  53.934  0.00  0.00     0.077 C 
ENDBRANCH   3  16
TORSDOF 3
ENDMDL
MODEL 4
REMARK VINA RESULT:      -6.7      1.538      3.437
REMARK  3 active torsions:
REMARK  status: ('A' for Active; 'I' for Inactive)
REMARK       I    between atoms: C_2  and  N_1 
REMARK    1  A    between atoms: C_5  and  C_2 
REMARK    2  A    between atoms: S_8  and  C_3 
REMARK    3  A    between atoms: O_13  and  C_11 
ROOT
ATOM      1  N   UNL d   1      51.937  33.349  53.318  0.00  0.00    -0.251 N 
ATOM      2  C   UNL d   1      52.603  33.822  53.393  0.00  0.00     0.266 C 
ATOM      3  C   UNL d   1      51.186  33.596  53.086  0.00  0.00     0.178 A 
ATOM      4  N   UNL d   1      50.697  32.942  53.088  0.00  0.00    -0.219 NA
ATOM      5  O   UNL d   1      52.560  34.628  53.230  0.00  0.00    -0.267 OA
ATOM      6  C   UNL d   1      51.907  32.534  53.464  0.00  0.00     0.106 A 
ATOM      7  C   UNL d   1      51.133  32.286  53.319  0.00  0.00     0.120 A 
ENDROOT
BRANCH   2   8
ATOM      8  C   UNL d   1      53.321  33.491  53.632  0.00  0.00     0.059 A 
ATOM      9  C   UNL d   1      53.574  33.592  54.410  0.00  0.00     0.029 A 
ATOM     10  C   UNL d   1      54.280  33.264  54.637  0.00  0.00     0.094 A 
ATOM     11  C   UNL d   1      54.743  32.833  54.095  0.00  0.00     0.024 A 
ATOM     12  C   UNL d   1      54.494  32.736  53.337  0.00  0.00     0.002 A 
ATOM     13  C   UNL d   1      53.774  33.067  53.094  0.00  0.00     0.005 A 
BRANCH  10  14
ATOM     14  O   UNL d   1      54.541  33.360  55.414  0.00  0.00    -0.328 OA
ATOM     15  C   UNL d   1      55.209  33.809  55.578  0.00  0.00     0.181 C 
ENDBRANCH  10  14
ENDBRANCH   2   8
BRANCH   3  16
ATOM     16  S   UNL d   1      50.979  34.363  52.890  0.00  0.00    -0.076 SA
ATOM     17  C   UNL d   1      50.204  34.545  52.671  0.00  0.00     0.077 C 
ENDBRANCH   3  16
TORSDOF 3
ENDMDL
