MODEL 1
REMARK VINA RESULT:      47.3      0.000      0.000
REMARK  4 active torsions:
REMARK  status: ('A' for Active; 'I' for Inactive)
REMARK    1  A    between atoms: C_6  and  N_1 
REMARK    2  A    between atoms: C_12  and  C_6 
REMARK    3  A    between atoms: O_18  and  C_7 
REMARK    4  A    between atoms: O_19  and  C_10 
ROOT
ATOM      1  N   UNL d   1     -54.963-100.307 -43.930  0.00  0.00    -0.251 N 
ATOM      2  C   UNL d   1     -54.834-100.314 -43.105  0.00  0.00     0.378 A 
ATOM      3  C   UNL d   1     -54.929-101.089 -44.199  0.00  0.00     0.092 A 
ATOM      4  O   UNL d   1     -54.721-101.100 -42.869  0.00  0.00    -0.258 OA
ATOM      5  C   UNL d   1     -54.779-101.578 -43.544  0.00  0.00     0.121 A 
ATOM      6  O   UNL d   1     -54.822 -99.651 -42.617  0.00  0.00    -0.237 OA
ATOM      7  C   UNL d   1     -55.015-101.410 -44.951  0.00  0.00     0.020 A 
ATOM      8  C   UNL d   1     -54.718-102.396 -43.657  0.00  0.00     0.026 A 
ATOM      9  C   UNL d   1     -54.951-102.226 -45.051  0.00  0.00     0.002 A 
ATOM     10  C   UNL d   1     -54.803-102.717 -44.407  0.00  0.00     0.002 A 
ATOM     11  C   UNL d   1     -55.039-102.545 -45.811  0.00  0.00     0.000 C 
ENDROOT
BRANCH   1  12
ATOM     12  C   UNL d   1     -55.103 -99.662 -44.426  0.00  0.00     0.085 C 
BRANCH  12  13
ATOM     13  C   UNL d   1     -55.879 -99.435 -44.594  0.00  0.00     0.020 A 
ATOM     14  C   UNL d   1     -56.411 -99.334 -43.983  0.00  0.00     0.028 A 
ATOM     15  C   UNL d   1     -57.183 -99.109 -44.139  0.00  0.00     0.116 A 
ATOM     16  C   UNL d   1     -57.419 -98.984 -44.923  0.00  0.00     0.116 A 
ATOM     17  C   UNL d   1     -56.883 -99.085 -45.537  0.00  0.00     0.026 A 
ATOM     18  C   UNL d   1     -56.107 -99.312 -45.369  0.00  0.00     0.004 A 
BRANCH  15  19
ATOM     19  O   UNL d   1     -57.718 -99.007 -43.530  0.00  0.00    -0.326 OA
ATOM     20  C   UNL d   1     -58.447 -98.910 -43.902  0.00  0.00     0.181 C 
ENDBRANCH  15  19
BRANCH  16  21
ATOM     21  O   UNL d   1     -58.194 -98.757 -45.086  0.00  0.00    -0.326 OA
ATOM     22  C   UNL d   1     -58.658 -99.220 -45.574  0.00  0.00     0.181 C 
ENDBRANCH  16  21
ENDBRANCH  12  13
ENDBRANCH   1  12
TORSDOF 4
ENDMDL
