MODEL 1
REMARK VINA RESULT:      -1.7      0.000      0.000
REMARK  6 active torsions:
REMARK  status: ('A' for Active; 'I' for Inactive)
REMARK    1  A    between atoms: C_4  and  N_1 
REMARK    2  A    between atoms: C_7  and  C_3 
REMARK    3  A    between atoms: N_13  and  C_4 
REMARK    4  A    between atoms: C_16  and  N_13 
REMARK    5  A    between atoms: C_20  and  C_16 
REMARK    6  A    between atoms: C_17  and  C_20 
ROOT
ATOM      1  N   UNL d   1      32.824  21.503 -20.300  0.00  0.00    -0.281 N 
ATOM      2  C   UNL d   1      32.949  22.684 -19.527  0.00  0.00     0.080 A 
ATOM      3  C   UNL d   1      32.802  22.320 -20.246  0.00  0.00     0.084 A 
ATOM      4  N   UNL d   1      33.116  22.231 -18.862  0.00  0.00    -0.301 N 
ATOM      5  C   UNL d   1      32.993  21.046 -19.630  0.00  0.00     0.101 A 
ATOM      6  C   UNL d   1      32.965  23.479 -19.306  0.00  0.00     0.021 A 
ATOM      7  C   UNL d   1      33.238  22.742 -18.225  0.00  0.00     0.080 A 
ATOM      8  C   UNL d   1      33.139  21.418 -18.912  0.00  0.00     0.100 A 
ATOM      9  C   UNL d   1      33.146  23.515 -18.495  0.00  0.00     0.021 A 
ENDROOT
BRANCH   1  10
ATOM     10  C   UNL d   1      32.678  21.126 -21.021  0.00  0.00     0.184 C 
ATOM     11  S   UNL d   1      31.980  21.281 -21.419  0.00  0.00    -0.040 SA
BRANCH  10  12
ATOM     12  N   UNL d   1      33.224  20.602 -21.335  0.00  0.00    -0.330 N 
ATOM     13  H   UNL d   1      34.030  20.774 -21.294  0.00  0.00     0.168 HD
BRANCH  12  14
ATOM     14  C   UNL d   1      32.971  19.906 -21.690  0.00  0.00     0.074 C 
BRANCH  14  15
ATOM     15  C   UNL d   1      32.982  19.832 -22.482  0.00  0.00     0.018 C 
BRANCH  15  16
ATOM     16  C   UNL d   1      33.007  19.123 -22.908  0.00  0.00     0.002 A 
ATOM     17  C   UNL d   1      32.902  19.137 -23.734  0.00  0.00     0.000 A 
ATOM     18  C   UNL d   1      32.925  18.432 -24.162  0.00  0.00     0.000 A 
ATOM     19  C   UNL d   1      33.053  17.713 -23.771  0.00  0.00     0.000 A 
ATOM     20  C   UNL d   1      33.158  17.697 -22.945  0.00  0.00     0.000 A 
ATOM     21  C   UNL d   1      33.133  18.409 -22.521  0.00  0.00     0.000 A 
ENDBRANCH  15  16
ENDBRANCH  14  15
ENDBRANCH  12  14
ENDBRANCH  10  12
ENDBRANCH   1  10
BRANCH   3  22
ATOM     22  C   UNL d   1      32.634  22.772 -20.915  0.00  0.00     0.037 A 
ATOM     23  C   UNL d   1      33.240  22.993 -21.427  0.00  0.00     0.100 A 
ATOM     24  N   UNL d   1      33.064  23.444 -22.092  0.00  0.00    -0.242 NA
ATOM     25  C   UNL d   1      32.304  23.674 -22.251  0.00  0.00     0.099 A 
ATOM     26  C   UNL d   1      31.690  23.454 -21.739  0.00  0.00     0.021 A 
ATOM     27  C   UNL d   1      31.859  23.002 -21.071  0.00  0.00     0.005 A 
ENDBRANCH   3  22
TORSDOF 6
ENDMDL
MODEL 2
REMARK VINA RESULT:      -0.7      4.720      6.774
REMARK  6 active torsions:
REMARK  status: ('A' for Active; 'I' for Inactive)
REMARK    1  A    between atoms: C_4  and  N_1 
REMARK    2  A    between atoms: C_7  and  C_3 
REMARK    3  A    between atoms: N_13  and  C_4 
REMARK    4  A    between atoms: C_16  and  N_13 
REMARK    5  A    between atoms: C_20  and  C_16 
REMARK    6  A    between atoms: C_17  and  C_20 
ROOT
ATOM      1  N   UNL d   1      31.277  16.961 -24.594  0.00  0.00    -0.281 N 
ATOM      2  C   UNL d   1      32.238  17.922 -24.191  0.00  0.00     0.080 A 
ATOM      3  C   UNL d   1      31.944  17.158 -24.160  0.00  0.00     0.084 A 
ATOM      4  N   UNL d   1      31.866  18.489 -24.656  0.00  0.00    -0.301 N 
ATOM      5  C   UNL d   1      30.902  17.532 -25.062  0.00  0.00     0.101 A 
ATOM      6  C   UNL d   1      32.886  18.279 -23.824  0.00  0.00     0.021 A 
ATOM      7  C   UNL d   1      32.280  19.199 -24.580  0.00  0.00     0.080 A 
ATOM      8  C   UNL d   1      31.203  18.296 -25.088  0.00  0.00     0.100 A 
ATOM      9  C   UNL d   1      32.912  19.073 -24.065  0.00  0.00     0.021 A 
ENDROOT
BRANCH   1  10
ATOM     10  C   UNL d   1      30.973  16.193 -24.569  0.00  0.00     0.184 C 
ATOM     11  S   UNL d   1      31.288  15.621 -25.062  0.00  0.00    -0.040 SA
BRANCH  10  12
ATOM     12  N   UNL d   1      30.362  16.004 -24.056  0.00  0.00    -0.330 N 
ATOM     13  H   UNL d   1      30.530  15.701 -23.307  0.00  0.00     0.168 HD
BRANCH  12  14
ATOM     14  C   UNL d   1      29.582  16.117 -24.287  0.00  0.00     0.074 C 
BRANCH  14  15
ATOM     15  C   UNL d   1      29.027  15.578 -24.100  0.00  0.00     0.018 C 
BRANCH  15  16
ATOM     16  C   UNL d   1      28.282  15.734 -23.774  0.00  0.00     0.002 A 
ATOM     17  C   UNL d   1      28.227  16.180 -23.073  0.00  0.00     0.000 A 
ATOM     18  C   UNL d   1      27.486  16.337 -22.745  0.00  0.00     0.000 A 
ATOM     19  C   UNL d   1      26.800  16.053 -23.113  0.00  0.00     0.000 A 
ATOM     20  C   UNL d   1      26.854  15.607 -23.814  0.00  0.00     0.000 A 
ATOM     21  C   UNL d   1      27.601  15.453 -24.138  0.00  0.00     0.000 A 
ENDBRANCH  15  16
ENDBRANCH  14  15
ENDBRANCH  12  14
ENDBRANCH  10  12
ENDBRANCH   1  10
BRANCH   3  22
ATOM     22  C   UNL d   1      32.315  16.588 -23.694  0.00  0.00     0.037 A 
ATOM     23  C   UNL d   1      32.133  16.526 -22.893  0.00  0.00     0.100 A 
ATOM     24  N   UNL d   1      32.507  15.955 -22.436  0.00  0.00    -0.242 NA
ATOM     25  C   UNL d   1      33.053  15.453 -22.760  0.00  0.00     0.099 A 
ATOM     26  C   UNL d   1      33.241  15.510 -23.564  0.00  0.00     0.021 A 
ATOM     27  C   UNL d   1      32.869  16.080 -24.030  0.00  0.00     0.005 A 
ENDBRANCH   3  22
TORSDOF 6
ENDMDL
