MODEL 1
REMARK VINA RESULT:      28.9      0.000      0.000
REMARK  3 active torsions:
REMARK  status: ('A' for Active; 'I' for Inactive)
REMARK    1  A    between atoms: C_5  and  C_1 
REMARK    2  A    between atoms: C_4  and  C_6 
REMARK    3  A    between atoms: C_6  and  C_5 
ROOT
ATOM      1  C   UNL d   1      59.156  49.608  51.314  0.00  0.00     0.068 C 
ENDROOT
BRANCH   1   2
ATOM      2  C   UNL d   1      58.480  49.598  50.834  0.00  0.00     0.114 A 
ATOM      3  N   UNL d   1      58.467  49.694  50.013  0.00  0.00    -0.238 NA
ATOM      4  C   UNL d   1      57.679  49.645  49.767  0.00  0.00     0.088 A 
ATOM      5  C   UNL d   1      57.332  49.699  49.020  0.00  0.00     0.020 A 
ATOM      6  C   UNL d   1      57.205  49.519  50.431  0.00  0.00     0.049 A 
ATOM      7  C   UNL d   1      56.513  49.627  48.938  0.00  0.00     0.002 A 
ATOM      8  C   UNL d   1      56.048  49.502  49.607  0.00  0.00     0.001 A 
ATOM      9  C   UNL d   1      56.394  49.448  50.349  0.00  0.00     0.008 A 
ATOM     10  S   UNL d   1      57.706  49.491  51.094  0.00  0.00    -0.066 SA
ENDBRANCH   1   2
BRANCH   1  11
ATOM     11  C   UNL d   1      59.906  49.662  50.964  0.00  0.00     0.201 C 
ATOM     12  O   UNL d   1      59.984  49.705  50.141  0.00  0.00    -0.286 OA
BRANCH  11  13
ATOM     13  C   UNL d   1      60.585  49.673  51.445  0.00  0.00     0.078 A 
ATOM     14  C   UNL d   1      61.343  49.675  51.094  0.00  0.00     0.202 A 
ATOM     15  C   UNL d   1      62.018  49.686  51.568  0.00  0.00     0.084 A 
ATOM     16  O   UNL d   1      61.418  49.667  50.272  0.00  0.00    -0.286 OA
ATOM     17  C   UNL d   1      61.935  49.694  52.393  0.00  0.00     0.199 A 
ATOM     18  C   UNL d   1      61.185  49.692  52.740  0.00  0.00     0.042 A 
ATOM     19  O   UNL d   1      62.610  49.705  52.867  0.00  0.00    -0.286 OA
ATOM     20  C   UNL d   1      60.509  49.681  52.267  0.00  0.00     0.010 A 
ENDBRANCH  11  13
ENDBRANCH   1  11
TORSDOF 3
ENDMDL
