MODEL 1
REMARK VINA RESULT:      -5.2      0.000      0.000
REMARK  2 active torsions:
REMARK  status: ('A' for Active; 'I' for Inactive)
REMARK    1  A    between atoms: C_6  and  N_1 
REMARK    2  A    between atoms: C_11  and  C_6 
ROOT
ATOM      1  N   UNL d   1      57.752   0.677  31.669  0.00  0.00    -0.251 N 
ATOM      2  C   UNL d   1      58.365   0.677  32.231  0.00  0.00     0.378 A 
ATOM      3  C   UNL d   1      58.102   0.674  30.919  0.00  0.00     0.092 A 
ATOM      4  O   UNL d   1      59.090   0.673  31.833  0.00  0.00    -0.258 OA
ATOM      5  C   UNL d   1      58.929   0.672  31.014  0.00  0.00     0.121 A 
ATOM      6  O   UNL d   1      58.258   0.679  33.047  0.00  0.00    -0.237 OA
ATOM      7  C   UNL d   1      57.776   0.674  30.161  0.00  0.00     0.020 A 
ATOM      8  C   UNL d   1      59.419   0.669  30.352  0.00  0.00     0.026 A 
ATOM      9  C   UNL d   1      58.275   0.670  29.503  0.00  0.00     0.002 A 
ATOM     10  C   UNL d   1      59.093   0.668  29.598  0.00  0.00     0.002 A 
ATOM     11  C   UNL d   1      57.941   0.670  28.741  0.00  0.00     0.000 C 
ENDROOT
BRANCH   1  12
ATOM     12  C   UNL d   1      56.935   0.680  31.788  0.00  0.00     0.085 C 
BRANCH  12  13
ATOM     13  C   UNL d   1      56.580   0.068  32.207  0.00  0.00     0.018 A 
ATOM     14  C   UNL d   1      56.622  -0.701  31.922  0.00  0.00     0.002 A 
ATOM     15  C   UNL d   1      56.263  -1.312  32.349  0.00  0.00     0.000 A 
ATOM     16  C   UNL d   1      55.867  -1.147  33.054  0.00  0.00     0.000 A 
ATOM     17  C   UNL d   1      55.829  -0.374  33.334  0.00  0.00     0.000 A 
ATOM     18  C   UNL d   1      56.186   0.237  32.911  0.00  0.00     0.002 A 
ENDBRANCH  12  13
ENDBRANCH   1  12
TORSDOF 2
ENDMDL
MODEL 2
REMARK VINA RESULT:      -4.6      1.529      2.148
REMARK  2 active torsions:
REMARK  status: ('A' for Active; 'I' for Inactive)
REMARK    1  A    between atoms: C_6  and  N_1 
REMARK    2  A    between atoms: C_11  and  C_6 
ROOT
ATOM      1  N   UNL d   1      56.402  -0.295  32.083  0.00  0.00    -0.251 N 
ATOM      2  C   UNL d   1      56.202  -1.079  32.271  0.00  0.00     0.378 A 
ATOM      3  C   UNL d   1      56.988  -0.322  31.497  0.00  0.00     0.092 A 
ATOM      4  O   UNL d   1      56.657  -1.590  31.808  0.00  0.00    -0.258 OA
ATOM      5  C   UNL d   1      57.149  -1.120  31.324  0.00  0.00     0.121 A 
ATOM      6  O   UNL d   1      55.639  -1.302  32.830  0.00  0.00    -0.237 OA
ATOM      7  C   UNL d   1      57.394   0.275  31.100  0.00  0.00     0.020 A 
ATOM      8  C   UNL d   1      57.715  -1.311  30.755  0.00  0.00     0.026 A 
ATOM      9  C   UNL d   1      57.959   0.075  30.532  0.00  0.00     0.002 A 
ATOM     10  C   UNL d   1      58.119  -0.714  30.360  0.00  0.00     0.002 A 
ATOM     11  C   UNL d   1      58.367   0.682  30.134  0.00  0.00     0.000 C 
ENDROOT
BRANCH   1  12
ATOM     12  C   UNL d   1      56.103   0.410  32.392  0.00  0.00     0.085 C 
BRANCH  12  13
ATOM     13  C   UNL d   1      56.031   0.500  33.206  0.00  0.00     0.018 A 
ATOM     14  C   UNL d   1      56.703   0.591  33.669  0.00  0.00     0.002 A 
ATOM     15  C   UNL d   1      56.623   0.682  34.488  0.00  0.00     0.000 A 
ATOM     16  C   UNL d   1      55.872   0.681  34.833  0.00  0.00     0.000 A 
ATOM     17  C   UNL d   1      55.203   0.590  34.362  0.00  0.00     0.000 A 
ATOM     18  C   UNL d   1      55.280   0.499  33.547  0.00  0.00     0.002 A 
ENDBRANCH  12  13
ENDBRANCH   1  12
TORSDOF 2
ENDMDL
MODEL 3
REMARK VINA RESULT:      -4.6      1.347      3.644
REMARK  2 active torsions:
REMARK  status: ('A' for Active; 'I' for Inactive)
REMARK    1  A    between atoms: C_6  and  N_1 
REMARK    2  A    between atoms: C_11  and  C_6 
ROOT
ATOM      1  N   UNL d   1      56.757   0.665  33.013  0.00  0.00    -0.251 N 
ATOM      2  C   UNL d   1      57.488   0.676  33.409  0.00  0.00     0.378 A 
ATOM      3  C   UNL d   1      56.162   0.664  33.589  0.00  0.00     0.092 A 
ATOM      4  O   UNL d   1      57.348   0.682  34.224  0.00  0.00    -0.258 OA
ATOM      5  C   UNL d   1      56.522   0.674  34.339  0.00  0.00     0.121 A 
ATOM      6  O   UNL d   1      58.224   0.680  33.042  0.00  0.00    -0.237 OA
ATOM      7  C   UNL d   1      55.339   0.656  33.528  0.00  0.00     0.020 A 
ATOM      8  C   UNL d   1      56.055   0.676  35.019  0.00  0.00     0.026 A 
ATOM      9  C   UNL d   1      54.880   0.657  34.214  0.00  0.00     0.002 A 
ATOM     10  C   UNL d   1      55.236   0.667  34.956  0.00  0.00     0.002 A 
ATOM     11  C   UNL d   1      54.050   0.648  34.147  0.00  0.00     0.000 C 
ENDROOT
BRANCH   1  12
ATOM     12  C   UNL d   1      56.603   0.657  32.201  0.00  0.00     0.085 C 
BRANCH  12  13
ATOM     13  C   UNL d   1      56.911   0.056  31.733  0.00  0.00     0.018 A 
ATOM     14  C   UNL d   1      56.655  -0.717  31.837  0.00  0.00     0.002 A 
ATOM     15  C   UNL d   1      56.969  -1.317  31.362  0.00  0.00     0.000 A 
ATOM     16  C   UNL d   1      57.535  -1.136  30.789  0.00  0.00     0.000 A 
ATOM     17  C   UNL d   1      57.788  -0.359  30.690  0.00  0.00     0.000 A 
ATOM     18  C   UNL d   1      57.476   0.240  31.162  0.00  0.00     0.002 A 
ENDBRANCH  12  13
ENDBRANCH   1  12
TORSDOF 2
ENDMDL
MODEL 4
REMARK VINA RESULT:      -3.8      1.320      3.701
REMARK  2 active torsions:
REMARK  status: ('A' for Active; 'I' for Inactive)
REMARK    1  A    between atoms: C_6  and  N_1 
REMARK    2  A    between atoms: C_11  and  C_6 
ROOT
ATOM      1  N   UNL d   1      58.072  -0.009  30.573  0.00  0.00    -0.251 N 
ATOM      2  C   UNL d   1      58.042  -0.718  30.138  0.00  0.00     0.378 A 
ATOM      3  C   UNL d   1      57.579  -0.101  31.232  0.00  0.00     0.092 A 
ATOM      4  O   UNL d   1      57.536  -1.245  30.524  0.00  0.00    -0.258 OA
ATOM      5  C   UNL d   1      57.245  -0.863  31.207  0.00  0.00     0.121 A 
ATOM      6  O   UNL d   1      58.452  -0.861  29.440  0.00  0.00    -0.237 OA
ATOM      7  C   UNL d   1      57.391   0.409  31.852  0.00  0.00     0.020 A 
ATOM      8  C   UNL d   1      56.728  -1.105  31.802  0.00  0.00     0.026 A 
ATOM      9  C   UNL d   1      56.872   0.158  32.443  0.00  0.00     0.002 A 
ATOM     10  C   UNL d   1      56.542  -0.596  32.418  0.00  0.00     0.002 A 
ATOM     11  C   UNL d   1      56.686   0.678  33.067  0.00  0.00     0.000 C 
ENDROOT
BRANCH   1  12
ATOM     12  C   UNL d   1      58.496   0.682  30.417  0.00  0.00     0.085 C 
BRANCH  12  13
ATOM     13  C   UNL d   1      59.310   0.646  30.307  0.00  0.00     0.018 A 
ATOM     14  C   UNL d   1      59.621   0.650  29.548  0.00  0.00     0.002 A 
ATOM     15  C   UNL d   1      60.442   0.614  29.444  0.00  0.00     0.000 A 
ATOM     16  C   UNL d   1      60.939   0.573  30.102  0.00  0.00     0.000 A 
ATOM     17  C   UNL d   1      60.620   0.569  30.860  0.00  0.00     0.000 A 
ATOM     18  C   UNL d   1      59.804   0.605  30.966  0.00  0.00     0.002 A 
ENDBRANCH  12  13
ENDBRANCH   1  12
TORSDOF 2
ENDMDL
MODEL 5
REMARK VINA RESULT:      -3.5      2.185      3.670
REMARK  2 active torsions:
REMARK  status: ('A' for Active; 'I' for Inactive)
REMARK    1  A    between atoms: C_6  and  N_1 
REMARK    2  A    between atoms: C_11  and  C_6 
ROOT
ATOM      1  N   UNL d   1      58.647  -0.369  29.638  0.00  0.00    -0.251 N 
ATOM      2  C   UNL d   1      59.255   0.195  29.577  0.00  0.00     0.378 A 
ATOM      3  C   UNL d   1      58.248  -0.229  30.350  0.00  0.00     0.092 A 
ATOM      4  O   UNL d   1      59.234   0.682  30.245  0.00  0.00    -0.258 OA
ATOM      5  C   UNL d   1      58.607   0.420  30.729  0.00  0.00     0.121 A 
ATOM      6  O   UNL d   1      59.785   0.253  28.951  0.00  0.00    -0.237 OA
ATOM      7  C   UNL d   1      57.606  -0.607  30.703  0.00  0.00     0.020 A 
ATOM      8  C   UNL d   1      58.318   0.682  31.456  0.00  0.00     0.026 A 
ATOM      9  C   UNL d   1      57.324  -0.337  31.431  0.00  0.00     0.002 A 
ATOM     10  C   UNL d   1      57.678   0.304  31.805  0.00  0.00     0.002 A 
ATOM     11  C   UNL d   1      56.675  -0.723  31.782  0.00  0.00     0.000 C 
ENDROOT
BRANCH   1  12
ATOM     12  C   UNL d   1      58.442  -0.974  29.115  0.00  0.00     0.085 C 
BRANCH  12  13
ATOM     13  C   UNL d   1      58.908  -1.649  29.067  0.00  0.00     0.018 A 
ATOM     14  C   UNL d   1      59.693  -1.589  28.836  0.00  0.00     0.002 A 
ATOM     15  C   UNL d   1      60.157  -2.273  28.790  0.00  0.00     0.000 A 
ATOM     16  C   UNL d   1      59.829  -3.007  28.975  0.00  0.00     0.000 A 
ATOM     17  C   UNL d   1      59.041  -3.060  29.206  0.00  0.00     0.000 A 
ATOM     18  C   UNL d   1      58.577  -2.381  29.253  0.00  0.00     0.002 A 
ENDBRANCH  12  13
ENDBRANCH   1  12
TORSDOF 2
ENDMDL
MODEL 6
REMARK VINA RESULT:      -3.5      9.471     10.159
REMARK  2 active torsions:
REMARK  status: ('A' for Active; 'I' for Inactive)
REMARK    1  A    between atoms: C_6  and  N_1 
REMARK    2  A    between atoms: C_11  and  C_6 
ROOT
ATOM      1  N   UNL d   1      59.443  -9.435  34.556  0.00  0.00    -0.251 N 
ATOM      2  C   UNL d   1      58.625  -9.571  34.619  0.00  0.00     0.378 A 
ATOM      3  C   UNL d   1      59.647  -9.518  33.757  0.00  0.00     0.092 A 
ATOM      4  O   UNL d   1      58.324  -9.737  33.868  0.00  0.00    -0.258 OA
ATOM      5  C   UNL d   1      58.959  -9.704  33.328  0.00  0.00     0.121 A 
ATOM      6  O   UNL d   1      58.195  -9.544  35.321  0.00  0.00    -0.237 OA
ATOM      7  C   UNL d   1      60.369  -9.447  33.365  0.00  0.00     0.020 A 
ATOM      8  C   UNL d   1      59.001  -9.818  32.512  0.00  0.00     0.026 A 
ATOM      9  C   UNL d   1      60.402  -9.563  32.548  0.00  0.00     0.002 A 
ATOM     10  C   UNL d   1      59.721  -9.748  32.123  0.00  0.00     0.002 A 
ATOM     11  C   UNL d   1      61.133  -9.491  32.157  0.00  0.00     0.000 C 
ENDROOT
BRANCH   1  12
ATOM     12  C   UNL d   1      59.990  -9.250  35.146  0.00  0.00     0.085 C 
BRANCH  12  13
ATOM     13  C   UNL d   1      59.980  -8.505  35.493  0.00  0.00     0.018 A 
ATOM     14  C   UNL d   1      59.334  -8.272  35.944  0.00  0.00     0.002 A 
ATOM     15  C   UNL d   1      59.330  -7.521  36.291  0.00  0.00     0.000 A 
ATOM     16  C   UNL d   1      59.972  -7.013  36.183  0.00  0.00     0.000 A 
ATOM     17  C   UNL d   1      60.616  -7.253  35.730  0.00  0.00     0.000 A 
ATOM     18  C   UNL d   1      60.623  -8.000  35.383  0.00  0.00     0.002 A 
ENDBRANCH  12  13
ENDBRANCH   1  12
TORSDOF 2
ENDMDL
