MODEL 1
REMARK VINA RESULT:      65.7      0.000      0.000
REMARK  4 active torsions:
REMARK  status: ('A' for Active; 'I' for Inactive)
REMARK    1  A    between atoms: C_16  and  N_3 
REMARK    2  A    between atoms: S_12  and  C_6 
REMARK    3  A    between atoms: C_10  and  C_14 
REMARK       I    between atoms: N_11  and  C_10 
REMARK    4  A    between atoms: C_14  and  S_12 
ROOT
ATOM      1  C   UNL d   1     -47.357  31.433  35.140  0.00  0.00     0.155 A 
ATOM      2  C   UNL d   1     -47.977  31.371  34.590  0.00  0.00     0.107 A 
ATOM      3  N   UNL d   1     -47.587  30.094  35.554  0.00  0.00    -0.252 N 
ATOM      4  C   UNL d   1     -47.169  30.800  35.614  0.00  0.00     0.285 A 
ATOM      5  N   UNL d   1     -48.395  30.664  34.530  0.00  0.00    -0.220 NA
ATOM      6  C   UNL d   1     -48.200  30.026  35.012  0.00  0.00     0.182 A 
ATOM      7  N   UNL d   1     -47.047  32.192  35.074  0.00  0.00    -0.239 NA
ATOM      8  C   UNL d   1     -48.038  32.085  34.198  0.00  0.00     0.037 A 
ATOM      9  C   UNL d   1     -47.466  32.595  34.493  0.00  0.00     0.083 A 
ATOM     10  O   UNL d   1     -46.549  30.869  36.161  0.00  0.00    -0.265 OA
ATOM     11  C   UNL d   1     -48.546  32.336  33.604  0.00  0.00     0.003 A 
ATOM     12  C   UNL d   1     -47.403  33.356  34.194  0.00  0.00     0.019 A 
ATOM     13  C   UNL d   1     -48.483  33.097  33.306  0.00  0.00     0.000 A 
ATOM     14  C   UNL d   1     -47.906  33.605  33.607  0.00  0.00     0.002 A 
ENDROOT
BRANCH   6  15
ATOM     15  S   UNL d   1     -50.276  29.471  33.330  0.00  0.00    -0.044 SA
BRANCH  15  16
ATOM     16  C   UNL d   1     -50.660  28.624  33.323  0.00  0.00     0.099 C 
BRANCH  16  17
ATOM     17  C   UNL d   1     -50.113  27.871  33.317  0.00  0.00     0.272 C 
ATOM     18  N   UNL d   1     -50.484  27.026  33.315  0.00  0.00    -0.267 N 
ATOM     19  C   UNL d   1     -49.952  26.292  33.309  0.00  0.00     0.110 A 
ATOM     20  C   UNL d   1     -51.398  26.942  33.319  0.00  0.00     0.110 A 
ATOM     21  C   UNL d   1     -50.322  25.439  33.306  0.00  0.00     0.142 A 
ATOM     22  O   UNL d   1     -51.234  25.342  33.310  0.00  0.00    -0.300 OA
ATOM     23  C   UNL d   1     -51.781  26.096  33.316  0.00  0.00     0.142 A 
ATOM     24  O   UNL d   1     -49.195  27.960  33.313  0.00  0.00    -0.266 OA
ENDBRANCH  16  17
ENDBRANCH  15  16
ENDBRANCH   6  15
BRANCH   3  25
ATOM     25  C   UNL d   1     -47.366  29.373  36.099  0.00  0.00     0.085 C 
ATOM     26  C   UNL d   1     -47.632  28.520  35.865  0.00  0.00     0.021 C 
ENDBRANCH   3  25
TORSDOF 4
ENDMDL
