MODEL 1
REMARK VINA RESULT:      35.2      0.000      0.000
REMARK  3 active torsions:
REMARK  status: ('A' for Active; 'I' for Inactive)
REMARK    1  A    between atoms: C_3  and  C_1 
REMARK    2  A    between atoms: C_5  and  C_3 
REMARK    3  A    between atoms: C_10  and  C_5 
ROOT
ATOM      1  C   UNL d   1      59.339  49.669  51.008  0.00  0.00     0.109 C 
ATOM      2  C   UNL d   1      59.356  49.648  51.832  0.00  0.00     0.105 C 
ATOM      3  N   UNL d   1      59.367  49.627  52.654  0.00  0.00    -0.191 NA
ENDROOT
BRANCH   1   4
ATOM      4  C   UNL d   1      58.613  49.677  50.614  0.00  0.00     0.192 A 
ATOM      5  N   UNL d   1      58.506  49.690  49.787  0.00  0.00    -0.220 NA
ATOM      6  C   UNL d   1      57.698  49.694  49.638  0.00  0.00     0.106 A 
ATOM      7  C   UNL d   1      57.268  49.706  48.927  0.00  0.00     0.021 A 
ATOM      8  C   UNL d   1      57.300  49.684  50.361  0.00  0.00     0.119 A 
ATOM      9  C   UNL d   1      56.441  49.708  48.948  0.00  0.00     0.002 A 
ATOM     10  C   UNL d   1      56.040  49.697  49.669  0.00  0.00     0.002 A 
ATOM     11  C   UNL d   1      56.462  49.685  50.376  0.00  0.00     0.026 A 
ATOM     12  O   UNL d   1      57.867  49.673  50.962  0.00  0.00    -0.287 OA
ENDBRANCH   1   4
BRANCH   1  13
ATOM     13  C   UNL d   1      60.038  49.682  50.581  0.00  0.00     0.014 C 
BRANCH  13  14
ATOM     14  C   UNL d   1      60.684  49.238  50.839  0.00  0.00     0.004 A 
ATOM     15  C   UNL d   1      60.832  48.500  50.507  0.00  0.00     0.042 A 
ATOM     16  C   UNL d   1      61.479  48.059  50.767  0.00  0.00     0.196 A 
ATOM     17  O   UNL d   1      61.633  47.316  50.437  0.00  0.00    -0.287 OA
ATOM     18  C   UNL d   1      61.976  48.351  51.355  0.00  0.00     0.042 A 
ATOM     19  C   UNL d   1      61.820  49.099  51.686  0.00  0.00     0.003 A 
ATOM     20  C   UNL d   1      61.174  49.543  51.429  0.00  0.00     0.000 A 
ENDBRANCH  13  14
ENDBRANCH   1  13
TORSDOF 3
ENDMDL
