MODEL 1
REMARK VINA RESULT:     103.7      0.000      0.000
REMARK  11 active torsions:
REMARK  status: ('A' for Active; 'I' for Inactive)
REMARK    1  A    between atoms: C_14  and  C_3 
REMARK    2  A    between atoms: N_15  and  C_6 
REMARK    3  A    between atoms: N_12  and  C_19 
REMARK    4  A    between atoms: N_13  and  C_20 
REMARK    5  A    between atoms: N_16  and  C_14 
REMARK    6  A    between atoms: C_28  and  N_15 
REMARK    7  A    between atoms: C_23  and  N_16 
REMARK    8  A    between atoms: C_19  and  C_21 
REMARK    9  A    between atoms: C_20  and  C_22 
REMARK   10  A    between atoms: C_21  and  C_23 
REMARK   11  A    between atoms: C_22  and  C_28 
ROOT
ATOM      1  N   UNL d   1     -55.018-101.069 -42.836  0.00  0.00    -0.258 N 
ATOM      2  C   UNL d   1     -54.967-101.439 -43.582  0.00  0.00     0.270 A 
ATOM      3  C   UNL d   1     -55.091-101.013 -44.263  0.00  0.00     0.111 A 
ATOM      4  N   UNL d   1     -55.320 -99.842 -43.500  0.00  0.00    -0.209 NA
ATOM      5  C   UNL d   1     -55.196-100.265 -42.795  0.00  0.00     0.152 A 
ATOM      6  C   UNL d   1     -55.269-100.208 -44.222  0.00  0.00     0.170 A 
ATOM      7  C   UNL d   1     -54.895-101.496 -42.161  0.00  0.00     0.084 A 
ATOM      8  C   UNL d   1     -55.249 -99.899 -42.080  0.00  0.00     0.038 A 
ATOM      9  C   UNL d   1     -54.947-101.126 -41.421  0.00  0.00     0.018 A 
ATOM     10  C   UNL d   1     -55.125-100.321 -41.380  0.00  0.00     0.005 A 
ATOM     11  O   UNL d   1     -54.786-102.256 -43.623  0.00  0.00    -0.266 OA
ATOM     12  C   UNL d   1     -54.822-101.553 -40.727  0.00  0.00     0.002 C 
ENDROOT
BRANCH   3  13
ATOM     13  C   UNL d   1     -55.038-101.383 -44.997  0.00  0.00     0.107 C 
BRANCH  13  14
ATOM     14  N   UNL d   1     -54.755-102.169 -45.046  0.00  0.00    -0.242 NA
BRANCH  14  15
ATOM     15  C   UNL d   1     -55.089-102.692 -45.589  0.00  0.00     0.101 C 
BRANCH  15  16
ATOM     16  C   UNL d   1     -55.735-102.458 -46.035  0.00  0.00     0.040 C 
BRANCH  16  17
ATOM     17  C   UNL d   1     -55.807-102.697 -46.840  0.00  0.00     0.082 C 
BRANCH  17  18
ATOM     18  N   UNL d   1     -56.484-102.521 -47.266  0.00  0.00    -0.299 N 
ATOM     19  C   UNL d   1     -56.451-102.003 -47.893  0.00  0.00     0.107 A 
ATOM     20  C   UNL d   1     -57.143-101.824 -48.329  0.00  0.00     0.142 A 
ATOM     21  O   UNL d   1     -57.853-102.165 -48.127  0.00  0.00    -0.300 OA
ATOM     22  C   UNL d   1     -57.890-102.699 -47.480  0.00  0.00     0.142 A 
ATOM     23  C   UNL d   1     -57.208-102.876 -47.051  0.00  0.00     0.107 A 
ENDBRANCH  17  18
ENDBRANCH  16  17
ENDBRANCH  15  16
ENDBRANCH  14  15
ENDBRANCH  13  14
ENDBRANCH   3  13
BRANCH   6  24
ATOM     24  N   UNL d   1     -55.392 -99.786 -44.915  0.00  0.00    -0.225 NA
BRANCH  24  25
ATOM     25  C   UNL d   1     -55.679 -98.994 -44.873  0.00  0.00     0.102 C 
BRANCH  25  26
ATOM     26  C   UNL d   1     -56.486 -98.854 -44.919  0.00  0.00     0.040 C 
BRANCH  26  27
ATOM     27  C   UNL d   1     -56.961 -98.934 -44.227  0.00  0.00     0.082 C 
BRANCH  27  28
ATOM     28  N   UNL d   1     -57.785 -98.885 -44.303  0.00  0.00    -0.299 N 
ATOM     29  C   UNL d   1     -58.251 -98.917 -43.616  0.00  0.00     0.107 A 
ATOM     30  C   UNL d   1     -59.068 -98.872 -43.658  0.00  0.00     0.142 A 
ATOM     31  O   UNL d   1     -59.423 -98.794 -44.405  0.00  0.00    -0.300 OA
ATOM     32  C   UNL d   1     -58.960 -98.762 -45.087  0.00  0.00     0.142 A 
ATOM     33  C   UNL d   1     -58.143 -98.809 -45.023  0.00  0.00     0.107 A 
ENDBRANCH  27  28
ENDBRANCH  26  27
ENDBRANCH  25  26
ENDBRANCH  24  25
ENDBRANCH   6  24
TORSDOF 11
ENDMDL
