MODEL 1
REMARK VINA RESULT:      -2.3      0.000      0.000
REMARK  3 active torsions:
REMARK  status: ('A' for Active; 'I' for Inactive)
REMARK    1  A    between atoms: C_4  and  C_8 
REMARK    2  A    between atoms: N_13  and  C_7 
REMARK       I    between atoms: C_8  and  N_12 
REMARK    3  A    between atoms: N_12  and  N_13 
ROOT
ATOM      1  C   UNL d   1      32.961  22.065 -21.694  0.00  0.00     0.297 C 
ATOM      2  N   UNL d   1      33.152  21.259 -21.725  0.00  0.00    -0.104 NA
ATOM      3  O   UNL d   1      32.859  22.489 -22.400  0.00  0.00    -0.264 OA
ENDROOT
BRANCH   2   4
ATOM      4  N   UNL d   1      33.241  20.881 -22.449  0.00  0.00    -0.125 NA
BRANCH   4   5
ATOM      5  C   UNL d   1      33.239  20.057 -22.489  0.00  0.00     0.190 A 
ATOM      6  C   UNL d   1      33.238  19.684 -23.217  0.00  0.00     0.094 A 
ATOM      7  C   UNL d   1      33.236  18.860 -23.258  0.00  0.00     0.170 A 
ATOM      8  C   UNL d   1      33.238  19.985 -23.991  0.00  0.00     0.127 A 
ATOM      9  N   UNL d   1      33.235  18.646 -24.060  0.00  0.00    -0.209 N 
ATOM     10  N   UNL d   1      33.235  18.413 -22.569  0.00  0.00    -0.205 NA
ATOM     11  C   UNL d   1      33.233  17.869 -24.353  0.00  0.00     0.123 C 
ATOM     12  N   UNL d   1      33.237  19.339 -24.511  0.00  0.00    -0.162 NA
ATOM     13  C   UNL d   1      33.236  18.790 -21.839  0.00  0.00     0.202 A 
ATOM     14  N   UNL d   1      33.238  19.618 -21.799  0.00  0.00    -0.203 NA
ENDBRANCH   4   5
ENDBRANCH   2   4
BRANCH   1  15
ATOM     15  C   UNL d   1      32.871  22.446 -20.968  0.00  0.00     0.070 A 
ATOM     16  C   UNL d   1      32.442  23.143 -20.920  0.00  0.00     0.063 A 
ATOM     17  C   UNL d   1      32.351  23.525 -20.198  0.00  0.00     0.023 A 
ATOM     18 CL   UNL d   1      32.101  23.458 -21.607  0.00  0.00    -0.082 Cl
ATOM     19  C   UNL d   1      32.697  23.202 -19.512  0.00  0.00     0.059 A 
ATOM     20  C   UNL d   1      33.132  22.495 -19.563  0.00  0.00     0.012 A 
ATOM     21 CL   UNL d   1      32.607  23.584 -18.781  0.00  0.00    -0.082 Cl
ATOM     22  C   UNL d   1      33.217  22.121 -20.288  0.00  0.00     0.007 A 
ENDBRANCH   1  15
TORSDOF 3
ENDMDL
MODEL 2
REMARK VINA RESULT:      -2.0      2.528      4.898
REMARK  3 active torsions:
REMARK  status: ('A' for Active; 'I' for Inactive)
REMARK    1  A    between atoms: C_4  and  C_8 
REMARK    2  A    between atoms: N_13  and  C_7 
REMARK       I    between atoms: C_8  and  N_12 
REMARK    3  A    between atoms: N_12  and  N_13 
ROOT
ATOM      1  C   UNL d   1      32.901  18.767 -23.514  0.00  0.00     0.297 C 
ATOM      2  N   UNL d   1      32.902  19.178 -22.794  0.00  0.00    -0.104 NA
ATOM      3  O   UNL d   1      33.184  19.140 -24.199  0.00  0.00    -0.264 OA
ENDROOT
BRANCH   2   4
ATOM      4  N   UNL d   1      33.180  19.950 -22.757  0.00  0.00    -0.125 NA
BRANCH   4   5
ATOM      5  C   UNL d   1      33.185  20.354 -22.038  0.00  0.00     0.190 A 
ATOM      6  C   UNL d   1      33.205  21.173 -22.030  0.00  0.00     0.094 A 
ATOM      7  C   UNL d   1      33.209  21.578 -21.312  0.00  0.00     0.170 A 
ATOM      8  C   UNL d   1      33.223  21.730 -22.646  0.00  0.00     0.127 A 
ATOM      9  N   UNL d   1      33.230  22.391 -21.480  0.00  0.00    -0.209 N 
ATOM     10  N   UNL d   1      33.193  21.163 -20.604  0.00  0.00    -0.205 NA
ATOM     11  C   UNL d   1      33.241  23.001 -20.916  0.00  0.00     0.123 C 
ATOM     12  N   UNL d   1      33.239  22.483 -22.301  0.00  0.00    -0.162 NA
ATOM     13  C   UNL d   1      33.173  20.342 -20.614  0.00  0.00     0.202 A 
ATOM     14  N   UNL d   1      33.169  19.935 -21.337  0.00  0.00    -0.203 NA
ENDBRANCH   4   5
ENDBRANCH   2   4
BRANCH   1  15
ATOM     15  C   UNL d   1      32.622  17.991 -23.553  0.00  0.00     0.070 A 
ATOM     16  C   UNL d   1      31.929  17.825 -23.955  0.00  0.00     0.063 A 
ATOM     17  C   UNL d   1      31.648  17.052 -23.996  0.00  0.00     0.023 A 
ATOM     18 CL   UNL d   1      31.513  18.441 -24.321  0.00  0.00    -0.082 Cl
ATOM     19  C   UNL d   1      32.072  16.438 -23.625  0.00  0.00     0.059 A 
ATOM     20  C   UNL d   1      32.776  16.610 -23.218  0.00  0.00     0.012 A 
ATOM     21 CL   UNL d   1      31.792  15.658 -23.664  0.00  0.00    -0.082 Cl
ATOM     22  C   UNL d   1      33.047  17.383 -23.183  0.00  0.00     0.007 A 
ENDBRANCH   1  15
TORSDOF 3
ENDMDL
MODEL 3
REMARK VINA RESULT:      -1.9      2.913      4.081
REMARK  3 active torsions:
REMARK  status: ('A' for Active; 'I' for Inactive)
REMARK    1  A    between atoms: C_4  and  C_8 
REMARK    2  A    between atoms: N_13  and  C_7 
REMARK       I    between atoms: C_8  and  N_12 
REMARK    3  A    between atoms: N_12  and  N_13 
ROOT
ATOM      1  C   UNL d   1      32.626  18.678 -23.262  0.00  0.00     0.297 C 
ATOM      2  N   UNL d   1      31.860  18.490 -23.517  0.00  0.00    -0.104 NA
ATOM      3  O   UNL d   1      33.241  18.134 -23.377  0.00  0.00    -0.264 OA
ENDROOT
BRANCH   2   4
ATOM      4  N   UNL d   1      31.709  17.770 -23.881  0.00  0.00    -0.125 NA
BRANCH   4   5
ATOM      5  C   UNL d   1      30.973  17.627 -24.227  0.00  0.00     0.190 A 
ATOM      6  C   UNL d   1      30.576  16.929 -24.067  0.00  0.00     0.094 A 
ATOM      7  C   UNL d   1      29.841  16.786 -24.412  0.00  0.00     0.170 A 
ATOM      8  C   UNL d   1      30.774  16.279 -23.590  0.00  0.00     0.127 A 
ATOM      9  N   UNL d   1      29.579  16.043 -24.149  0.00  0.00    -0.209 N 
ATOM     10  N   UNL d   1      29.506  17.341 -24.916  0.00  0.00    -0.205 NA
ATOM     11  C   UNL d   1      28.862  15.680 -24.361  0.00  0.00     0.123 C 
ATOM     12  N   UNL d   1      30.153  15.732 -23.643  0.00  0.00    -0.162 NA
ATOM     13  C   UNL d   1      29.906  18.040 -25.074  0.00  0.00     0.202 A 
ATOM     14  N   UNL d   1      30.645  18.184 -24.727  0.00  0.00    -0.203 NA
ENDBRANCH   4   5
ENDBRANCH   2   4
BRANCH   1  15
ATOM     15  C   UNL d   1      32.780  19.401 -22.896  0.00  0.00     0.070 A 
ATOM     16  C   UNL d   1      33.067  20.031 -23.334  0.00  0.00     0.063 A 
ATOM     17  C   UNL d   1      33.221  20.753 -22.972  0.00  0.00     0.023 A 
ATOM     18 CL   UNL d   1      33.201  19.933 -24.147  0.00  0.00    -0.082 Cl
ATOM     19  C   UNL d   1      33.084  20.843 -22.155  0.00  0.00     0.059 A 
ATOM     20  C   UNL d   1      32.792  20.203 -21.712  0.00  0.00     0.012 A 
ATOM     21 CL   UNL d   1      33.238  21.571 -21.786  0.00  0.00    -0.082 Cl
ATOM     22  C   UNL d   1      32.642  19.487 -22.083  0.00  0.00     0.007 A 
ENDBRANCH   1  15
TORSDOF 3
ENDMDL
