MODEL 1
REMARK VINA RESULT:      -3.4      0.000      0.000
REMARK  4 active torsions:
REMARK  status: ('A' for Active; 'I' for Inactive)
REMARK    1  A    between atoms: S_18  and  C_6 
REMARK    2  A    between atoms: C_8  and  N_12 
REMARK       I    between atoms: N_12  and  C_16 
REMARK    3  A    between atoms: C_16  and  C_21 
REMARK    4  A    between atoms: C_21  and  S_18 
ROOT
ATOM      1  N   UNL d   1      31.902  16.594 -23.815  0.00  0.00    -0.242 N 
ATOM      2  C   UNL d   1      31.468  17.268 -23.993  0.00  0.00     0.153 A 
ATOM      3  C   UNL d   1      32.644  16.666 -23.461  0.00  0.00     0.357 A 
ATOM      4  N   UNL d   1      31.771  18.015 -23.818  0.00  0.00    -0.203 NA
ATOM      5  N   UNL d   1      32.948  17.413 -23.286  0.00  0.00    -0.167 NA
ATOM      6  C   UNL d   1      32.509  18.088 -23.466  0.00  0.00     0.200 A 
ATOM      7  C   UNL d   1      31.599  15.848 -23.990  0.00  0.00     0.086 A 
ATOM      8  C   UNL d   1      30.725  17.196 -24.347  0.00  0.00     0.038 A 
ATOM      9  C   UNL d   1      30.861  15.774 -24.342  0.00  0.00     0.019 A 
ATOM     10  C   UNL d   1      30.422  16.450 -24.522  0.00  0.00     0.004 A 
ATOM     11  O   UNL d   1      33.094  15.984 -23.276  0.00  0.00    -0.244 OA
ATOM     12  C   UNL d   1      29.677  16.380 -24.878  0.00  0.00     0.000 C 
ENDROOT
BRANCH   6  13
ATOM     13  S   UNL d   1      32.812  18.835 -23.291  0.00  0.00    -0.043 SA
BRANCH  13  14
ATOM     14  C   UNL d   1      32.894  19.073 -22.505  0.00  0.00     0.101 C 
BRANCH  14  15
ATOM     15  C   UNL d   1      32.996  19.867 -22.331  0.00  0.00     0.287 C 
ATOM     16  N   UNL d   1      32.852  20.139 -21.564  0.00  0.00    -0.186 NA
ATOM     17  O   UNL d   1      33.240  20.394 -22.912  0.00  0.00    -0.265 OA
BRANCH  16  18
ATOM     18  C   UNL d   1      32.954  20.938 -21.384  0.00  0.00     0.194 A 
ATOM     19  N   UNL d   1      32.991  21.616 -21.856  0.00  0.00    -0.107 NA
ATOM     20  O   UNL d   1      33.100  22.264 -21.367  0.00  0.00    -0.210 OA
ATOM     21  C   UNL d   1      33.130  22.001 -20.596  0.00  0.00     0.128 A 
ATOM     22  C   UNL d   1      33.040  21.177 -20.603  0.00  0.00     0.068 A 
ATOM     23  C   UNL d   1      33.235  22.490 -19.927  0.00  0.00     0.029 C 
ENDBRANCH  16  18
ENDBRANCH  14  15
ENDBRANCH  13  14
ENDBRANCH   6  13
TORSDOF 4
ENDMDL
MODEL 2
REMARK VINA RESULT:      -3.3      1.731      6.101
REMARK  4 active torsions:
REMARK  status: ('A' for Active; 'I' for Inactive)
REMARK    1  A    between atoms: S_18  and  C_6 
REMARK    2  A    between atoms: C_8  and  N_12 
REMARK       I    between atoms: N_12  and  C_16 
REMARK    3  A    between atoms: C_16  and  C_21 
REMARK    4  A    between atoms: C_21  and  S_18 
ROOT
ATOM      1  N   UNL d   1      32.403  23.071 -20.285  0.00  0.00    -0.242 N 
ATOM      2  C   UNL d   1      32.938  22.491 -20.057  0.00  0.00     0.153 A 
ATOM      3  C   UNL d   1      32.124  23.090 -21.062  0.00  0.00     0.357 A 
ATOM      4  N   UNL d   1      33.196  21.928 -20.602  0.00  0.00    -0.203 NA
ATOM      5  N   UNL d   1      32.382  22.527 -21.607  0.00  0.00    -0.167 NA
ATOM      6  C   UNL d   1      32.919  21.945 -21.375  0.00  0.00     0.200 A 
ATOM      7  C   UNL d   1      32.146  23.634 -19.741  0.00  0.00     0.086 A 
ATOM      8  C   UNL d   1      33.217  22.472 -19.280  0.00  0.00     0.038 A 
ATOM      9  C   UNL d   1      32.422  23.617 -18.967  0.00  0.00     0.019 A 
ATOM     10  C   UNL d   1      32.959  23.035 -18.736  0.00  0.00     0.004 A 
ATOM     11  O   UNL d   1      31.579  23.678 -21.302  0.00  0.00    -0.244 OA
ATOM     12  C   UNL d   1      33.241  23.014 -17.956  0.00  0.00     0.000 C 
ENDROOT
BRANCH   6  13
ATOM     13  S   UNL d   1      33.177  21.382 -21.919  0.00  0.00    -0.043 SA
BRANCH  13  14
ATOM     14  C   UNL d   1      32.998  20.584 -21.804  0.00  0.00     0.101 C 
BRANCH  14  15
ATOM     15  C   UNL d   1      33.043  20.064 -22.436  0.00  0.00     0.287 C 
ATOM     16  N   UNL d   1      32.894  19.261 -22.315  0.00  0.00    -0.186 NA
ATOM     17  O   UNL d   1      33.235  20.335 -23.187  0.00  0.00    -0.265 OA
BRANCH  16  18
ATOM     18  C   UNL d   1      32.937  18.733 -22.948  0.00  0.00     0.194 A 
ATOM     19  N   UNL d   1      33.057  18.842 -23.758  0.00  0.00    -0.107 NA
ATOM     20  O   UNL d   1      33.047  18.108 -24.121  0.00  0.00    -0.210 OA
ATOM     21  C   UNL d   1      32.923  17.541 -23.549  0.00  0.00     0.128 A 
ATOM     22  C   UNL d   1      32.855  17.927 -22.818  0.00  0.00     0.068 A 
ATOM     23  C   UNL d   1      32.876  16.720 -23.692  0.00  0.00     0.029 C 
ENDBRANCH  16  18
ENDBRANCH  14  15
ENDBRANCH  13  14
ENDBRANCH   6  13
TORSDOF 4
ENDMDL
MODEL 3
REMARK VINA RESULT:      -3.2      1.145      5.774
REMARK  4 active torsions:
REMARK  status: ('A' for Active; 'I' for Inactive)
REMARK    1  A    between atoms: S_18  and  C_6 
REMARK    2  A    between atoms: C_8  and  N_12 
REMARK       I    between atoms: N_12  and  C_16 
REMARK    3  A    between atoms: C_16  and  C_21 
REMARK    4  A    between atoms: C_21  and  S_18 
ROOT
ATOM      1  N   UNL d   1      32.912  22.563 -21.569  0.00  0.00    -0.242 N 
ATOM      2  C   UNL d   1      32.848  22.015 -20.960  0.00  0.00     0.153 A 
ATOM      3  C   UNL d   1      33.086  22.308 -22.335  0.00  0.00     0.357 A 
ATOM      4  N   UNL d   1      32.958  21.212 -21.113  0.00  0.00    -0.203 NA
ATOM      5  N   UNL d   1      33.196  21.504 -22.487  0.00  0.00    -0.167 NA
ATOM      6  C   UNL d   1      33.131  20.956 -21.873  0.00  0.00     0.200 A 
ATOM      7  C   UNL d   1      32.802  23.366 -21.417  0.00  0.00     0.086 A 
ATOM      8  C   UNL d   1      32.673  22.270 -20.195  0.00  0.00     0.038 A 
ATOM      9  C   UNL d   1      32.629  23.622 -20.656  0.00  0.00     0.019 A 
ATOM     10  C   UNL d   1      32.564  23.073 -20.043  0.00  0.00     0.004 A 
ATOM     11  O   UNL d   1      33.153  22.860 -22.960  0.00  0.00    -0.244 OA
ATOM     12  C   UNL d   1      32.389  23.327 -19.273  0.00  0.00     0.000 C 
ENDROOT
BRANCH   6  13
ATOM     13  S   UNL d   1      33.241  20.153 -22.025  0.00  0.00    -0.043 SA
BRANCH  13  14
ATOM     14  C   UNL d   1      32.686  19.739 -22.475  0.00  0.00     0.101 C 
BRANCH  14  15
ATOM     15  C   UNL d   1      32.803  18.942 -22.629  0.00  0.00     0.287 C 
ATOM     16  N   UNL d   1      32.477  18.605 -23.309  0.00  0.00    -0.186 NA
ATOM     17  O   UNL d   1      33.240  18.477 -22.112  0.00  0.00    -0.265 OA
BRANCH  16  18
ATOM     18  C   UNL d   1      32.592  17.804 -23.468  0.00  0.00     0.194 A 
ATOM     19  N   UNL d   1      33.238  17.300 -23.359  0.00  0.00    -0.107 NA
ATOM     20  O   UNL d   1      33.029  16.554 -23.622  0.00  0.00    -0.210 OA
ATOM     21  C   UNL d   1      32.261  16.582 -23.893  0.00  0.00     0.128 A 
ATOM     22  C   UNL d   1      31.986  17.359 -23.798  0.00  0.00     0.068 A 
ATOM     23  C   UNL d   1      31.840  15.934 -24.208  0.00  0.00     0.029 C 
ENDBRANCH  16  18
ENDBRANCH  14  15
ENDBRANCH  13  14
ENDBRANCH   6  13
TORSDOF 4
ENDMDL
