MODEL 1
REMARK VINA RESULT:      83.8      0.000      0.000
REMARK  5 active torsions:
REMARK  status: ('A' for Active; 'I' for Inactive)
REMARK    1  A    between atoms: C_5  and  N_1 
REMARK    2  A    between atoms: C_2  and  N_3 
REMARK    3  A    between atoms: C_7  and  C_2 
REMARK    4  A    between atoms: N_4  and  C_8 
REMARK    5  A    between atoms: N_16  and  C_11 
ROOT
ATOM      1  N   UNL d   1      60.530  48.343  50.681  0.00  0.00    -0.293 N 
ATOM      2  N   UNL d   1      61.154  46.871  50.303  0.00  0.00    -0.301 N 
ATOM      3  C   UNL d   1      61.329  48.278  50.462  0.00  0.00     0.100 A 
ATOM      4  C   UNL d   1      60.052  47.686  50.711  0.00  0.00     0.100 A 
ATOM      5  C   UNL d   1      60.361  46.939  50.522  0.00  0.00     0.100 A 
ATOM      6  C   UNL d   1      61.637  47.549  50.275  0.00  0.00     0.100 A 
ENDROOT
BRANCH   1   7
ATOM      7  C   UNL d   1      60.222  49.088  50.870  0.00  0.00     0.120 C 
ATOM      8  S   UNL d   1      60.722  49.693  51.130  0.00  0.00    -0.059 SA
BRANCH   7   9
ATOM      9  C   UNL d   1      59.413  49.224  50.798  0.00  0.00     0.027 A 
ATOM     10  C   UNL d   1      58.935  49.243  51.466  0.00  0.00     0.004 A 
ATOM     11  C   UNL d   1      58.125  49.379  51.396  0.00  0.00     0.018 A 
ATOM     12  C   UNL d   1      57.797  49.498  50.641  0.00  0.00     0.064 A 
ATOM     13  C   UNL d   1      58.281  49.479  49.974  0.00  0.00     0.018 A 
ATOM     14  C   UNL d   1      59.086  49.343  50.050  0.00  0.00     0.004 A 
BRANCH  12  15
ATOM     15  N   UNL d   1      56.986  49.635  50.571  0.00  0.00    -0.301 N 
ATOM     16  C   UNL d   1      56.524  49.708  51.254  0.00  0.00     0.100 C 
ATOM     17  C   UNL d   1      56.638  49.698  49.823  0.00  0.00     0.100 C 
ENDBRANCH  12  15
ENDBRANCH   7   9
ENDBRANCH   1   7
BRANCH   2  18
ATOM     18  C   UNL d   1      61.466  46.129  50.114  0.00  0.00     0.064 A 
ATOM     19  C   UNL d   1      61.347  45.500  50.621  0.00  0.00     0.019 A 
ATOM     20  C   UNL d   1      61.659  44.759  50.432  0.00  0.00     0.025 A 
ATOM     21  C   UNL d   1      62.086  44.659  49.734  0.00  0.00     0.127 A 
ATOM     22  C   UNL d   1      62.206  45.296  49.221  0.00  0.00     0.025 A 
ATOM     23  C   UNL d   1      61.895  46.029  49.414  0.00  0.00     0.019 A 
BRANCH  21  24
ATOM     24  N   UNL d   1      62.397  43.920  49.545  0.00  0.00    -0.114 N 
ATOM     25  O   UNL d   1      62.073  43.480  48.922  0.00  0.00    -0.532 OA
ATOM     26  O   UNL d   1      63.030  43.612  49.973  0.00  0.00    -0.532 OA
ENDBRANCH  21  24
ENDBRANCH   2  18
TORSDOF 5
ENDMDL
