MODEL 1
REMARK VINA RESULT:      86.8      0.000      0.000
REMARK  4 active torsions:
REMARK  status: ('A' for Active; 'I' for Inactive)
REMARK    1  A    between atoms: C_4  and  N_1 
REMARK    2  A    between atoms: C_8  and  C_2 
REMARK    3  A    between atoms: C_13  and  C_6 
REMARK    4  A    between atoms: C_7  and  C_8 
ROOT
ATOM      1  N   UNL d   1     -55.174-100.043 -43.044  0.00  0.00    -0.255 N 
ATOM      2  C   UNL d   1     -54.965-101.024 -42.168  0.00  0.00     0.101 A 
ATOM      3  C   UNL d   1     -55.016 -99.696 -42.303  0.00  0.00     0.305 A 
ATOM      4  C   UNL d   1     -54.886-100.306 -41.758  0.00  0.00     0.256 A 
ATOM      5  C   UNL d   1     -55.140-100.857 -42.949  0.00  0.00     0.075 A 
ATOM      6  O   UNL d   1     -54.993 -98.887 -42.139  0.00  0.00    -0.263 OA
ATOM      7  O   UNL d   1     -54.712-100.206 -40.963  0.00  0.00    -0.281 OA
ENDROOT
BRANCH   2   8
ATOM      8  C   UNL d   1     -54.878-101.773 -41.828  0.00  0.00     0.223 C 
ATOM      9  O   UNL d   1     -54.717-102.424 -42.309  0.00  0.00    -0.284 OA
BRANCH   8  10
ATOM     10  C   UNL d   1     -54.949-101.878 -41.021  0.00  0.00     0.139 A 
ATOM     11  O   UNL d   1     -55.247-102.549 -40.642  0.00  0.00    -0.304 OA
ATOM     12  C   UNL d   1     -55.218-102.418 -39.828  0.00  0.00     0.100 A 
ATOM     13  C   UNL d   1     -55.435-102.879 -39.186  0.00  0.00     0.025 A 
ATOM     14  C   UNL d   1     -54.901-101.664 -39.706  0.00  0.00     0.025 A 
ATOM     15  C   UNL d   1     -55.341-102.600 -38.429  0.00  0.00     0.002 A 
ATOM     16  C   UNL d   1     -55.025-101.847 -38.300  0.00  0.00     0.000 A 
ATOM     17  C   UNL d   1     -54.806-101.380 -38.941  0.00  0.00     0.002 A 
ATOM     18  C   UNL d   1     -54.737-101.333 -40.441  0.00  0.00     0.030 A 
ENDBRANCH   8  10
ENDBRANCH   2   8
BRANCH   5  19
ATOM     19  C   UNL d   1     -55.262-101.421 -43.544  0.00  0.00     0.017 A 
ATOM     20  C   UNL d   1     -54.935-101.308 -44.280  0.00  0.00     0.013 A 
ATOM     21  C   UNL d   1     -55.055-101.869 -44.879  0.00  0.00     0.058 A 
ATOM     22 CL   UNL d   1     -54.724-101.757 -45.627  0.00  0.00    -0.082 Cl
ATOM     23  C   UNL d   1     -55.507-102.541 -44.723  0.00  0.00     0.011 A 
ATOM     24  C   UNL d   1     -55.838-102.654 -43.975  0.00  0.00     0.001 A 
ATOM     25  C   UNL d   1     -55.712-102.087 -43.387  0.00  0.00     0.002 A 
ENDBRANCH   5  19
BRANCH   1  26
ATOM     26  C   UNL d   1     -55.333 -99.635 -43.735  0.00  0.00     0.179 A 
ATOM     27  N   UNL d   1     -54.770 -99.249 -44.206  0.00  0.00    -0.108 NA
ATOM     28  O   UNL d   1     -55.163 -98.912 -44.844  0.00  0.00    -0.210 OA
ATOM     29  C   UNL d   1     -55.970 -99.089 -44.769  0.00  0.00     0.128 A 
ATOM     30  C   UNL d   1     -56.070 -99.536 -44.083  0.00  0.00     0.067 A 
ATOM     31  C   UNL d   1     -56.567 -98.859 -45.290  0.00  0.00     0.029 C 
ENDBRANCH   1  26
TORSDOF 4
ENDMDL
