MODEL 1
REMARK VINA RESULT:      -7.4      0.000      0.000
REMARK  7 active torsions:
REMARK  status: ('A' for Active; 'I' for Inactive)
REMARK    1  A    between atoms: S_6  and  C_1 
REMARK    2  A    between atoms: C_12  and  N_2 
REMARK       I    between atoms: N_4  and  C_8 
REMARK    3  A    between atoms: C_5  and  N_4 
REMARK    4  A    between atoms: C_15  and  S_6 
REMARK    5  A    between atoms: O_18  and  C_7 
REMARK    6  A    between atoms: C_8  and  C_15 
REMARK    7  A    between atoms: O_19  and  C_16 
ROOT
ATOM      1  N   UNL d   1     -47.371  13.943  23.276  0.00  0.00    -0.206 NA
ATOM      2  C   UNL d   1     -47.668  14.603  22.897  0.00  0.00     0.286 C 
ATOM      3  O   UNL d   1     -47.276  14.925  22.248  0.00  0.00    -0.265 OA
ENDROOT
BRANCH   2   4
ATOM      4  C   UNL d   1     -48.355  14.946  23.160  0.00  0.00     0.101 C 
BRANCH   4   5
ATOM      5  S   UNL d   1     -49.064  14.836  22.750  0.00  0.00    -0.044 SA
BRANCH   5   6
ATOM      6  C   UNL d   1     -49.774  15.126  23.060  0.00  0.00     0.180 A 
ATOM      7  N   UNL d   1     -50.499  14.747  23.028  0.00  0.00    -0.284 N 
ATOM      8  C   UNL d   1     -51.050  15.235  23.405  0.00  0.00     0.103 A 
ATOM      9  C   UNL d   1     -50.652  15.922  23.669  0.00  0.00     0.120 A 
ATOM     10  N   UNL d   1     -49.874  15.842  23.452  0.00  0.00    -0.219 NA
BRANCH   7  11
ATOM     11  C   UNL d   1     -50.688  14.016  22.694  0.00  0.00     0.066 A 
ATOM     12  C   UNL d   1     -50.800  13.953  21.879  0.00  0.00     0.018 A 
ATOM     13  C   UNL d   1     -50.988  13.223  21.544  0.00  0.00     0.002 A 
ATOM     14  C   UNL d   1     -51.064  12.556  22.025  0.00  0.00     0.000 A 
ATOM     15  C   UNL d   1     -50.952  12.624  22.833  0.00  0.00     0.002 A 
ATOM     16  C   UNL d   1     -50.764  13.354  23.167  0.00  0.00     0.018 A 
ENDBRANCH   7  11
ENDBRANCH   5   6
ENDBRANCH   4   5
ENDBRANCH   2   4
BRANCH   1  17
ATOM     17  C   UNL d   1     -46.678  13.592  23.015  0.00  0.00     0.107 A 
ATOM     18  C   UNL d   1     -46.502  12.821  23.220  0.00  0.00     0.114 A 
ATOM     19  C   UNL d   1     -45.813  12.473  22.961  0.00  0.00     0.050 A 
ATOM     20  C   UNL d   1     -45.286  12.900  22.486  0.00  0.00     0.096 A 
ATOM     21  C   UNL d   1     -45.459  13.683  22.275  0.00  0.00     0.026 A 
ATOM     22  C   UNL d   1     -46.158  14.024  22.542  0.00  0.00     0.023 A 
BRANCH  18  23
ATOM     23  O   UNL d   1     -47.017  12.389  23.689  0.00  0.00    -0.327 OA
ATOM     24  C   UNL d   1     -47.005  11.554  23.662  0.00  0.00     0.181 C 
ENDBRANCH  18  23
BRANCH  20  25
ATOM     25  O   UNL d   1     -44.582  12.540  22.223  0.00  0.00    -0.328 OA
ATOM     26  C   UNL d   1     -44.029  12.983  21.792  0.00  0.00     0.181 C 
ENDBRANCH  20  25
ENDBRANCH   1  17
TORSDOF 7
ENDMDL
MODEL 2
REMARK VINA RESULT:      -7.2      1.269      2.091
REMARK  7 active torsions:
REMARK  status: ('A' for Active; 'I' for Inactive)
REMARK    1  A    between atoms: S_6  and  C_1 
REMARK    2  A    between atoms: C_12  and  N_2 
REMARK       I    between atoms: N_4  and  C_8 
REMARK    3  A    between atoms: C_5  and  N_4 
REMARK    4  A    between atoms: C_15  and  S_6 
REMARK    5  A    between atoms: O_18  and  C_7 
REMARK    6  A    between atoms: C_8  and  C_15 
REMARK    7  A    between atoms: O_19  and  C_16 
ROOT
ATOM      1  N   UNL d   1     -45.969  13.068  22.496  0.00  0.00    -0.206 NA
ATOM      2  C   UNL d   1     -46.587  13.253  22.996  0.00  0.00     0.286 C 
ATOM      3  O   UNL d   1     -46.697  12.837  23.698  0.00  0.00    -0.265 OA
ENDROOT
BRANCH   2   4
ATOM      4  C   UNL d   1     -47.100  13.852  22.801  0.00  0.00     0.101 C 
BRANCH   4   5
ATOM      5  S   UNL d   1     -47.916  13.737  22.841  0.00  0.00    -0.044 SA
BRANCH   5   6
ATOM      6  C   UNL d   1     -48.434  14.361  22.675  0.00  0.00     0.180 A 
ATOM      7  N   UNL d   1     -49.248  14.302  22.609  0.00  0.00    -0.284 N 
ATOM      8  C   UNL d   1     -49.538  15.057  22.440  0.00  0.00     0.103 A 
ATOM      9  C   UNL d   1     -48.889  15.583  22.402  0.00  0.00     0.120 A 
ATOM     10  N   UNL d   1     -48.221  15.145  22.547  0.00  0.00    -0.219 NA
BRANCH   7  11
ATOM     11  C   UNL d   1     -49.727  13.635  22.690  0.00  0.00     0.066 A 
ATOM     12  C   UNL d   1     -49.849  13.134  22.045  0.00  0.00     0.018 A 
ATOM     13  C   UNL d   1     -50.327  12.467  22.125  0.00  0.00     0.002 A 
ATOM     14  C   UNL d   1     -50.685  12.301  22.851  0.00  0.00     0.000 A 
ATOM     15  C   UNL d   1     -50.561  12.800  23.487  0.00  0.00     0.002 A 
ATOM     16  C   UNL d   1     -50.082  13.467  23.407  0.00  0.00     0.018 A 
ENDBRANCH   7  11
ENDBRANCH   5   6
ENDBRANCH   4   5
ENDBRANCH   2   4
BRANCH   1  17
ATOM     17  C   UNL d   1     -45.448  12.464  22.687  0.00  0.00     0.107 A 
ATOM     18  C   UNL d   1     -44.692  12.457  22.378  0.00  0.00     0.114 A 
ATOM     19  C   UNL d   1     -44.176  11.856  22.569  0.00  0.00     0.050 A 
ATOM     20  C   UNL d   1     -44.415  11.249  23.077  0.00  0.00     0.096 A 
ATOM     21  C   UNL d   1     -45.182  11.251  23.394  0.00  0.00     0.026 A 
ATOM     22  C   UNL d   1     -45.695  11.862  23.195  0.00  0.00     0.023 A 
BRANCH  18  23
ATOM     23  O   UNL d   1     -44.445  13.053  21.874  0.00  0.00    -0.327 OA
ATOM     24  C   UNL d   1     -43.703  12.997  21.494  0.00  0.00     0.181 C 
ENDBRANCH  18  23
BRANCH  20  25
ATOM     25  O   UNL d   1     -43.884  10.637  23.269  0.00  0.00    -0.328 OA
ATOM     26  C   UNL d   1     -44.155   9.970  23.682  0.00  0.00     0.181 C 
ENDBRANCH  20  25
ENDBRANCH   1  17
TORSDOF 7
ENDMDL
MODEL 3
REMARK VINA RESULT:      -6.5      1.489      2.635
REMARK  7 active torsions:
REMARK  status: ('A' for Active; 'I' for Inactive)
REMARK    1  A    between atoms: S_6  and  C_1 
REMARK    2  A    between atoms: C_12  and  N_2 
REMARK       I    between atoms: N_4  and  C_8 
REMARK    3  A    between atoms: C_5  and  N_4 
REMARK    4  A    between atoms: C_15  and  S_6 
REMARK    5  A    between atoms: O_18  and  C_7 
REMARK    6  A    between atoms: C_8  and  C_15 
REMARK    7  A    between atoms: O_19  and  C_16 
ROOT
ATOM      1  N   UNL d   1     -47.295  11.986  23.543  0.00  0.00    -0.206 NA
ATOM      2  C   UNL d   1     -47.864  11.401  23.587  0.00  0.00     0.286 C 
ATOM      3  O   UNL d   1     -47.654  10.607  23.531  0.00  0.00    -0.265 OA
ENDROOT
BRANCH   2   4
ATOM      4  C   UNL d   1     -48.644  11.603  23.687  0.00  0.00     0.101 C 
BRANCH   4   5
ATOM      5  S   UNL d   1     -48.946  12.296  23.353  0.00  0.00    -0.044 SA
BRANCH   5   6
ATOM      6  C   UNL d   1     -49.758  12.455  23.382  0.00  0.00     0.180 A 
ATOM      7  N   UNL d   1     -50.116  13.153  23.150  0.00  0.00    -0.284 N 
ATOM      8  C   UNL d   1     -50.929  13.066  23.275  0.00  0.00     0.103 A 
ATOM      9  C   UNL d   1     -51.064  12.302  23.589  0.00  0.00     0.120 A 
ATOM     10  N   UNL d   1     -50.341  11.940  23.649  0.00  0.00    -0.219 NA
BRANCH   7  11
ATOM     11  C   UNL d   1     -49.770  13.836  22.844  0.00  0.00     0.066 A 
ATOM     12  C   UNL d   1     -49.554  14.451  23.351  0.00  0.00     0.018 A 
ATOM     13  C   UNL d   1     -49.208  15.134  23.045  0.00  0.00     0.002 A 
ATOM     14  C   UNL d   1     -49.078  15.204  22.233  0.00  0.00     0.000 A 
ATOM     15  C   UNL d   1     -49.295  14.592  21.735  0.00  0.00     0.002 A 
ATOM     16  C   UNL d   1     -49.641  13.909  22.040  0.00  0.00     0.018 A 
ENDBRANCH   7  11
ENDBRANCH   5   6
ENDBRANCH   4   5
ENDBRANCH   2   4
BRANCH   1  17
ATOM     17  C   UNL d   1     -46.506  11.789  23.443  0.00  0.00     0.107 A 
ATOM     18  C   UNL d   1     -45.989  12.316  23.094  0.00  0.00     0.114 A 
ATOM     19  C   UNL d   1     -45.205  12.119  22.995  0.00  0.00     0.050 A 
ATOM     20  C   UNL d   1     -44.927  11.382  23.248  0.00  0.00     0.096 A 
ATOM     21  C   UNL d   1     -45.447  10.842  23.603  0.00  0.00     0.026 A 
ATOM     22  C   UNL d   1     -46.237  11.051  23.698  0.00  0.00     0.023 A 
BRANCH  18  23
ATOM     23  O   UNL d   1     -46.254  13.049  22.841  0.00  0.00    -0.327 OA
ATOM     24  C   UNL d   1     -45.785  13.503  22.319  0.00  0.00     0.181 C 
ENDBRANCH  18  23
BRANCH  20  25
ATOM     25  O   UNL d   1     -44.124  11.185  23.144  0.00  0.00    -0.328 OA
ATOM     26  C   UNL d   1     -43.877  10.399  23.243  0.00  0.00     0.181 C 
ENDBRANCH  20  25
ENDBRANCH   1  17
TORSDOF 7
ENDMDL
MODEL 4
REMARK VINA RESULT:      -6.1      1.227      2.352
REMARK  7 active torsions:
REMARK  status: ('A' for Active; 'I' for Inactive)
REMARK    1  A    between atoms: S_6  and  C_1 
REMARK    2  A    between atoms: C_12  and  N_2 
REMARK       I    between atoms: N_4  and  C_8 
REMARK    3  A    between atoms: C_5  and  N_4 
REMARK    4  A    between atoms: C_15  and  S_6 
REMARK    5  A    between atoms: O_18  and  C_7 
REMARK    6  A    between atoms: C_8  and  C_15 
REMARK    7  A    between atoms: O_19  and  C_16 
ROOT
ATOM      1  N   UNL d   1     -47.301  12.784  23.169  0.00  0.00    -0.206 NA
ATOM      2  C   UNL d   1     -47.569  12.037  23.359  0.00  0.00     0.286 C 
ATOM      3  O   UNL d   1     -47.076  11.382  23.276  0.00  0.00    -0.265 OA
ENDROOT
BRANCH   2   4
ATOM      4  C   UNL d   1     -48.327  11.935  23.632  0.00  0.00     0.101 C 
BRANCH   4   5
ATOM      5  S   UNL d   1     -48.944  12.403  23.344  0.00  0.00    -0.044 SA
BRANCH   5   6
ATOM      6  C   UNL d   1     -49.730  12.161  23.438  0.00  0.00     0.180 A 
ATOM      7  N   UNL d   1     -50.391  12.628  23.316  0.00  0.00    -0.284 N 
ATOM      8  C   UNL d   1     -51.055  12.162  23.474  0.00  0.00     0.103 A 
ATOM      9  C   UNL d   1     -50.791  11.399  23.696  0.00  0.00     0.120 A 
ATOM     10  N   UNL d   1     -49.981  11.413  23.670  0.00  0.00    -0.219 NA
BRANCH   7  11
ATOM     11  C   UNL d   1     -50.431  13.417  23.079  0.00  0.00     0.066 A 
ATOM     12  C   UNL d   1     -50.456  13.606  22.276  0.00  0.00     0.018 A 
ATOM     13  C   UNL d   1     -50.497  14.395  22.040  0.00  0.00     0.002 A 
ATOM     14  C   UNL d   1     -50.512  14.996  22.606  0.00  0.00     0.000 A 
ATOM     15  C   UNL d   1     -50.487  14.804  23.401  0.00  0.00     0.002 A 
ATOM     16  C   UNL d   1     -50.447  14.014  23.637  0.00  0.00     0.018 A 
ENDBRANCH   7  11
ENDBRANCH   5   6
ENDBRANCH   4   5
ENDBRANCH   2   4
BRANCH   1  17
ATOM     17  C   UNL d   1     -46.538  12.894  22.893  0.00  0.00     0.107 A 
ATOM     18  C   UNL d   1     -46.304  13.618  22.595  0.00  0.00     0.114 A 
ATOM     19  C   UNL d   1     -45.545  13.725  22.321  0.00  0.00     0.050 A 
ATOM     20  C   UNL d   1     -45.004  13.099  22.344  0.00  0.00     0.096 A 
ATOM     21  C   UNL d   1     -45.234  12.362  22.645  0.00  0.00     0.026 A 
ATOM     22  C   UNL d   1     -46.004  12.265  22.919  0.00  0.00     0.023 A 
BRANCH  18  23
ATOM     23  O   UNL d   1     -46.833  14.244  22.569  0.00  0.00    -0.327 OA
ATOM     24  C   UNL d   1     -46.549  15.029  22.603  0.00  0.00     0.181 C 
ENDBRANCH  18  23
BRANCH  20  25
ATOM     25  O   UNL d   1     -44.228  13.214  22.062  0.00  0.00    -0.328 OA
ATOM     26  C   UNL d   1     -43.925  12.713  21.475  0.00  0.00     0.181 C 
ENDBRANCH  20  25
ENDBRANCH   1  17
TORSDOF 7
ENDMDL
