MODEL 1
REMARK VINA RESULT:      -3.4      0.000      0.000
REMARK  3 active torsions:
REMARK  status: ('A' for Active; 'I' for Inactive)
REMARK    1  A    between atoms: C_14  and  C_4 
REMARK    2  A    between atoms: C_5  and  S_10 
REMARK    3  A    between atoms: S_10  and  C_14 
ROOT
ATOM      1  N   UNL d   1      56.910  -0.655  31.619  0.00  0.00    -0.226 NA
ATOM      2  N   UNL d   1      57.516   0.308  30.870  0.00  0.00    -0.288 N 
ATOM      3  C   UNL d   1      57.463  -0.506  30.995  0.00  0.00     0.148 A 
ATOM      4  C   UNL d   1      56.646   0.095  31.851  0.00  0.00     0.107 A 
ATOM      5  C   UNL d   1      56.998   0.681  31.414  0.00  0.00     0.101 A 
ATOM      6  C   UNL d   1      58.022   0.597  30.286  0.00  0.00     0.082 A 
ATOM      7  C   UNL d   1      57.915  -1.044  30.538  0.00  0.00     0.037 A 
ATOM      8  C   UNL d   1      58.474   0.059  29.829  0.00  0.00     0.019 A 
ATOM      9  C   UNL d   1      58.422  -0.729  29.950  0.00  0.00     0.005 A 
ENDROOT
BRANCH   4  10
ATOM     10  C   UNL d   1      56.098   0.223  32.448  0.00  0.00     0.058 C 
BRANCH  10  11
ATOM     11  S   UNL d   1      56.278   0.043  33.216  0.00  0.00    -0.059 SA
BRANCH  11  12
ATOM     12  C   UNL d   1      55.742   0.253  33.848  0.00  0.00     0.141 A 
ATOM     13  N   UNL d   1      54.917   0.239  33.899  0.00  0.00    -0.230 NA
ATOM     14  C   UNL d   1      54.753   0.513  34.662  0.00  0.00     0.107 A 
ATOM     15  C   UNL d   1      55.420   0.682  35.052  0.00  0.00     0.058 A 
ATOM     16  S   UNL d   1      56.034   0.526  34.559  0.00  0.00    -0.059 SA
ENDBRANCH  11  12
ENDBRANCH  10  11
ENDBRANCH   4  10
TORSDOF 3
ENDMDL
MODEL 2
REMARK VINA RESULT:      -3.2      1.381      4.225
REMARK  3 active torsions:
REMARK  status: ('A' for Active; 'I' for Inactive)
REMARK    1  A    between atoms: C_14  and  C_4 
REMARK    2  A    between atoms: C_5  and  S_10 
REMARK    3  A    between atoms: S_10  and  C_14 
ROOT
ATOM      1  N   UNL d   1      56.179   0.156  32.343  0.00  0.00    -0.226 NA
ATOM      2  N   UNL d   1      56.397   0.485  33.647  0.00  0.00    -0.288 N 
ATOM      3  C   UNL d   1      55.815   0.286  33.097  0.00  0.00     0.148 A 
ATOM      4  C   UNL d   1      56.987   0.286  32.474  0.00  0.00     0.107 A 
ATOM      5  C   UNL d   1      57.134   0.484  33.247  0.00  0.00     0.101 A 
ATOM      6  C   UNL d   1      56.181   0.640  34.428  0.00  0.00     0.082 A 
ATOM      7  C   UNL d   1      55.009   0.238  33.319  0.00  0.00     0.037 A 
ATOM      8  C   UNL d   1      55.374   0.592  34.650  0.00  0.00     0.019 A 
ATOM      9  C   UNL d   1      54.811   0.399  34.117  0.00  0.00     0.005 A 
ENDROOT
BRANCH   4  10
ATOM     10  C   UNL d   1      57.560   0.221  31.891  0.00  0.00     0.058 C 
BRANCH  10  11
ATOM     11  S   UNL d   1      57.349   0.128  31.115  0.00  0.00    -0.059 SA
BRANCH  11  12
ATOM     12  C   UNL d   1      57.947   0.072  30.506  0.00  0.00     0.141 A 
ATOM     13  N   UNL d   1      58.415   0.646  30.139  0.00  0.00    -0.230 NA
ATOM     14  C   UNL d   1      58.878   0.221  29.600  0.00  0.00     0.107 A 
ATOM     15  C   UNL d   1      58.710  -0.552  29.632  0.00  0.00     0.058 A 
ATOM     16  S   UNL d   1      58.140  -0.653  30.186  0.00  0.00    -0.059 SA
ENDBRANCH  11  12
ENDBRANCH  10  11
ENDBRANCH   4  10
TORSDOF 3
ENDMDL
MODEL 3
REMARK VINA RESULT:      -2.7      9.647     10.444
REMARK  3 active torsions:
REMARK  status: ('A' for Active; 'I' for Inactive)
REMARK    1  A    between atoms: C_14  and  C_4 
REMARK    2  A    between atoms: C_5  and  S_10 
REMARK    3  A    between atoms: S_10  and  C_14 
ROOT
ATOM      1  N   UNL d   1      59.626  -8.646  33.852  0.00  0.00    -0.226 NA
ATOM      2  N   UNL d   1      59.420  -9.361  34.993  0.00  0.00    -0.288 N 
ATOM      3  C   UNL d   1      59.707  -8.648  34.695  0.00  0.00     0.148 A 
ATOM      4  C   UNL d   1      59.283  -9.378  33.671  0.00  0.00     0.107 A 
ATOM      5  C   UNL d   1      59.153  -9.818  34.341  0.00  0.00     0.101 A 
ATOM      6  C   UNL d   1      59.439  -9.499  35.806  0.00  0.00     0.082 A 
ATOM      7  C   UNL d   1      60.018  -8.060  35.205  0.00  0.00     0.037 A 
ATOM      8  C   UNL d   1      59.749  -8.911  36.316  0.00  0.00     0.019 A 
ATOM      9  C   UNL d   1      60.028  -8.220  36.027  0.00  0.00     0.005 A 
ENDROOT
BRANCH   4  10
ATOM     10  C   UNL d   1      59.100  -9.623  32.910  0.00  0.00     0.058 C 
BRANCH  10  11
ATOM     11  S   UNL d   1      58.334  -9.614  32.649  0.00  0.00    -0.059 SA
BRANCH  11  12
ATOM     12  C   UNL d   1      58.159  -9.688  31.815  0.00  0.00     0.141 A 
ATOM     13  N   UNL d   1      58.648  -9.706  31.149  0.00  0.00    -0.230 NA
ATOM     14  C   UNL d   1      58.125  -9.788  30.512  0.00  0.00     0.107 A 
ATOM     15  C   UNL d   1      57.376  -9.817  30.764  0.00  0.00     0.058 A 
ATOM     16  S   UNL d   1      57.386  -9.757  31.563  0.00  0.00    -0.059 SA
ENDBRANCH  11  12
ENDBRANCH  10  11
ENDBRANCH   4  10
TORSDOF 3
ENDMDL
MODEL 4
REMARK VINA RESULT:      -2.5      9.961     10.178
REMARK  3 active torsions:
REMARK  status: ('A' for Active; 'I' for Inactive)
REMARK    1  A    between atoms: C_14  and  C_4 
REMARK    2  A    between atoms: C_5  and  S_10 
REMARK    3  A    between atoms: S_10  and  C_14 
ROOT
ATOM      1  N   UNL d   1      59.276  -9.809  32.249  0.00  0.00    -0.226 NA
ATOM      2  N   UNL d   1      57.917  -9.813  32.143  0.00  0.00    -0.288 N 
ATOM      3  C   UNL d   1      58.621  -9.812  31.712  0.00  0.00     0.148 A 
ATOM      4  C   UNL d   1      58.930  -9.809  33.003  0.00  0.00     0.107 A 
ATOM      5  C   UNL d   1      58.120  -9.812  32.957  0.00  0.00     0.101 A 
ATOM      6  C   UNL d   1      57.196  -9.816  31.743  0.00  0.00     0.082 A 
ATOM      7  C   UNL d   1      58.614  -9.813  30.874  0.00  0.00     0.037 A 
ATOM      8  C   UNL d   1      57.190  -9.817  30.905  0.00  0.00     0.019 A 
ATOM      9  C   UNL d   1      57.871  -9.815  30.488  0.00  0.00     0.005 A 
ENDROOT
BRANCH   4  10
ATOM     10  C   UNL d   1      59.358  -9.807  33.702  0.00  0.00     0.058 C 
BRANCH  10  11
ATOM     11  S   UNL d   1      59.381  -9.146  34.168  0.00  0.00    -0.059 SA
BRANCH  11  12
ATOM     12  C   UNL d   1      59.843  -9.138  34.888  0.00  0.00     0.141 A 
ATOM     13  N   UNL d   1      60.163  -9.748  35.344  0.00  0.00    -0.230 NA
ATOM     14  C   UNL d   1      60.545  -9.360  35.967  0.00  0.00     0.107 A 
ATOM     15  C   UNL d   1      60.468  -8.575  35.902  0.00  0.00     0.058 A 
ATOM     16  S   UNL d   1      60.038  -8.429  35.241  0.00  0.00    -0.059 SA
ENDBRANCH  11  12
ENDBRANCH  10  11
ENDBRANCH   4  10
TORSDOF 3
ENDMDL
MODEL 5
REMARK VINA RESULT:      -1.7      8.807      9.769
REMARK  3 active torsions:
REMARK  status: ('A' for Active; 'I' for Inactive)
REMARK    1  A    between atoms: C_14  and  C_4 
REMARK    2  A    between atoms: C_5  and  S_10 
REMARK    3  A    between atoms: S_10  and  C_14 
ROOT
ATOM      1  N   UNL d   1      59.275  -7.777  35.182  0.00  0.00    -0.226 NA
ATOM      2  N   UNL d   1      60.541  -7.496  35.601  0.00  0.00    -0.288 N 
ATOM      3  C   UNL d   1      59.764  -7.219  35.591  0.00  0.00     0.148 A 
ATOM      4  C   UNL d   1      59.791  -8.384  34.956  0.00  0.00     0.107 A 
ATOM      5  C   UNL d   1      60.551  -8.232  35.198  0.00  0.00     0.101 A 
ATOM      6  C   UNL d   1      61.127  -7.048  35.969  0.00  0.00     0.082 A 
ATOM      7  C   UNL d   1      59.561  -6.490  35.951  0.00  0.00     0.037 A 
ATOM      8  C   UNL d   1      60.924  -6.319  36.329  0.00  0.00     0.019 A 
ATOM      9  C   UNL d   1      60.172  -6.051  36.320  0.00  0.00     0.005 A 
ENDROOT
BRANCH   4  10
ATOM     10  C   UNL d   1      59.558  -9.051  34.540  0.00  0.00     0.058 C 
BRANCH  10  11
ATOM     11  S   UNL d   1      59.693  -9.107  33.744  0.00  0.00    -0.059 SA
BRANCH  11  12
ATOM     12  C   UNL d   1      59.074  -9.369  33.216  0.00  0.00     0.141 A 
ATOM     13  N   UNL d   1      58.258  -9.446  33.320  0.00  0.00    -0.230 NA
ATOM     14  C   UNL d   1      57.983  -9.728  32.591  0.00  0.00     0.107 A 
ATOM     15  C   UNL d   1      58.580  -9.818  32.080  0.00  0.00     0.058 A 
ATOM     16  S   UNL d   1      59.254  -9.600  32.455  0.00  0.00    -0.059 SA
ENDBRANCH  11  12
ENDBRANCH  10  11
ENDBRANCH   4  10
TORSDOF 3
ENDMDL
MODEL 6
REMARK VINA RESULT:      -1.3      1.468      4.148
REMARK  3 active torsions:
REMARK  status: ('A' for Active; 'I' for Inactive)
REMARK    1  A    between atoms: C_14  and  C_4 
REMARK    2  A    between atoms: C_5  and  S_10 
REMARK    3  A    between atoms: S_10  and  C_14 
ROOT
ATOM      1  N   UNL d   1      56.271   0.680  32.755  0.00  0.00    -0.226 NA
ATOM      2  N   UNL d   1      56.000  -0.619  33.064  0.00  0.00    -0.288 N 
ATOM      3  C   UNL d   1      55.978   0.154  33.351  0.00  0.00     0.148 A 
ATOM      4  C   UNL d   1      56.463   0.188  32.116  0.00  0.00     0.107 A 
ATOM      5  C   UNL d   1      56.307  -0.590  32.284  0.00  0.00     0.101 A 
ATOM      6  C   UNL d   1      55.742  -1.238  33.544  0.00  0.00     0.082 A 
ATOM      7  C   UNL d   1      55.698   0.321  34.122  0.00  0.00     0.037 A 
ATOM      8  C   UNL d   1      55.461  -1.071  34.316  0.00  0.00     0.019 A 
ATOM      9  C   UNL d   1      55.440  -0.323  34.594  0.00  0.00     0.005 A 
ENDROOT
BRANCH   4  10
ATOM     10  C   UNL d   1      56.770   0.461  31.406  0.00  0.00     0.058 C 
BRANCH  10  11
ATOM     11  S   UNL d   1      57.560   0.622  31.335  0.00  0.00    -0.059 SA
BRANCH  11  12
ATOM     12  C   UNL d   1      57.942   0.595  30.570  0.00  0.00     0.141 A 
ATOM     13  N   UNL d   1      57.640   0.632  29.802  0.00  0.00    -0.230 NA
ATOM     14  C   UNL d   1      58.307   0.576  29.315  0.00  0.00     0.107 A 
ATOM     15  C   UNL d   1      58.967   0.509  29.747  0.00  0.00     0.058 A 
ATOM     16  S   UNL d   1      58.752   0.520  30.519  0.00  0.00    -0.059 SA
ENDBRANCH  11  12
ENDBRANCH  10  11
ENDBRANCH   4  10
TORSDOF 3
ENDMDL
