MODEL 1
REMARK VINA RESULT:     101.2      0.000      0.000
REMARK  7 active torsions:
REMARK  status: ('A' for Active; 'I' for Inactive)
REMARK    1  A    between atoms: C_3  and  S_1 
REMARK    2  A    between atoms: N_4  and  S_1 
REMARK    3  A    between atoms: C_2  and  C_11 
REMARK       I    between atoms: N_5  and  C_2 
REMARK    4  A    between atoms: C_18  and  N_4 
REMARK    5  A    between atoms: C_12  and  N_5 
REMARK    6  A    between atoms: C_22  and  C_18 
REMARK    7  A    between atoms: O_26  and  C_19 
ROOT
ATOM      1  C   UNL d   1      61.998  44.930  49.834  0.00  0.00     0.058 A 
ATOM      2  C   UNL d   1      61.231  45.171  50.048  0.00  0.00     0.005 A 
ATOM      3  C   UNL d   1      62.526  45.475  49.512  0.00  0.00     0.005 A 
ATOM      4  C   UNL d   1      61.523  46.495  49.616  0.00  0.00     0.020 A 
ATOM      5  C   UNL d   1      60.997  45.949  49.939  0.00  0.00     0.002 A 
ATOM      6  C   UNL d   1      62.286  46.264  49.402  0.00  0.00     0.002 A 
ENDROOT
BRANCH   4   7
ATOM      7  C   UNL d   1      61.291  47.284  49.504  0.00  0.00     0.112 C 
BRANCH   7   8
ATOM      8  N   UNL d   1      61.591  47.880  50.001  0.00  0.00    -0.157 NA
BRANCH   8   9
ATOM      9  S   UNL d   1      61.075  48.337  50.467  0.00  0.00     0.285 S 
ATOM     10  O   UNL d   1      60.882  48.808  49.807  0.00  0.00    -0.198 OA
ATOM     11  O   UNL d   1      61.263  47.868  51.138  0.00  0.00    -0.198 OA
BRANCH   9  12
ATOM     12  C   UNL d   1      60.556  48.794  50.941  0.00  0.00     0.107 A 
ATOM     13  C   UNL d   1      59.817  49.018  50.652  0.00  0.00     0.037 A 
ATOM     14  C   UNL d   1      59.307  49.466  51.116  0.00  0.00     0.095 A 
ATOM     15  C   UNL d   1      59.531  49.693  51.873  0.00  0.00     0.024 A 
ATOM     16  C   UNL d   1      60.275  49.470  52.169  0.00  0.00     0.003 A 
ATOM     17  C   UNL d   1      60.784  49.022  51.705  0.00  0.00     0.013 A 
BRANCH  14  18
ATOM     18  O   UNL d   1      58.560  49.695  50.827  0.00  0.00    -0.328 OA
ATOM     19  C   UNL d   1      58.046  49.124  50.541  0.00  0.00     0.181 C 
ENDBRANCH  14  18
ENDBRANCH   9  12
ENDBRANCH   8   9
ENDBRANCH   7   8
ENDBRANCH   4   7
BRANCH   1  20
ATOM     20  C   UNL d   1      62.242  44.149  49.940  0.00  0.00     0.279 C 
ATOM     21  N   UNL d   1      62.167  43.792  50.678  0.00  0.00    -0.208 NA
ATOM     22  O   UNL d   1      62.561  43.722  49.309  0.00  0.00    -0.265 OA
BRANCH  21  23
ATOM     23  C   UNL d   1      62.413  43.004  50.784  0.00  0.00     0.086 A 
ATOM     24  C   UNL d   1      62.143  42.582  51.448  0.00  0.00     0.032 A 
ATOM     25  C   UNL d   1      62.391  41.795  51.550  0.00  0.00     0.070 A 
ATOM     26 CL   UNL d   1      62.125  41.374  52.207  0.00  0.00    -0.081 Cl
ATOM     27  C   UNL d   1      62.896  41.446  50.999  0.00  0.00     0.068 A 
ATOM     28  C   UNL d   1      63.158  41.878  50.342  0.00  0.00     0.014 A 
ATOM     29 CL   UNL d   1      63.138  40.661  51.109  0.00  0.00    -0.082 Cl
ATOM     30  C   UNL d   1      62.912  42.657  50.241  0.00  0.00     0.020 A 
ENDBRANCH  21  23
ENDBRANCH   1  20
TORSDOF 7
ENDMDL
