MODEL 1
REMARK VINA RESULT:      17.8      0.000      0.000
REMARK  4 active torsions:
REMARK  status: ('A' for Active; 'I' for Inactive)
REMARK    1  A    between atoms: N_2  and  S_1 
REMARK    2  A    between atoms: C_4  and  C_3 
REMARK       I    between atoms: N_9  and  C_4 
REMARK    3  A    between atoms: C_15  and  N_9 
REMARK    4  A    between atoms: C_10  and  C_15 
ROOT
ATOM      1  N   UNL d   1      57.186  49.637  50.545  0.00  0.00    -0.233 N 
ATOM      2  C   UNL d   1      58.520  49.677  50.052  0.00  0.00     0.076 A 
ATOM      3  C   UNL d   1      57.999  49.649  50.683  0.00  0.00     0.096 A 
ATOM      4  C   UNL d   1      56.899  49.654  49.774  0.00  0.00     0.091 A 
ATOM      5  C   UNL d   1      58.235  49.694  49.277  0.00  0.00     0.008 A 
ATOM      6  C   UNL d   1      57.425  49.683  49.142  0.00  0.00     0.020 A 
ENDROOT
BRANCH   2   7
ATOM      7  C   UNL d   1      59.336  49.688  50.192  0.00  0.00     0.281 C 
ATOM      8  O   UNL d   1      59.863  49.693  49.561  0.00  0.00    -0.265 OA
ATOM      9  N   UNL d   1      59.623  49.694  50.966  0.00  0.00    -0.206 NA
BRANCH   9  10
ATOM     10  C   UNL d   1      60.430  49.705  51.098  0.00  0.00     0.102 C 
BRANCH  10  11
ATOM     11  C   UNL d   1      60.747  49.248  51.707  0.00  0.00     0.021 C 
ATOM     12  C   UNL d   1      61.269  49.588  52.250  0.00  0.00     0.002 C 
ENDBRANCH  10  11
ENDBRANCH   9  10
ENDBRANCH   2   7
BRANCH   1  13
ATOM     13  S   UNL d   1      56.661  49.609  51.180  0.00  0.00     0.252 S 
ATOM     14  O   UNL d   1      57.291  49.704  51.705  0.00  0.00    -0.204 OA
ATOM     15  O   UNL d   1      56.034  49.515  50.657  0.00  0.00    -0.204 OA
ATOM     16  C   UNL d   1      56.136  49.581  51.815  0.00  0.00     0.164 C 
ENDBRANCH   1  13
TORSDOF 4
ENDMDL
MODEL 2
REMARK VINA RESULT:      18.4      1.582      3.629
REMARK  4 active torsions:
REMARK  status: ('A' for Active; 'I' for Inactive)
REMARK    1  A    between atoms: N_2  and  S_1 
REMARK    2  A    between atoms: C_4  and  C_3 
REMARK       I    between atoms: N_9  and  C_4 
REMARK    3  A    between atoms: C_15  and  N_9 
REMARK    4  A    between atoms: C_10  and  C_15 
ROOT
ATOM      1  N   UNL d   1      60.504  49.577  51.016  0.00  0.00    -0.233 N 
ATOM      2  C   UNL d   1      59.143  49.637  50.604  0.00  0.00     0.076 A 
ATOM      3  C   UNL d   1      59.701  49.581  51.201  0.00  0.00     0.096 A 
ATOM      4  C   UNL d   1      60.745  49.630  50.230  0.00  0.00     0.091 A 
ATOM      5  C   UNL d   1      59.382  49.690  49.815  0.00  0.00     0.008 A 
ATOM      6  C   UNL d   1      60.182  49.686  49.632  0.00  0.00     0.020 A 
ENDROOT
BRANCH   2   7
ATOM      7  C   UNL d   1      58.337  49.640  50.792  0.00  0.00     0.281 C 
ATOM      8  O   UNL d   1      58.097  49.614  51.579  0.00  0.00    -0.265 OA
ATOM      9  N   UNL d   1      57.771  49.671  50.192  0.00  0.00    -0.206 NA
BRANCH   9  10
ATOM     10  C   UNL d   1      56.977  49.674  50.384  0.00  0.00     0.102 C 
BRANCH  10  11
ATOM     11  C   UNL d   1      56.415  49.598  49.785  0.00  0.00     0.021 C 
ATOM     12  C   UNL d   1      56.646  49.655  48.993  0.00  0.00     0.002 C 
ENDBRANCH  10  11
ENDBRANCH   9  10
ENDBRANCH   2   7
BRANCH   1  13
ATOM     13  S   UNL d   1      61.065  49.520  51.617  0.00  0.00     0.252 S 
ATOM     14  O   UNL d   1      61.643  49.332  51.059  0.00  0.00    -0.204 OA
ATOM     15  O   UNL d   1      60.489  49.708  52.172  0.00  0.00    -0.204 OA
ATOM     16  C   UNL d   1      61.627  49.464  52.218  0.00  0.00     0.164 C 
ENDBRANCH   1  13
TORSDOF 4
ENDMDL
MODEL 3
REMARK VINA RESULT:      20.3      1.230      1.808
REMARK  4 active torsions:
REMARK  status: ('A' for Active; 'I' for Inactive)
REMARK    1  A    between atoms: N_2  and  S_1 
REMARK    2  A    between atoms: C_4  and  C_3 
REMARK       I    between atoms: N_9  and  C_4 
REMARK    3  A    between atoms: C_15  and  N_9 
REMARK    4  A    between atoms: C_10  and  C_15 
ROOT
ATOM      1  N   UNL d   1      57.130  49.656  50.335  0.00  0.00    -0.233 N 
ATOM      2  C   UNL d   1      58.282  49.670  51.171  0.00  0.00     0.076 A 
ATOM      3  C   UNL d   1      57.950  49.667  50.422  0.00  0.00     0.096 A 
ATOM      4  C   UNL d   1      56.646  49.647  51.001  0.00  0.00     0.091 A 
ATOM      5  C   UNL d   1      57.798  49.662  51.841  0.00  0.00     0.008 A 
ATOM      6  C   UNL d   1      56.982  49.650  51.752  0.00  0.00     0.020 A 
ENDROOT
BRANCH   2   7
ATOM      7  C   UNL d   1      59.105  49.682  51.256  0.00  0.00     0.281 C 
ATOM      8  O   UNL d   1      59.442  49.707  52.006  0.00  0.00    -0.265 OA
ATOM      9  N   UNL d   1      59.591  49.667  50.589  0.00  0.00    -0.206 NA
BRANCH   9  10
ATOM     10  C   UNL d   1      60.403  49.679  50.680  0.00  0.00     0.102 C 
BRANCH  10  11
ATOM     11  C   UNL d   1      60.880  49.329  50.104  0.00  0.00     0.021 C 
ATOM     12  C   UNL d   1      61.368  48.693  50.303  0.00  0.00     0.002 C 
ENDBRANCH  10  11
ENDBRANCH   9  10
ENDBRANCH   2   7
BRANCH   1  13
ATOM     13  S   UNL d   1      56.796  49.653  49.582  0.00  0.00     0.252 S 
ATOM     14  O   UNL d   1      56.043  49.603  49.916  0.00  0.00    -0.204 OA
ATOM     15  O   UNL d   1      57.546  49.702  49.249  0.00  0.00    -0.204 OA
ATOM     16  C   UNL d   1      56.461  49.650  48.828  0.00  0.00     0.164 C 
ENDBRANCH   1  13
TORSDOF 4
ENDMDL
