MODEL 1
REMARK VINA RESULT:      -3.3      0.000      0.000
REMARK  8 active torsions:
REMARK  status: ('A' for Active; 'I' for Inactive)
REMARK    1  A    between atoms: S_13  and  C_4 
REMARK    2  A    between atoms: C_5  and  N_10 
REMARK    3  A    between atoms: C_20  and  N_6 
REMARK       I    between atoms: N_10  and  C_14 
REMARK    4  A    between atoms: C_19  and  S_13 
REMARK    5  A    between atoms: C_14  and  C_19 
REMARK    6  A    between atoms: C_22  and  C_20 
REMARK    7  A    between atoms: C_28  and  C_22 
REMARK    8  A    between atoms: N_25  and  C_28 
ROOT
ATOM      1  N   UNL d   1      31.902  17.927 -23.967  0.00  0.00    -0.185 NA
ATOM      2  C   UNL d   1      31.364  17.426 -24.341  0.00  0.00     0.354 A 
ATOM      3  C   UNL d   1      32.663  16.795 -23.540  0.00  0.00     0.040 A 
ATOM      4  C   UNL d   1      32.551  17.612 -23.566  0.00  0.00     0.117 A 
ATOM      5  N   UNL d   1      31.476  16.608 -24.314  0.00  0.00    -0.258 N 
ATOM      6  C   UNL d   1      32.125  16.293 -23.914  0.00  0.00     0.070 A 
ATOM      7  O   UNL d   1      30.709  17.736 -24.745  0.00  0.00    -0.244 OA
ATOM      8  C   UNL d   1      33.241  16.325 -23.194  0.00  0.00     0.004 A 
ATOM      9  C   UNL d   1      32.375  15.517 -23.796  0.00  0.00     0.018 A 
ATOM     10  C   UNL d   1      33.058  15.533 -23.355  0.00  0.00     0.002 A 
ENDROOT
BRANCH   4  11
ATOM     11  S   UNL d   1      33.089  18.114 -23.193  0.00  0.00    -0.062 SA
BRANCH  11  12
ATOM     12  C   UNL d   1      33.051  18.919 -23.319  0.00  0.00     0.099 C 
BRANCH  12  13
ATOM     13  C   UNL d   1      33.078  19.439 -22.679  0.00  0.00     0.288 C 
ATOM     14  N   UNL d   1      33.051  20.250 -22.806  0.00  0.00    -0.182 NA
ATOM     15  O   UNL d   1      33.132  19.144 -21.910  0.00  0.00    -0.265 OA
BRANCH  14  16
ATOM     16  C   UNL d   1      33.077  20.770 -22.166  0.00  0.00     0.197 A 
ATOM     17  N   UNL d   1      33.011  21.584 -22.292  0.00  0.00    -0.221 NA
ATOM     18  C   UNL d   1      33.057  21.956 -21.551  0.00  0.00     0.090 A 
ATOM     19  C   UNL d   1      33.026  22.750 -21.332  0.00  0.00     0.020 A 
ATOM     20  C   UNL d   1      33.149  21.381 -20.981  0.00  0.00     0.050 A 
ATOM     21  C   UNL d   1      33.087  22.959 -20.541  0.00  0.00     0.002 A 
ATOM     22  C   UNL d   1      33.180  22.380 -19.967  0.00  0.00     0.001 A 
ATOM     23  C   UNL d   1      33.211  21.588 -20.183  0.00  0.00     0.008 A 
ATOM     24  C   UNL d   1      33.241  22.610 -19.164  0.00  0.00     0.000 C 
ATOM     25  S   UNL d   1      33.163  20.641 -21.356  0.00  0.00    -0.047 SA
ENDBRANCH  14  16
ENDBRANCH  12  13
ENDBRANCH  11  12
ENDBRANCH   4  11
BRANCH   5  26
ATOM     26  C   UNL d   1      30.938  16.106 -24.687  0.00  0.00     0.086 C 
BRANCH  26  27
ATOM     27  C   UNL d   1      30.136  16.185 -24.550  0.00  0.00     0.038 C 
BRANCH  27  28
ATOM     28  C   UNL d   1      29.599  15.672 -24.910  0.00  0.00     0.082 C 
BRANCH  28  29
ATOM     29  N   UNL d   1      28.870  15.527 -24.561  0.00  0.00    -0.300 N 
ATOM     30  C   UNL d   1      28.811  15.455 -23.741  0.00  0.00     0.100 C 
ATOM     31  C   UNL d   1      28.196  15.453 -25.030  0.00  0.00     0.100 C 
ENDBRANCH  28  29
ENDBRANCH  27  28
ENDBRANCH  26  27
ENDBRANCH   5  26
TORSDOF 8
ENDMDL
MODEL 2
REMARK VINA RESULT:      -0.8      1.709      6.900
REMARK  8 active torsions:
REMARK  status: ('A' for Active; 'I' for Inactive)
REMARK    1  A    between atoms: S_13  and  C_4 
REMARK    2  A    between atoms: C_5  and  N_10 
REMARK    3  A    between atoms: C_20  and  N_6 
REMARK       I    between atoms: N_10  and  C_14 
REMARK    4  A    between atoms: C_19  and  S_13 
REMARK    5  A    between atoms: C_14  and  C_19 
REMARK    6  A    between atoms: C_22  and  C_20 
REMARK    7  A    between atoms: C_28  and  C_22 
REMARK    8  A    between atoms: N_25  and  C_28 
ROOT
ATOM      1  N   UNL d   1      33.214  21.534 -20.990  0.00  0.00    -0.185 NA
ATOM      2  C   UNL d   1      33.082  22.117 -20.421  0.00  0.00     0.354 A 
ATOM      3  C   UNL d   1      32.765  22.430 -22.010  0.00  0.00     0.040 A 
ATOM      4  C   UNL d   1      33.055  21.691 -21.785  0.00  0.00     0.117 A 
ATOM      5  N   UNL d   1      32.791  22.855 -20.646  0.00  0.00    -0.258 N 
ATOM      6  C   UNL d   1      32.633  23.012 -21.441  0.00  0.00     0.070 A 
ATOM      7  O   UNL d   1      33.239  21.966 -19.620  0.00  0.00    -0.244 OA
ATOM      8  C   UNL d   1      32.559  22.745 -22.740  0.00  0.00     0.004 A 
ATOM      9  C   UNL d   1      32.346  23.683 -21.823  0.00  0.00     0.018 A 
ATOM     10  C   UNL d   1      32.299  23.523 -22.619  0.00  0.00     0.002 A 
ENDROOT
BRANCH   4  11
ATOM     11  S   UNL d   1      33.187  21.108 -22.354  0.00  0.00    -0.062 SA
BRANCH  11  12
ATOM     12  C   UNL d   1      33.210  20.323 -22.137  0.00  0.00     0.099 C 
BRANCH  12  13
ATOM     13  C   UNL d   1      32.998  19.738 -22.678  0.00  0.00     0.288 C 
ATOM     14  N   UNL d   1      32.823  18.979 -22.417  0.00  0.00    -0.182 NA
ATOM     15  O   UNL d   1      32.961  19.916 -23.483  0.00  0.00    -0.265 OA
BRANCH  14  16
ATOM     16  C   UNL d   1      32.610  18.394 -22.959  0.00  0.00     0.197 A 
ATOM     17  N   UNL d   1      32.218  18.599 -23.656  0.00  0.00    -0.221 NA
ATOM     18  C   UNL d   1      32.081  17.900 -24.082  0.00  0.00     0.090 A 
ATOM     19  C   UNL d   1      31.716  17.761 -24.808  0.00  0.00     0.020 A 
ATOM     20  C   UNL d   1      32.384  17.277 -23.653  0.00  0.00     0.050 A 
ATOM     21  C   UNL d   1      31.659  16.995 -25.096  0.00  0.00     0.002 A 
ATOM     22  C   UNL d   1      31.964  16.368 -24.665  0.00  0.00     0.001 A 
ATOM     23  C   UNL d   1      32.328  16.504 -23.942  0.00  0.00     0.008 A 
ATOM     24  C   UNL d   1      31.898  15.592 -24.974  0.00  0.00     0.000 C 
ATOM     25  S   UNL d   1      32.714  17.576 -22.954  0.00  0.00    -0.047 SA
ENDBRANCH  14  16
ENDBRANCH  12  13
ENDBRANCH  11  12
ENDBRANCH   4  11
BRANCH   5  26
ATOM     26  C   UNL d   1      32.659  23.438 -20.077  0.00  0.00     0.086 C 
BRANCH  26  27
ATOM     27  C   UNL d   1      32.703  23.255 -19.281  0.00  0.00     0.038 C 
BRANCH  27  28
ATOM     28  C   UNL d   1      32.219  23.642 -18.737  0.00  0.00     0.082 C 
BRANCH  28  29
ATOM     29  N   UNL d   1      32.335  23.533 -17.931  0.00  0.00    -0.300 N 
ATOM     30  C   UNL d   1      33.085  23.639 -17.603  0.00  0.00     0.100 C 
ATOM     31  C   UNL d   1      31.701  23.317 -17.449  0.00  0.00     0.100 C 
ENDBRANCH  28  29
ENDBRANCH  27  28
ENDBRANCH  26  27
ENDBRANCH   5  26
TORSDOF 8
ENDMDL
