MODEL 1
REMARK VINA RESULT:      -8.6      0.000      0.000
REMARK  8 active torsions:
REMARK  status: ('A' for Active; 'I' for Inactive)
REMARK    1  A    between atoms: C_14  and  C_1 
REMARK    2  A    between atoms: C_6  and  C_2 
REMARK    3  A    between atoms: C_19  and  C_4 
REMARK       I    between atoms: N_13  and  C_6 
REMARK    4  A    between atoms: C_7  and  S_18 
REMARK    5  A    between atoms: C_26  and  N_13 
REMARK    6  A    between atoms: C_22  and  C_14 
REMARK    7  A    between atoms: S_18  and  C_22 
REMARK    8  A    between atoms: O_31  and  C_27 
ROOT
ATOM      1  C   UNL d   1      51.901  32.528  53.322  0.00  0.00     0.076 A 
ATOM      2  C   UNL d   1      51.783  33.929  53.427  0.00  0.00     0.092 A 
ATOM      3  C   UNL d   1      52.230  33.255  53.505  0.00  0.00     0.018 A 
ATOM      4  C   UNL d   1      51.006  33.883  53.166  0.00  0.00     0.120 A 
ATOM      5  N   UNL d   1      50.676  33.162  52.984  0.00  0.00    -0.238 NA
ATOM      6  C   UNL d   1      51.124  32.482  53.062  0.00  0.00     0.087 A 
ATOM      7  C   UNL d   1      52.112  34.656  53.610  0.00  0.00     0.103 C 
ATOM      8  N   UNL d   1      52.435  35.372  53.790  0.00  0.00    -0.191 NA
ATOM      9  C   UNL d   1      50.820  31.782  52.890  0.00  0.00     0.021 C 
ENDROOT
BRANCH   4  10
ATOM     10  S   UNL d   1      50.558  34.563  53.089  0.00  0.00    -0.063 SA
BRANCH  10  11
ATOM     11  C   UNL d   1      49.831  34.537  52.719  0.00  0.00     0.079 C 
BRANCH  11  12
ATOM     12  C   UNL d   1      49.316  35.163  52.779  0.00  0.00     0.207 C 
ATOM     13  O   UNL d   1      49.487  35.806  53.337  0.00  0.00    -0.286 OA
BRANCH  12  14
ATOM     14  C   UNL d   1      48.644  35.354  52.433  0.00  0.00     0.103 A 
ATOM     15  C   UNL d   1      48.337  35.247  51.691  0.00  0.00     0.303 A 
ATOM     16  O   UNL d   1      47.594  35.529  51.524  0.00  0.00    -0.273 OA
ATOM     17  O   UNL d   1      48.768  34.843  51.064  0.00  0.00    -0.259 OA
ATOM     18  C   UNL d   1      47.160  35.917  52.098  0.00  0.00     0.103 A 
ATOM     19  C   UNL d   1      47.462  36.025  52.838  0.00  0.00     0.023 A 
ATOM     20  C   UNL d   1      46.391  36.205  51.912  0.00  0.00     0.025 A 
ATOM     21  C   UNL d   1      48.214  35.740  53.010  0.00  0.00     0.011 A 
ATOM     22  C   UNL d   1      47.021  36.422  53.432  0.00  0.00     0.002 A 
ATOM     23  C   UNL d   1      46.264  36.709  53.260  0.00  0.00     0.000 A 
ATOM     24  C   UNL d   1      45.948  36.598  52.490  0.00  0.00     0.002 A 
ENDBRANCH  12  14
ENDBRANCH  11  12
ENDBRANCH  10  11
ENDBRANCH   4  10
BRANCH   3  25
ATOM     25  C   UNL d   1      53.004  33.301  53.765  0.00  0.00     0.001 A 
ATOM     26  C   UNL d   1      53.623  33.364  53.222  0.00  0.00     0.002 A 
ATOM     27  C   UNL d   1      54.408  33.411  53.485  0.00  0.00     0.024 A 
ATOM     28  C   UNL d   1      54.572  33.394  54.291  0.00  0.00     0.094 A 
ATOM     29  C   UNL d   1      53.959  33.330  54.838  0.00  0.00     0.024 A 
ATOM     30  C   UNL d   1      53.174  33.284  54.575  0.00  0.00     0.002 A 
BRANCH  28  31
ATOM     31  O   UNL d   1      55.347  33.441  54.523  0.00  0.00    -0.328 OA
ATOM     32  C   UNL d   1      55.511  33.916  55.290  0.00  0.00     0.181 C 
ENDBRANCH  28  31
ENDBRANCH   3  25
BRANCH   1  33
ATOM     33  C   UNL d   1      52.410  31.615  53.396  0.00  0.00     0.281 C 
ATOM     34  N   UNL d   1      52.769  31.092  52.942  0.00  0.00    -0.208 NA
ATOM     35  O   UNL d   1      52.523  31.218  54.244  0.00  0.00    -0.265 OA
BRANCH  34  36
ATOM     36  C   UNL d   1      53.096  30.434  53.294  0.00  0.00     0.085 A 
ATOM     37  C   UNL d   1      53.912  30.317  53.248  0.00  0.00     0.019 A 
ATOM     38  C   UNL d   1      54.259  29.649  53.603  0.00  0.00     0.002 A 
ATOM     39  C   UNL d   1      53.776  29.099  54.006  0.00  0.00     0.000 A 
ATOM     40  C   UNL d   1      52.949  29.218  54.052  0.00  0.00     0.002 A 
ATOM     41  C   UNL d   1      52.617  29.891  53.691  0.00  0.00     0.019 A 
ENDBRANCH  34  36
ENDBRANCH   1  33
TORSDOF 8
ENDMDL
MODEL 2
REMARK VINA RESULT:      -6.0      1.010      2.740
REMARK  8 active torsions:
REMARK  status: ('A' for Active; 'I' for Inactive)
REMARK    1  A    between atoms: C_14  and  C_1 
REMARK    2  A    between atoms: C_6  and  C_2 
REMARK    3  A    between atoms: C_19  and  C_4 
REMARK       I    between atoms: N_13  and  C_6 
REMARK    4  A    between atoms: C_7  and  S_18 
REMARK    5  A    between atoms: C_26  and  N_13 
REMARK    6  A    between atoms: C_22  and  C_14 
REMARK    7  A    between atoms: S_18  and  C_22 
REMARK    8  A    between atoms: O_31  and  C_27 
ROOT
ATOM      1  C   UNL d   1      52.107  34.108  53.599  0.00  0.00     0.076 A 
ATOM      2  C   UNL d   1      50.939  33.714  52.914  0.00  0.00     0.092 A 
ATOM      3  C   UNL d   1      51.668  33.529  53.222  0.00  0.00     0.018 A 
ATOM      4  C   UNL d   1      50.642  34.476  52.981  0.00  0.00     0.120 A 
ATOM      5  N   UNL d   1      51.075  35.054  53.355  0.00  0.00    -0.238 NA
ATOM      6  C   UNL d   1      51.810  34.871  53.666  0.00  0.00     0.087 A 
ATOM      7  C   UNL d   1      50.501  33.135  52.537  0.00  0.00     0.103 C 
ATOM      8  N   UNL d   1      50.068  32.566  52.165  0.00  0.00    -0.191 NA
ATOM      9  C   UNL d   1      52.238  35.416  54.028  0.00  0.00     0.021 C 
ENDROOT
BRANCH   4  10
ATOM     10  S   UNL d   1      49.907  34.660  52.671  0.00  0.00    -0.063 SA
BRANCH  10  11
ATOM     11  C   UNL d   1      49.432  35.212  53.038  0.00  0.00     0.079 C 
BRANCH  11  12
ATOM     12  C   UNL d   1      48.810  35.550  52.639  0.00  0.00     0.207 C 
ATOM     13  O   UNL d   1      48.817  35.566  51.771  0.00  0.00    -0.286 OA
BRANCH  12  14
ATOM     14  C   UNL d   1      48.146  35.897  52.854  0.00  0.00     0.103 A 
ATOM     15  C   UNL d   1      47.939  36.412  53.443  0.00  0.00     0.303 A 
ATOM     16  O   UNL d   1      47.169  36.663  53.500  0.00  0.00    -0.273 OA
ATOM     17  O   UNL d   1      48.506  36.709  54.021  0.00  0.00    -0.259 OA
ATOM     18  C   UNL d   1      46.607  36.400  52.968  0.00  0.00     0.103 A 
ATOM     19  C   UNL d   1      46.809  35.886  52.378  0.00  0.00     0.023 A 
ATOM     20  C   UNL d   1      45.813  36.668  53.037  0.00  0.00     0.025 A 
ATOM     21  C   UNL d   1      47.589  35.630  52.319  0.00  0.00     0.011 A 
ATOM     22  C   UNL d   1      46.238  35.612  51.829  0.00  0.00     0.002 A 
ATOM     23  C   UNL d   1      45.454  35.869  51.888  0.00  0.00     0.000 A 
ATOM     24  C   UNL d   1      45.241  36.403  52.499  0.00  0.00     0.002 A 
ENDBRANCH  12  14
ENDBRANCH  11  12
ENDBRANCH  10  11
ENDBRANCH   4  10
BRANCH   3  25
ATOM     25  C   UNL d   1      51.964  32.769  53.155  0.00  0.00     0.001 A 
ATOM     26  C   UNL d   1      52.483  32.576  52.542  0.00  0.00     0.002 A 
ATOM     27  C   UNL d   1      52.783  31.806  52.475  0.00  0.00     0.024 A 
ATOM     28  C   UNL d   1      52.562  31.231  53.020  0.00  0.00     0.094 A 
ATOM     29  C   UNL d   1      52.044  31.417  53.633  0.00  0.00     0.024 A 
ATOM     30  C   UNL d   1      51.745  32.187  53.701  0.00  0.00     0.002 A 
BRANCH  28  31
ATOM     31  O   UNL d   1      52.868  30.486  52.933  0.00  0.00    -0.328 OA
ATOM     32  C   UNL d   1      53.358  30.164  53.639  0.00  0.00     0.181 C 
ENDBRANCH  28  31
ENDBRANCH   3  25
BRANCH   1  33
ATOM     33  C   UNL d   1      53.053  33.950  54.020  0.00  0.00     0.281 C 
ATOM     34  N   UNL d   1      53.759  33.684  53.821  0.00  0.00    -0.208 NA
ATOM     35  O   UNL d   1      53.197  34.170  54.926  0.00  0.00    -0.265 OA
BRANCH  34  36
ATOM     36  C   UNL d   1      54.343  33.676  54.390  0.00  0.00     0.085 A 
ATOM     37  C   UNL d   1      55.063  34.046  54.232  0.00  0.00     0.019 A 
ATOM     38  C   UNL d   1      55.668  34.045  54.804  0.00  0.00     0.002 A 
ATOM     39  C   UNL d   1      55.540  33.667  55.538  0.00  0.00     0.000 A 
ATOM     40  C   UNL d   1      54.810  33.291  55.698  0.00  0.00     0.002 A 
ATOM     41  C   UNL d   1      54.215  33.301  55.115  0.00  0.00     0.019 A 
ENDBRANCH  34  36
ENDBRANCH   1  33
TORSDOF 8
ENDMDL
