MODEL 1
REMARK VINA RESULT:      -4.5      0.000      0.000
REMARK  3 active torsions:
REMARK  status: ('A' for Active; 'I' for Inactive)
REMARK    1  A    between atoms: C_7  and  N_1 
REMARK    2  A    between atoms: C_6  and  C_3 
REMARK    3  A    between atoms: O_16  and  C_13 
ROOT
ATOM      1  N   UNL d   1     -42.310-123.092 -49.493  0.00  0.00    -0.273 N 
ATOM      2  C   UNL d   1     -42.993-123.556 -49.471  0.00  0.00     0.265 A 
ATOM      3  C   UNL d   1     -42.223-123.152 -48.067  0.00  0.00     0.087 A 
ATOM      4  C   UNL d   1     -41.925-122.891 -48.790  0.00  0.00     0.089 A 
ATOM      5  C   UNL d   1     -43.291-123.817 -48.747  0.00  0.00     0.069 A 
ATOM      6  O   UNL d   1     -43.378-123.757 -50.173  0.00  0.00    -0.267 OA
ENDROOT
BRANCH   1   7
ATOM      7  C   UNL d   1     -42.012-122.831 -50.216  0.00  0.00     0.067 A 
ATOM      8  C   UNL d   1     -42.282-122.122 -50.536  0.00  0.00     0.020 A 
ATOM      9  C   UNL d   1     -41.987-121.863 -51.250  0.00  0.00     0.026 A 
ATOM     10  C   UNL d   1     -41.418-122.309 -51.658  0.00  0.00     0.094 A 
ATOM     11  C   UNL d   1     -41.150-123.019 -51.334  0.00  0.00     0.026 A 
ATOM     12  C   UNL d   1     -41.448-123.281 -50.612  0.00  0.00     0.020 A 
BRANCH  10  13
ATOM     13  O   UNL d   1     -41.123-122.043 -52.381  0.00  0.00    -0.328 OA
ATOM     14  C   UNL d   1     -41.445-122.318 -53.090  0.00  0.00     0.181 C 
ENDBRANCH  10  13
ENDBRANCH   1   7
BRANCH   3  15
ATOM     15  C   UNL d   1     -41.975-123.056 -47.203  0.00  0.00     0.212 C 
ATOM     16  O   UNL d   1     -41.426-123.672 -46.817  0.00  0.00    -0.644 OA
ATOM     17  O   UNL d   1     -42.271-122.346 -46.716  0.00  0.00    -0.644 OA
ENDBRANCH   3  15
TORSDOF 3
ENDMDL
MODEL 2
REMARK VINA RESULT:      -4.1      1.815      3.223
REMARK  3 active torsions:
REMARK  status: ('A' for Active; 'I' for Inactive)
REMARK    1  A    between atoms: C_7  and  N_1 
REMARK    2  A    between atoms: C_6  and  C_3 
REMARK    3  A    between atoms: O_16  and  C_13 
ROOT
ATOM      1  N   UNL d   1     -41.575-122.295 -52.139  0.00  0.00    -0.273 N 
ATOM      2  C   UNL d   1     -41.315-121.600 -51.777  0.00  0.00     0.265 A 
ATOM      3  C   UNL d   1     -41.685-122.920 -50.858  0.00  0.00     0.087 A 
ATOM      4  C   UNL d   1     -41.761-122.955 -51.679  0.00  0.00     0.089 A 
ATOM      5  C   UNL d   1     -41.240-121.565 -50.956  0.00  0.00     0.069 A 
ATOM      6  O   UNL d   1     -41.130-120.940 -52.237  0.00  0.00    -0.267 OA
ENDROOT
BRANCH   1   7
ATOM      7  C   UNL d   1     -41.650-122.330 -52.960  0.00  0.00     0.067 A 
ATOM      8  C   UNL d   1     -41.140-122.806 -53.396  0.00  0.00     0.020 A 
ATOM      9  C   UNL d   1     -41.214-122.840 -54.207  0.00  0.00     0.026 A 
ATOM     10  C   UNL d   1     -41.800-122.399 -54.596  0.00  0.00     0.094 A 
ATOM     11  C   UNL d   1     -42.310-121.923 -54.155  0.00  0.00     0.026 A 
ATOM     12  C   UNL d   1     -42.235-121.888 -53.335  0.00  0.00     0.020 A 
BRANCH  10  13
ATOM     13  O   UNL d   1     -41.872-122.437 -55.417  0.00  0.00    -0.328 OA
ATOM     14  C   UNL d   1     -42.181-121.799 -55.839  0.00  0.00     0.181 C 
ENDBRANCH  10  13
ENDBRANCH   1   7
BRANCH   3  15
ATOM     15  C   UNL d   1     -41.827-123.501 -50.180  0.00  0.00     0.212 C 
ATOM     16  O   UNL d   1     -42.666-123.817 -50.021  0.00  0.00    -0.644 OA
ATOM     17  O   UNL d   1     -41.134-123.772 -49.655  0.00  0.00    -0.644 OA
ENDBRANCH   3  15
TORSDOF 3
ENDMDL
MODEL 3
REMARK VINA RESULT:      -3.8      1.264      4.255
REMARK  3 active torsions:
REMARK  status: ('A' for Active; 'I' for Inactive)
REMARK    1  A    between atoms: C_7  and  N_1 
REMARK    2  A    between atoms: C_6  and  C_3 
REMARK    3  A    between atoms: O_16  and  C_13 
ROOT
ATOM      1  N   UNL d   1     -41.553-122.551 -51.400  0.00  0.00    -0.273 N 
ATOM      2  C   UNL d   1     -41.302-121.768 -51.473  0.00  0.00     0.265 A 
ATOM      3  C   UNL d   1     -41.486-122.704 -52.820  0.00  0.00     0.087 A 
ATOM      4  C   UNL d   1     -41.645-123.019 -52.074  0.00  0.00     0.089 A 
ATOM      5  C   UNL d   1     -41.142-121.453 -52.218  0.00  0.00     0.069 A 
ATOM      6  O   UNL d   1     -41.209-121.301 -50.798  0.00  0.00    -0.267 OA
ENDROOT
BRANCH   1   7
ATOM      7  C   UNL d   1     -41.713-122.866 -50.655  0.00  0.00     0.067 A 
ATOM      8  C   UNL d   1     -41.188-123.403 -50.317  0.00  0.00     0.020 A 
ATOM      9  C   UNL d   1     -41.345-123.714 -49.581  0.00  0.00     0.026 A 
ATOM     10  C   UNL d   1     -42.031-123.494 -49.168  0.00  0.00     0.094 A 
ATOM     11  C   UNL d   1     -42.555-122.956 -49.509  0.00  0.00     0.026 A 
ATOM     12  C   UNL d   1     -42.396-122.641 -50.254  0.00  0.00     0.020 A 
BRANCH  10  13
ATOM     13  O   UNL d   1     -42.186-123.812 -48.422  0.00  0.00    -0.328 OA
ATOM     14  C   UNL d   1     -41.989-123.391 -47.740  0.00  0.00     0.181 C 
ENDBRANCH  10  13
ENDBRANCH   1   7
BRANCH   3  15
ATOM     15  C   UNL d   1     -41.517-123.022 -53.666  0.00  0.00     0.212 C 
ATOM     16  O   UNL d   1     -41.944-123.806 -53.841  0.00  0.00    -0.644 OA
ATOM     17  O   UNL d   1     -41.123-122.560 -54.344  0.00  0.00    -0.644 OA
ENDBRANCH   3  15
TORSDOF 3
ENDMDL
