MODEL 1
REMARK VINA RESULT:      -6.4      0.000      0.000
REMARK  5 active torsions:
REMARK  status: ('A' for Active; 'I' for Inactive)
REMARK    1  A    between atoms: S_2  and  C_1 
REMARK    2  A    between atoms: C_7  and  S_2 
REMARK    3  A    between atoms: N_8  and  C_5 
REMARK    4  A    between atoms: C_14  and  N_8 
REMARK    5  A    between atoms: O_23  and  C_15 
ROOT
ATOM      1  C   UNL d   1     -41.446-122.730 -52.225  0.00  0.00     0.187 A 
ATOM      2  N   UNL d   1     -41.432-123.451 -51.839  0.00  0.00    -0.208 NA
ATOM      3  C   UNL d   1     -41.267-122.137 -51.692  0.00  0.00     0.118 A 
ATOM      4  C   UNL d   1     -41.242-123.313 -51.051  0.00  0.00     0.196 A 
ATOM      5  S   UNL d   1     -41.138-122.505 -50.951  0.00  0.00    -0.035 SA
ATOM      6 CL   UNL d   1     -41.223-121.316 -51.869  0.00  0.00    -0.073 Cl
ENDROOT
BRANCH   1   7
ATOM      7  S   UNL d   1     -41.610-122.563 -53.032  0.00  0.00     0.228 S 
ATOM      8  O   UNL d   1     -41.206-123.264 -53.229  0.00  0.00    -0.216 OA
ATOM      9  O   UNL d   1     -42.007-121.869 -52.809  0.00  0.00    -0.216 OA
BRANCH   7  10
ATOM     10  C   UNL d   1     -41.769-122.402 -53.815  0.00  0.00     0.089 A 
ATOM     11  C   UNL d   1     -41.295-122.711 -54.428  0.00  0.00     0.011 A 
ATOM     12  C   UNL d   1     -41.463-122.543 -55.215  0.00  0.00     0.001 A 
ATOM     13  C   UNL d   1     -42.109-122.060 -55.422  0.00  0.00     0.000 A 
ATOM     14  C   UNL d   1     -42.586-121.748 -54.803  0.00  0.00     0.001 A 
ATOM     15  C   UNL d   1     -42.279-121.890 -56.205  0.00  0.00     0.000 C 
ATOM     16  C   UNL d   1     -42.425-121.911 -54.023  0.00  0.00     0.011 A 
ENDBRANCH   7  10
ENDBRANCH   1   7
BRANCH   4  17
ATOM     17  N   UNL d   1     -41.146-123.811 -50.397  0.00  0.00    -0.221 NA
BRANCH  17  18
ATOM     18  C   UNL d   1     -41.591-123.685 -49.716  0.00  0.00     0.084 A 
ATOM     19  C   UNL d   1     -41.216-123.437 -49.021  0.00  0.00     0.021 A 
ATOM     20  C   UNL d   1     -41.644-123.309 -48.340  0.00  0.00     0.026 A 
ATOM     21  C   UNL d   1     -42.457-123.427 -48.346  0.00  0.00     0.094 A 
ATOM     22  C   UNL d   1     -42.841-123.678 -49.048  0.00  0.00     0.026 A 
ATOM     23  C   UNL d   1     -42.407-123.803 -49.721  0.00  0.00     0.021 A 
BRANCH  21  24
ATOM     24  O   UNL d   1     -42.890-123.298 -47.661  0.00  0.00    -0.328 OA
ATOM     25  C   UNL d   1     -42.510-123.360 -46.923  0.00  0.00     0.181 C 
ENDBRANCH  21  24
ENDBRANCH  17  18
ENDBRANCH   4  17
TORSDOF 5
ENDMDL
MODEL 2
REMARK VINA RESULT:      -6.4      1.209      5.286
REMARK  5 active torsions:
REMARK  status: ('A' for Active; 'I' for Inactive)
REMARK    1  A    between atoms: S_2  and  C_1 
REMARK    2  A    between atoms: C_7  and  S_2 
REMARK    3  A    between atoms: N_8  and  C_5 
REMARK    4  A    between atoms: C_14  and  N_8 
REMARK    5  A    between atoms: O_23  and  C_15 
ROOT
ATOM      1  C   UNL d   1     -41.638-122.950 -51.115  0.00  0.00     0.187 A 
ATOM      2  N   UNL d   1     -41.608-123.456 -51.757  0.00  0.00    -0.208 NA
ATOM      3  C   UNL d   1     -41.343-122.221 -51.333  0.00  0.00     0.118 A 
ATOM      4  C   UNL d   1     -41.289-123.040 -52.391  0.00  0.00     0.196 A 
ATOM      5  S   UNL d   1     -41.123-122.277 -52.139  0.00  0.00    -0.035 SA
ATOM      6 CL   UNL d   1     -41.278-121.548 -50.832  0.00  0.00    -0.073 Cl
ENDROOT
BRANCH   1   7
ATOM      7  S   UNL d   1     -41.915-123.099 -50.335  0.00  0.00     0.228 S 
ATOM      8  O   UNL d   1     -42.637-122.747 -50.556  0.00  0.00    -0.216 OA
ATOM      9  O   UNL d   1     -41.187-123.445 -50.140  0.00  0.00    -0.216 OA
BRANCH   7  10
ATOM     10  C   UNL d   1     -42.184-123.243 -49.579  0.00  0.00     0.089 A 
ATOM     11  C   UNL d   1     -42.974-123.471 -49.435  0.00  0.00     0.011 A 
ATOM     12  C   UNL d   1     -43.236-123.614 -48.668  0.00  0.00     0.001 A 
ATOM     13  C   UNL d   1     -42.723-123.535 -48.018  0.00  0.00     0.000 A 
ATOM     14  C   UNL d   1     -41.927-123.305 -48.164  0.00  0.00     0.001 A 
ATOM     15  C   UNL d   1     -42.981-123.677 -47.253  0.00  0.00     0.000 C 
ATOM     16  C   UNL d   1     -41.661-123.162 -48.919  0.00  0.00     0.011 A 
ENDBRANCH   7  10
ENDBRANCH   1   7
BRANCH   4  17
ATOM     17  N   UNL d   1     -41.123-123.246 -53.175  0.00  0.00    -0.221 NA
BRANCH  17  18
ATOM     18  C   UNL d   1     -41.563-122.917 -53.788  0.00  0.00     0.084 A 
ATOM     19  C   UNL d   1     -42.217-123.326 -54.088  0.00  0.00     0.021 A 
ATOM     20  C   UNL d   1     -42.662-123.012 -54.695  0.00  0.00     0.026 A 
ATOM     21  C   UNL d   1     -42.455-122.282 -55.010  0.00  0.00     0.094 A 
ATOM     22  C   UNL d   1     -41.794-121.865 -54.709  0.00  0.00     0.026 A 
ATOM     23  C   UNL d   1     -41.357-122.184 -54.105  0.00  0.00     0.021 A 
BRANCH  21  24
ATOM     24  O   UNL d   1     -42.902-121.965 -55.621  0.00  0.00    -0.328 OA
ATOM     25  C   UNL d   1     -42.519-121.719 -56.319  0.00  0.00     0.181 C 
ENDBRANCH  21  24
ENDBRANCH  17  18
ENDBRANCH   4  17
TORSDOF 5
ENDMDL
