MODEL 1
REMARK VINA RESULT:      26.4      0.000      0.000
REMARK  6 active torsions:
REMARK  status: ('A' for Active; 'I' for Inactive)
REMARK    1  A    between atoms: N_8  and  S_1 
REMARK    2  A    between atoms: C_10  and  S_1 
REMARK    3  A    between atoms: C_2  and  N_6 
REMARK       I    between atoms: N_6  and  C_9 
REMARK    4  A    between atoms: C_9  and  C_15 
REMARK    5  A    between atoms: O_26  and  C_13 
REMARK    6  A    between atoms: O_27  and  C_14 
ROOT
ATOM      1  N   UNL d   1     -42.426-123.816 -51.827  0.00  0.00    -0.183 NA
ATOM      2  C   UNL d   1     -42.154-123.398 -52.490  0.00  0.00     0.281 C 
ATOM      3  O   UNL d   1     -42.041-123.797 -53.201  0.00  0.00    -0.265 OA
ENDROOT
BRANCH   2   4
ATOM      4  C   UNL d   1     -42.004-122.605 -52.422  0.00  0.00     0.058 A 
ATOM      5  C   UNL d   1     -41.275-122.333 -52.162  0.00  0.00     0.005 A 
ATOM      6  C   UNL d   1     -41.125-121.527 -52.094  0.00  0.00     0.013 A 
ATOM      7  C   UNL d   1     -41.716-120.981 -52.291  0.00  0.00     0.104 A 
ATOM      8  C   UNL d   1     -42.454-121.247 -52.554  0.00  0.00     0.013 A 
ATOM      9  C   UNL d   1     -42.596-122.058 -52.619  0.00  0.00     0.005 A 
BRANCH   7  10
ATOM     10  S   UNL d   1     -41.567-120.171 -52.224  0.00  0.00     0.272 S 
ATOM     11  O   UNL d   1     -41.614-120.097 -53.049  0.00  0.00    -0.200 OA
ATOM     12  O   UNL d   1     -41.523-120.250 -51.405  0.00  0.00    -0.200 OA
BRANCH  10  13
ATOM     13  N   UNL d   1     -41.419-119.364 -52.154  0.00  0.00    -0.225 N 
ATOM     14  C   UNL d   1     -41.279-119.034 -51.418  0.00  0.00     0.118 A 
ATOM     15  C   UNL d   1     -41.131-118.224 -51.358  0.00  0.00     0.142 A 
ATOM     16  O   UNL d   1     -41.125-117.757 -52.027  0.00  0.00    -0.300 OA
ATOM     17  C   UNL d   1     -41.266-118.091 -52.765  0.00  0.00     0.142 A 
ATOM     18  C   UNL d   1     -41.412-118.891 -52.830  0.00  0.00     0.118 A 
ENDBRANCH  10  13
ENDBRANCH   7  10
ENDBRANCH   2   4
BRANCH   1  19
ATOM     19  C   UNL d   1     -42.544-123.420 -51.100  0.00  0.00     0.197 A 
ATOM     20  N   UNL d   1     -41.984-123.326 -50.502  0.00  0.00    -0.218 NA
ATOM     21  C   UNL d   1     -42.336-122.904 -49.892  0.00  0.00     0.114 A 
ATOM     22  C   UNL d   1     -42.058-122.645 -49.162  0.00  0.00     0.112 A 
ATOM     23  C   UNL d   1     -43.112-122.737 -50.114  0.00  0.00     0.074 A 
ATOM     24  C   UNL d   1     -42.549-122.223 -48.651  0.00  0.00     0.028 A 
ATOM     25  C   UNL d   1     -43.331-122.059 -48.882  0.00  0.00     0.027 A 
ATOM     26  C   UNL d   1     -43.611-122.314 -49.608  0.00  0.00     0.102 A 
ATOM     27  S   UNL d   1     -43.233-123.062 -50.868  0.00  0.00    -0.045 SA
BRANCH  22  28
ATOM     28  O   UNL d   1     -41.272-122.810 -48.929  0.00  0.00    -0.327 OA
ATOM     29  C   UNL d   1     -41.124-123.367 -48.339  0.00  0.00     0.181 C 
ENDBRANCH  22  28
BRANCH  26  30
ATOM     30  O   UNL d   1     -44.396-122.150 -49.841  0.00  0.00    -0.328 OA
ATOM     31  C   UNL d   1     -44.856-121.632 -49.397  0.00  0.00     0.181 C 
ENDBRANCH  26  30
ENDBRANCH   1  19
TORSDOF 6
ENDMDL
MODEL 2
REMARK VINA RESULT:      26.4      0.724      1.774
REMARK  6 active torsions:
REMARK  status: ('A' for Active; 'I' for Inactive)
REMARK    1  A    between atoms: N_8  and  S_1 
REMARK    2  A    between atoms: C_10  and  S_1 
REMARK    3  A    between atoms: C_2  and  N_6 
REMARK       I    between atoms: N_6  and  C_9 
REMARK    4  A    between atoms: C_9  and  C_15 
REMARK    5  A    between atoms: O_26  and  C_13 
REMARK    6  A    between atoms: O_27  and  C_14 
ROOT
ATOM      1  N   UNL d   1     -42.340-123.776 -52.767  0.00  0.00    -0.183 NA
ATOM      2  C   UNL d   1     -42.082-123.234 -53.339  0.00  0.00     0.281 C 
ATOM      3  O   UNL d   1     -41.960-123.490 -54.112  0.00  0.00    -0.265 OA
ENDROOT
BRANCH   2   4
ATOM      4  C   UNL d   1     -41.954-122.463 -53.125  0.00  0.00     0.058 A 
ATOM      5  C   UNL d   1     -42.497-121.877 -53.310  0.00  0.00     0.005 A 
ATOM      6  C   UNL d   1     -42.366-121.095 -53.091  0.00  0.00     0.013 A 
ATOM      7  C   UNL d   1     -41.676-120.894 -52.678  0.00  0.00     0.104 A 
ATOM      8  C   UNL d   1     -41.123-121.480 -52.488  0.00  0.00     0.013 A 
ATOM      9  C   UNL d   1     -41.263-122.263 -52.712  0.00  0.00     0.005 A 
BRANCH   7  10
ATOM     10  S   UNL d   1     -41.542-120.110 -52.458  0.00  0.00     0.272 S 
ATOM     11  O   UNL d   1     -41.837-120.276 -51.700  0.00  0.00    -0.200 OA
ATOM     12  O   UNL d   1     -41.250-119.951 -53.211  0.00  0.00    -0.200 OA
BRANCH  10  13
ATOM     13  N   UNL d   1     -41.407-119.327 -52.240  0.00  0.00    -0.225 N 
ATOM     14  C   UNL d   1     -41.420-119.111 -51.451  0.00  0.00     0.118 A 
ATOM     15  C   UNL d   1     -41.283-118.324 -51.243  0.00  0.00     0.142 A 
ATOM     16  O   UNL d   1     -41.138-117.766 -51.820  0.00  0.00    -0.300 OA
ATOM     17  C   UNL d   1     -41.126-117.985 -52.613  0.00  0.00     0.142 A 
ATOM     18  C   UNL d   1     -41.260-118.762 -52.823  0.00  0.00     0.118 A 
ENDBRANCH  10  13
ENDBRANCH   7  10
ENDBRANCH   2   4
BRANCH   1  19
ATOM     19  C   UNL d   1     -42.466-123.526 -51.979  0.00  0.00     0.197 A 
ATOM     20  N   UNL d   1     -43.132-123.132 -51.695  0.00  0.00    -0.218 NA
ATOM     21  C   UNL d   1     -43.020-122.995 -50.893  0.00  0.00     0.114 A 
ATOM     22  C   UNL d   1     -43.486-122.630 -50.321  0.00  0.00     0.112 A 
ATOM     23  C   UNL d   1     -42.285-123.304 -50.684  0.00  0.00     0.074 A 
ATOM     24  C   UNL d   1     -43.224-122.571 -49.541  0.00  0.00     0.028 A 
ATOM     25  C   UNL d   1     -42.482-122.886 -49.337  0.00  0.00     0.027 A 
ATOM     26  C   UNL d   1     -42.015-123.249 -49.904  0.00  0.00     0.102 A 
ATOM     27  S   UNL d   1     -41.947-123.633 -51.366  0.00  0.00    -0.045 SA
BRANCH  22  28
ATOM     28  O   UNL d   1     -44.233-122.314 -50.526  0.00  0.00    -0.327 OA
ATOM     29  C   UNL d   1     -44.364-121.501 -50.475  0.00  0.00     0.181 C 
ENDBRANCH  22  28
BRANCH  26  30
ATOM     30  O   UNL d   1     -41.269-123.565 -49.700  0.00  0.00    -0.328 OA
ATOM     31  C   UNL d   1     -41.126-123.812 -48.928  0.00  0.00     0.181 C 
ENDBRANCH  26  30
ENDBRANCH   1  19
TORSDOF 6
ENDMDL
MODEL 3
REMARK VINA RESULT:      28.8      1.602      4.535
REMARK  6 active torsions:
REMARK  status: ('A' for Active; 'I' for Inactive)
REMARK    1  A    between atoms: N_8  and  S_1 
REMARK    2  A    between atoms: C_10  and  S_1 
REMARK    3  A    between atoms: C_2  and  N_6 
REMARK       I    between atoms: N_6  and  C_9 
REMARK    4  A    between atoms: C_9  and  C_15 
REMARK    5  A    between atoms: O_26  and  C_13 
REMARK    6  A    between atoms: O_27  and  C_14 
ROOT
ATOM      1  N   UNL d   1     -44.668-121.547 -51.857  0.00  0.00    -0.183 NA
ATOM      2  C   UNL d   1     -44.961-121.717 -51.099  0.00  0.00     0.281 C 
ATOM      3  O   UNL d   1     -45.755-121.575 -50.933  0.00  0.00    -0.265 OA
ENDROOT
BRANCH   2   4
ATOM      4  C   UNL d   1     -44.460-122.019 -50.539  0.00  0.00     0.058 A 
ATOM      5  C   UNL d   1     -44.456-122.819 -50.363  0.00  0.00     0.005 A 
ATOM      6  C   UNL d   1     -43.946-123.123 -49.793  0.00  0.00     0.013 A 
ATOM      7  C   UNL d   1     -43.428-122.616 -49.392  0.00  0.00     0.104 A 
ATOM      8  C   UNL d   1     -43.427-121.806 -49.565  0.00  0.00     0.013 A 
ATOM      9  C   UNL d   1     -43.942-121.510 -50.137  0.00  0.00     0.005 A 
BRANCH   7  10
ATOM     10  S   UNL d   1     -42.915-122.919 -48.820  0.00  0.00     0.272 S 
ATOM     11  O   UNL d   1     -42.814-123.603 -49.278  0.00  0.00    -0.200 OA
ATOM     12  O   UNL d   1     -43.020-122.238 -48.369  0.00  0.00    -0.200 OA
BRANCH  10  13
ATOM     13  N   UNL d   1     -42.404-123.219 -48.248  0.00  0.00    -0.225 N 
ATOM     14  C   UNL d   1     -41.629-123.394 -48.441  0.00  0.00     0.118 A 
ATOM     15  C   UNL d   1     -41.124-123.694 -47.861  0.00  0.00     0.142 A 
ATOM     16  O   UNL d   1     -41.397-123.816 -47.102  0.00  0.00    -0.300 OA
ATOM     17  C   UNL d   1     -42.177-123.639 -46.910  0.00  0.00     0.142 A 
ATOM     18  C   UNL d   1     -42.680-123.342 -47.480  0.00  0.00     0.118 A 
ENDBRANCH  10  13
ENDBRANCH   7  10
ENDBRANCH   2   4
BRANCH   1  19
ATOM     19  C   UNL d   1     -43.863-121.688 -52.035  0.00  0.00     0.197 A 
ATOM     20  N   UNL d   1     -43.575-122.238 -52.578  0.00  0.00    -0.218 NA
ATOM     21  C   UNL d   1     -42.755-122.188 -52.575  0.00  0.00     0.114 A 
ATOM     22  C   UNL d   1     -42.172-122.591 -52.993  0.00  0.00     0.112 A 
ATOM     23  C   UNL d   1     -42.539-121.608 -52.031  0.00  0.00     0.074 A 
ATOM     24  C   UNL d   1     -41.375-122.420 -52.873  0.00  0.00     0.028 A 
ATOM     25  C   UNL d   1     -41.164-121.833 -52.322  0.00  0.00     0.027 A 
ATOM     26  C   UNL d   1     -41.741-121.430 -51.905  0.00  0.00     0.102 A 
ATOM     27  S   UNL d   1     -43.235-121.301 -51.700  0.00  0.00    -0.045 SA
BRANCH  22  28
ATOM     28  O   UNL d   1     -42.383-123.182 -53.547  0.00  0.00    -0.327 OA
ATOM     29  C   UNL d   1     -41.839-123.766 -53.755  0.00  0.00     0.181 C 
ENDBRANCH  22  28
BRANCH  26  30
ATOM     30  O   UNL d   1     -41.531-120.840 -51.351  0.00  0.00    -0.328 OA
ATOM     31  C   UNL d   1     -41.124-120.169 -51.602  0.00  0.00     0.181 C 
ENDBRANCH  26  30
ENDBRANCH   1  19
TORSDOF 6
ENDMDL
