MODEL 1
REMARK VINA RESULT:      -9.2      0.000      0.000
REMARK  4 active torsions:
REMARK  status: ('A' for Active; 'I' for Inactive)
REMARK    1  A    between atoms: C_8  and  C_1 
REMARK    2  A    between atoms: N_4  and  C_2 
REMARK       I    between atoms: C_6  and  N_4 
REMARK    3  A    between atoms: C_9  and  C_6 
REMARK    4  A    between atoms: O_16  and  C_8 
ROOT
ATOM      1  C   UNL d   1      53.265  32.106  53.456  0.00  0.00     0.110 A 
ATOM      2  C   UNL d   1      53.092  32.922  53.447  0.00  0.00     0.096 A 
ATOM      3  S   UNL d   1      53.816  32.000  54.008  0.00  0.00    -0.080 SA
ATOM      4  C   UNL d   1      53.539  33.290  53.989  0.00  0.00     0.024 A 
ATOM      5  C   UNL d   1      54.012  32.723  54.363  0.00  0.00     0.031 A 
ATOM      6  C   UNL d   1      53.603  34.086  54.223  0.00  0.00     0.002 A 
ATOM      7  C   UNL d   1      54.532  32.931  54.948  0.00  0.00     0.006 A 
ATOM      8  C   UNL d   1      54.120  34.296  54.805  0.00  0.00     0.000 A 
ATOM      9  C   UNL d   1      54.590  33.710  55.171  0.00  0.00     0.001 A 
ENDROOT
BRANCH   2  10
ATOM     10  N   UNL d   1      52.540  33.291  52.950  0.00  0.00    -0.207 NA
ATOM     11  C   UNL d   1      51.794  33.506  53.257  0.00  0.00     0.285 C 
ATOM     12  O   UNL d   1      51.635  33.341  54.047  0.00  0.00    -0.265 OA
BRANCH  11  13
ATOM     13  C   UNL d   1      51.234  33.869  52.792  0.00  0.00     0.087 A 
ATOM     14  S   UNL d   1      50.482  34.085  53.051  0.00  0.00    -0.082 SA
ATOM     15  C   UNL d   1      50.086  34.431  52.431  0.00  0.00     0.036 A 
ATOM     16  C   UNL d   1      50.607  34.429  51.774  0.00  0.00     0.008 A 
ATOM     17  C   UNL d   1      51.304  34.085  51.998  0.00  0.00     0.012 A 
ENDBRANCH  11  13
ENDBRANCH   2  10
BRANCH   1  18
ATOM     18  C   UNL d   1      52.941  31.481  52.988  0.00  0.00     0.303 C 
ATOM     19  O   UNL d   1      53.009  31.543  52.172  0.00  0.00    -0.259 OA
BRANCH  18  20
ATOM     20  O   UNL d   1      52.572  30.840  53.336  0.00  0.00    -0.295 OA
ATOM     21  C   UNL d   1      52.564  30.113  52.969  0.00  0.00     0.185 C 
ENDBRANCH  18  20
ENDBRANCH   1  18
TORSDOF 4
ENDMDL
MODEL 2
REMARK VINA RESULT:      -9.2      1.352      3.492
REMARK  4 active torsions:
REMARK  status: ('A' for Active; 'I' for Inactive)
REMARK    1  A    between atoms: C_8  and  C_1 
REMARK    2  A    between atoms: N_4  and  C_2 
REMARK       I    between atoms: C_6  and  N_4 
REMARK    3  A    between atoms: C_9  and  C_6 
REMARK    4  A    between atoms: O_16  and  C_8 
ROOT
ATOM      1  C   UNL d   1      53.387  33.541  53.838  0.00  0.00     0.110 A 
ATOM      2  C   UNL d   1      52.780  32.980  53.729  0.00  0.00     0.096 A 
ATOM      3  S   UNL d   1      53.090  34.237  53.624  0.00  0.00    -0.080 SA
ATOM      4  C   UNL d   1      52.133  33.345  53.452  0.00  0.00     0.024 A 
ATOM      5  C   UNL d   1      52.304  34.151  53.375  0.00  0.00     0.031 A 
ATOM      6  C   UNL d   1      51.375  33.072  53.244  0.00  0.00     0.002 A 
ATOM      7  C   UNL d   1      51.748  34.674  53.103  0.00  0.00     0.006 A 
ATOM      8  C   UNL d   1      50.819  33.590  52.972  0.00  0.00     0.000 A 
ATOM      9  C   UNL d   1      51.010  34.401  52.901  0.00  0.00     0.001 A 
ENDROOT
BRANCH   2  10
ATOM     10  N   UNL d   1      52.842  32.167  53.884  0.00  0.00    -0.207 NA
ATOM     11  C   UNL d   1      52.959  31.638  53.249  0.00  0.00     0.285 C 
ATOM     12  O   UNL d   1      53.009  31.946  52.489  0.00  0.00    -0.265 OA
BRANCH  11  13
ATOM     13  C   UNL d   1      53.023  30.837  53.372  0.00  0.00     0.087 A 
ATOM     14  S   UNL d   1      52.816  30.262  52.820  0.00  0.00    -0.082 SA
ATOM     15  C   UNL d   1      52.958  29.530  53.144  0.00  0.00     0.036 A 
ATOM     16  C   UNL d   1      53.261  29.657  53.916  0.00  0.00     0.008 A 
ATOM     17  C   UNL d   1      53.299  30.453  54.050  0.00  0.00     0.012 A 
ENDBRANCH  11  13
ENDBRANCH   2  10
BRANCH   1  18
ATOM     18  C   UNL d   1      54.177  33.432  54.121  0.00  0.00     0.303 C 
ATOM     19  O   UNL d   1      54.769  33.324  53.562  0.00  0.00    -0.259 OA
BRANCH  18  20
ATOM     20  O   UNL d   1      54.343  33.433  54.921  0.00  0.00    -0.295 OA
ATOM     21  C   UNL d   1      55.089  33.615  55.192  0.00  0.00     0.185 C 
ENDBRANCH  18  20
ENDBRANCH   1  18
TORSDOF 4
ENDMDL
MODEL 3
REMARK VINA RESULT:      -9.1      1.344      3.532
REMARK  4 active torsions:
REMARK  status: ('A' for Active; 'I' for Inactive)
REMARK    1  A    between atoms: C_8  and  C_1 
REMARK    2  A    between atoms: N_4  and  C_2 
REMARK       I    between atoms: C_6  and  N_4 
REMARK    3  A    between atoms: C_9  and  C_6 
REMARK    4  A    between atoms: O_16  and  C_8 
ROOT
ATOM      1  C   UNL d   1      52.483  32.199  53.034  0.00  0.00     0.110 A 
ATOM      2  C   UNL d   1      53.226  31.983  53.343  0.00  0.00     0.096 A 
ATOM      3  S   UNL d   1      52.096  31.528  52.893  0.00  0.00    -0.080 SA
ATOM      4  C   UNL d   1      53.274  31.192  53.382  0.00  0.00     0.024 A 
ATOM      5  C   UNL d   1      52.564  30.876  53.100  0.00  0.00     0.031 A 
ATOM      6  C   UNL d   1      53.873  30.675  53.639  0.00  0.00     0.002 A 
ATOM      7  C   UNL d   1      52.444  30.075  53.070  0.00  0.00     0.006 A 
ATOM      8  C   UNL d   1      53.757  29.877  53.611  0.00  0.00     0.000 A 
ATOM      9  C   UNL d   1      53.032  29.575  53.322  0.00  0.00     0.001 A 
ENDROOT
BRANCH   2  10
ATOM     10  N   UNL d   1      53.823  32.512  53.575  0.00  0.00    -0.207 NA
ATOM     11  C   UNL d   1      53.958  32.645  54.387  0.00  0.00     0.285 C 
ATOM     12  O   UNL d   1      53.489  32.243  54.931  0.00  0.00    -0.265 OA
BRANCH  11  13
ATOM     13  C   UNL d   1      54.535  33.157  54.642  0.00  0.00     0.087 A 
ATOM     14  S   UNL d   1      54.556  33.502  55.390  0.00  0.00    -0.082 SA
ATOM     15  C   UNL d   1      55.214  33.978  55.437  0.00  0.00     0.036 A 
ATOM     16  C   UNL d   1      55.609  33.924  54.699  0.00  0.00     0.008 A 
ATOM     17  C   UNL d   1      55.192  33.424  54.219  0.00  0.00     0.012 A 
ENDBRANCH  11  13
ENDBRANCH   2  10
BRANCH   1  18
ATOM     18  C   UNL d   1      52.163  32.967  52.885  0.00  0.00     0.303 C 
ATOM     19  O   UNL d   1      52.481  33.397  52.262  0.00  0.00    -0.259 OA
BRANCH  18  20
ATOM     20  O   UNL d   1      51.561  33.271  53.347  0.00  0.00    -0.295 OA
ATOM     21  C   UNL d   1      51.117  33.904  53.090  0.00  0.00     0.185 C 
ENDBRANCH  18  20
ENDBRANCH   1  18
TORSDOF 4
ENDMDL
MODEL 4
REMARK VINA RESULT:      -9.1      1.106      3.028
REMARK  4 active torsions:
REMARK  status: ('A' for Active; 'I' for Inactive)
REMARK    1  A    between atoms: C_8  and  C_1 
REMARK    2  A    between atoms: N_4  and  C_2 
REMARK       I    between atoms: C_6  and  N_4 
REMARK    3  A    between atoms: C_9  and  C_6 
REMARK    4  A    between atoms: O_16  and  C_8 
ROOT
ATOM      1  C   UNL d   1      52.644  33.637  53.818  0.00  0.00     0.110 A 
ATOM      2  C   UNL d   1      53.086  33.010  54.145  0.00  0.00     0.096 A 
ATOM      3  S   UNL d   1      53.004  34.302  54.036  0.00  0.00    -0.080 SA
ATOM      4  C   UNL d   1      53.700  33.307  54.551  0.00  0.00     0.024 A 
ATOM      5  C   UNL d   1      53.671  34.132  54.497  0.00  0.00     0.031 A 
ATOM      6  C   UNL d   1      54.314  32.952  54.985  0.00  0.00     0.002 A 
ATOM      7  C   UNL d   1      54.229  34.595  54.858  0.00  0.00     0.006 A 
ATOM      8  C   UNL d   1      54.872  33.410  55.345  0.00  0.00     0.000 A 
ATOM      9  C   UNL d   1      54.826  34.243  55.280  0.00  0.00     0.001 A 
ENDROOT
BRANCH   2  10
ATOM     10  N   UNL d   1      52.912  32.203  54.060  0.00  0.00    -0.207 NA
ATOM     11  C   UNL d   1      53.367  31.741  53.535  0.00  0.00     0.285 C 
ATOM     12  O   UNL d   1      53.975  32.108  53.119  0.00  0.00    -0.265 OA
BRANCH  11  13
ATOM     13  C   UNL d   1      53.220  30.948  53.431  0.00  0.00     0.087 A 
ATOM     14  S   UNL d   1      52.972  30.608  52.723  0.00  0.00    -0.082 SA
ATOM     15  C   UNL d   1      52.884  29.808  52.838  0.00  0.00     0.036 A 
ATOM     16  C   UNL d   1      53.082  29.651  53.638  0.00  0.00     0.008 A 
ATOM     17  C   UNL d   1      53.286  30.348  53.995  0.00  0.00     0.012 A 
ENDBRANCH  11  13
ENDBRANCH   2  10
BRANCH   1  18
ATOM     18  C   UNL d   1      51.945  33.613  53.343  0.00  0.00     0.303 C 
ATOM     19  O   UNL d   1      51.259  33.322  53.689  0.00  0.00    -0.259 OA
BRANCH  18  20
ATOM     20  O   UNL d   1      51.952  33.870  52.567  0.00  0.00    -0.295 OA
ATOM     21  C   UNL d   1      51.263  34.089  52.193  0.00  0.00     0.185 C 
ENDBRANCH  18  20
ENDBRANCH   1  18
TORSDOF 4
ENDMDL
MODEL 5
REMARK VINA RESULT:      -9.0      1.044      2.471
REMARK  4 active torsions:
REMARK  status: ('A' for Active; 'I' for Inactive)
REMARK    1  A    between atoms: C_8  and  C_1 
REMARK    2  A    between atoms: N_4  and  C_2 
REMARK       I    between atoms: C_6  and  N_4 
REMARK    3  A    between atoms: C_9  and  C_6 
REMARK    4  A    between atoms: O_16  and  C_8 
ROOT
ATOM      1  C   UNL d   1      53.880  32.203  53.770  0.00  0.00     0.110 A 
ATOM      2  C   UNL d   1      53.217  32.080  53.280  0.00  0.00     0.096 A 
ATOM      3  S   UNL d   1      54.110  31.492  54.017  0.00  0.00    -0.080 SA
ATOM      4  C   UNL d   1      53.060  31.304  53.241  0.00  0.00     0.024 A 
ATOM      5  C   UNL d   1      53.617  30.904  53.704  0.00  0.00     0.031 A 
ATOM      6  C   UNL d   1      52.476  30.864  52.844  0.00  0.00     0.002 A 
ATOM      7  C   UNL d   1      53.602  30.097  53.775  0.00  0.00     0.006 A 
ATOM      8  C   UNL d   1      52.458  30.061  52.913  0.00  0.00     0.000 A 
ATOM      9  C   UNL d   1      53.029  29.674  53.385  0.00  0.00     0.001 A 
ENDROOT
BRANCH   2  10
ATOM     10  N   UNL d   1      52.787  32.676  52.893  0.00  0.00    -0.207 NA
ATOM     11  C   UNL d   1      52.061  32.931  53.217  0.00  0.00     0.285 C 
ATOM     12  O   UNL d   1      51.799  32.578  53.913  0.00  0.00    -0.265 OA
BRANCH  11  13
ATOM     13  C   UNL d   1      51.619  33.512  52.860  0.00  0.00     0.087 A 
ATOM     14  S   UNL d   1      50.919  33.820  53.166  0.00  0.00    -0.082 SA
ATOM     15  C   UNL d   1      50.642  34.388  52.654  0.00  0.00     0.036 A 
ATOM     16  C   UNL d   1      51.185  34.431  52.017  0.00  0.00     0.008 A 
ATOM     17  C   UNL d   1      51.778  33.897  52.147  0.00  0.00     0.012 A 
ENDBRANCH  11  13
ENDBRANCH   2  10
BRANCH   1  18
ATOM     18  C   UNL d   1      54.264  32.925  53.986  0.00  0.00     0.303 C 
ATOM     19  O   UNL d   1      54.681  33.325  53.403  0.00  0.00    -0.259 OA
BRANCH  18  20
ATOM     20  O   UNL d   1      54.220  33.213  54.750  0.00  0.00    -0.295 OA
ATOM     21  C   UNL d   1      54.781  33.731  55.033  0.00  0.00     0.185 C 
ENDBRANCH  18  20
ENDBRANCH   1  18
TORSDOF 4
ENDMDL
MODEL 6
REMARK VINA RESULT:      -8.2      1.004      3.136
REMARK  4 active torsions:
REMARK  status: ('A' for Active; 'I' for Inactive)
REMARK    1  A    between atoms: C_8  and  C_1 
REMARK    2  A    between atoms: N_4  and  C_2 
REMARK       I    between atoms: C_6  and  N_4 
REMARK    3  A    between atoms: C_9  and  C_6 
REMARK    4  A    between atoms: O_16  and  C_8 
ROOT
ATOM      1  C   UNL d   1      52.385  32.258  52.993  0.00  0.00     0.110 A 
ATOM      2  C   UNL d   1      52.670  33.010  53.213  0.00  0.00     0.096 A 
ATOM      3  S   UNL d   1      51.630  32.355  52.792  0.00  0.00    -0.080 SA
ATOM      4  C   UNL d   1      52.087  33.542  53.142  0.00  0.00     0.024 A 
ATOM      5  C   UNL d   1      51.410  33.150  52.874  0.00  0.00     0.031 A 
ATOM      6  C   UNL d   1      52.050  34.362  53.282  0.00  0.00     0.002 A 
ATOM      7  C   UNL d   1      50.717  33.549  52.747  0.00  0.00     0.006 A 
ATOM      8  C   UNL d   1      51.361  34.762  53.156  0.00  0.00     0.000 A 
ATOM      9  C   UNL d   1      50.687  34.349  52.885  0.00  0.00     0.001 A 
ENDROOT
BRANCH   2  10
ATOM     10  N   UNL d   1      53.443  33.176  53.468  0.00  0.00    -0.207 NA
ATOM     11  C   UNL d   1      53.587  33.299  54.280  0.00  0.00     0.285 C 
ATOM     12  O   UNL d   1      52.952  33.251  54.801  0.00  0.00    -0.265 OA
BRANCH  11  13
ATOM     13  C   UNL d   1      54.333  33.464  54.557  0.00  0.00     0.087 A 
ATOM     14  S   UNL d   1      54.528  33.542  55.354  0.00  0.00    -0.082 SA
ATOM     15  C   UNL d   1      55.323  33.705  55.410  0.00  0.00     0.036 A 
ATOM     16  C   UNL d   1      55.626  33.727  54.628  0.00  0.00     0.008 A 
ATOM     17  C   UNL d   1      55.020  33.580  54.113  0.00  0.00     0.012 A 
ENDBRANCH  11  13
ENDBRANCH   2  10
BRANCH   1  18
ATOM     18  C   UNL d   1      52.786  31.514  52.972  0.00  0.00     0.303 C 
ATOM     19  O   UNL d   1      53.358  31.405  52.392  0.00  0.00    -0.259 OA
BRANCH  18  20
ATOM     20  O   UNL d   1      52.611  30.925  53.510  0.00  0.00    -0.295 OA
ATOM     21  C   UNL d   1      52.852  30.157  53.383  0.00  0.00     0.185 C 
ENDBRANCH  18  20
ENDBRANCH   1  18
TORSDOF 4
ENDMDL
