MODEL 1
REMARK VINA RESULT:      -3.1      0.000      0.000
REMARK  4 active torsions:
REMARK  status: ('A' for Active; 'I' for Inactive)
REMARK    1  A    between atoms: N_2  and  S_1 
REMARK    2  A    between atoms: C_5  and  S_1 
REMARK    3  A    between atoms: C_4  and  N_2 
REMARK    4  A    between atoms: C_7  and  C_3 
ROOT
ATOM      1  S   UNL d   1      31.881  16.796 -24.483  0.00  0.00     0.285 S 
ATOM      2  O   UNL d   1      31.715  17.352 -25.096  0.00  0.00    -0.198 OA
ATOM      3  O   UNL d   1      32.052  16.237 -23.864  0.00  0.00    -0.198 OA
ENDROOT
BRANCH   1   4
ATOM      4  N   UNL d   1      32.651  17.129 -24.390  0.00  0.00    -0.158 NA
BRANCH   4   5
ATOM      5  C   UNL d   1      32.803  17.730 -23.818  0.00  0.00     0.094 A 
ATOM      6  C   UNL d   1      33.042  17.525 -23.096  0.00  0.00     0.018 A 
ATOM      7  C   UNL d   1      33.204  18.076 -22.501  0.00  0.00     0.002 A 
ATOM      8  C   UNL d   1      33.119  16.744 -22.971  0.00  0.00     0.002 C 
ATOM      9  C   UNL d   1      33.107  18.901 -22.684  0.00  0.00     0.000 A 
ATOM     10  C   UNL d   1      32.864  19.064 -23.427  0.00  0.00     0.002 A 
ATOM     11  C   UNL d   1      33.241  19.522 -22.168  0.00  0.00     0.000 C 
ATOM     12  C   UNL d   1      32.699  18.515 -24.029  0.00  0.00     0.018 A 
ATOM     13  C   UNL d   1      32.457  18.747 -24.758  0.00  0.00     0.002 C 
ENDBRANCH   4   5
ENDBRANCH   1   4
BRANCH   1  14
ATOM     14  C   UNL d   1      31.101  16.461 -24.580  0.00  0.00     0.106 A 
ATOM     15  C   UNL d   1      30.465  16.875 -24.236  0.00  0.00     0.020 A 
ATOM     16  C   UNL d   1      29.705  16.565 -24.320  0.00  0.00     0.076 A 
ATOM     17  C   UNL d   1      29.576  15.863 -24.734  0.00  0.00     0.064 A 
ATOM     18  C   UNL d   1      30.204  15.457 -25.071  0.00  0.00     0.012 A 
ATOM     19 CL   UNL d   1      28.802  15.562 -24.810  0.00  0.00    -0.082 Cl
ATOM     20  C   UNL d   1      30.965  15.726 -25.013  0.00  0.00     0.014 A 
BRANCH  16  21
ATOM     21  C   UNL d   1      29.063  16.980 -23.976  0.00  0.00     0.212 C 
ATOM     22  O   UNL d   1      28.811  16.670 -23.269  0.00  0.00    -0.644 OA
ATOM     23  O   UNL d   1      28.730  17.666 -24.366  0.00  0.00    -0.644 OA
ENDBRANCH  16  21
ENDBRANCH   1  14
TORSDOF 4
ENDMDL
MODEL 2
REMARK VINA RESULT:      -2.5      0.890      1.505
REMARK  4 active torsions:
REMARK  status: ('A' for Active; 'I' for Inactive)
REMARK    1  A    between atoms: N_2  and  S_1 
REMARK    2  A    between atoms: C_5  and  S_1 
REMARK    3  A    between atoms: C_4  and  N_2 
REMARK    4  A    between atoms: C_7  and  C_3 
ROOT
ATOM      1  S   UNL d   1      30.841  16.602 -24.667  0.00  0.00     0.285 S 
ATOM      2  O   UNL d   1      30.529  17.258 -25.095  0.00  0.00    -0.198 OA
ATOM      3  O   UNL d   1      31.161  15.941 -24.236  0.00  0.00    -0.198 OA
ENDROOT
BRANCH   1   4
ATOM      4  N   UNL d   1      31.622  16.905 -24.771  0.00  0.00    -0.158 NA
BRANCH   4   5
ATOM      5  C   UNL d   1      31.989  17.385 -24.182  0.00  0.00     0.094 A 
ATOM      6  C   UNL d   1      31.948  18.169 -24.242  0.00  0.00     0.018 A 
ATOM      7  C   UNL d   1      32.291  18.682 -23.691  0.00  0.00     0.002 A 
ATOM      8  C   UNL d   1      31.552  18.443 -24.875  0.00  0.00     0.002 C 
ATOM      9  C   UNL d   1      32.705  18.341 -23.031  0.00  0.00     0.000 A 
ATOM     10  C   UNL d   1      32.721  17.543 -23.009  0.00  0.00     0.002 A 
ATOM     11  C   UNL d   1      33.077  18.760 -22.435  0.00  0.00     0.000 C 
ATOM     12  C   UNL d   1      32.379  17.022 -23.559  0.00  0.00     0.018 A 
ATOM     13  C   UNL d   1      32.433  16.225 -23.478  0.00  0.00     0.002 C 
ENDBRANCH   4   5
ENDBRANCH   1   4
BRANCH   1  14
ATOM     14  C   UNL d   1      30.050  16.296 -24.563  0.00  0.00     0.106 A 
ATOM     15  C   UNL d   1      29.610  16.593 -23.921  0.00  0.00     0.020 A 
ATOM     16  C   UNL d   1      28.845  16.308 -23.807  0.00  0.00     0.076 A 
ATOM     17  C   UNL d   1      28.520  15.745 -24.314  0.00  0.00     0.064 A 
ATOM     18  C   UNL d   1      28.955  15.455 -24.946  0.00  0.00     0.012 A 
ATOM     19 CL   UNL d   1      27.744  15.466 -24.186  0.00  0.00    -0.082 Cl
ATOM     20  C   UNL d   1      29.710  15.706 -25.095  0.00  0.00     0.014 A 
BRANCH  16  21
ATOM     21  C   UNL d   1      28.399  16.605 -23.161  0.00  0.00     0.212 C 
ATOM     22  O   UNL d   1      28.183  17.383 -23.239  0.00  0.00    -0.644 OA
ATOM     23  O   UNL d   1      28.210  16.099 -22.495  0.00  0.00    -0.644 OA
ENDBRANCH  16  21
ENDBRANCH   1  14
TORSDOF 4
ENDMDL
MODEL 3
REMARK VINA RESULT:      -2.3      1.978      3.807
REMARK  4 active torsions:
REMARK  status: ('A' for Active; 'I' for Inactive)
REMARK    1  A    between atoms: N_2  and  S_1 
REMARK    2  A    between atoms: C_5  and  S_1 
REMARK    3  A    between atoms: C_4  and  N_2 
REMARK    4  A    between atoms: C_7  and  C_3 
ROOT
ATOM      1  S   UNL d   1      31.907  17.539 -24.581  0.00  0.00     0.285 S 
ATOM      2  O   UNL d   1      31.269  17.934 -24.966  0.00  0.00    -0.198 OA
ATOM      3  O   UNL d   1      32.549  17.136 -24.193  0.00  0.00    -0.198 OA
ENDROOT
BRANCH   1   4
ATOM      4  N   UNL d   1      31.567  16.793 -24.782  0.00  0.00    -0.158 NA
BRANCH   4   5
ATOM      5  C   UNL d   1      30.955  16.448 -24.315  0.00  0.00     0.094 A 
ATOM      6  C   UNL d   1      31.133  15.870 -23.812  0.00  0.00     0.018 A 
ATOM      7  C   UNL d   1      30.569  15.500 -23.332  0.00  0.00     0.002 A 
ATOM      8  C   UNL d   1      31.899  15.659 -23.791  0.00  0.00     0.002 C 
ATOM      9  C   UNL d   1      29.762  15.762 -23.390  0.00  0.00     0.000 A 
ATOM     10  C   UNL d   1      29.626  16.350 -23.913  0.00  0.00     0.002 A 
ATOM     11  C   UNL d   1      29.133  15.462 -22.961  0.00  0.00     0.000 C 
ATOM     12  C   UNL d   1      30.188  16.726 -24.397  0.00  0.00     0.018 A 
ATOM     13  C   UNL d   1      29.984  17.314 -24.903  0.00  0.00     0.002 C 
ENDBRANCH   4   5
ENDBRANCH   1   4
BRANCH   1  14
ATOM     14  C   UNL d   1      32.249  18.295 -24.378  0.00  0.00     0.106 A 
ATOM     15  C   UNL d   1      32.391  18.443 -23.571  0.00  0.00     0.020 A 
ATOM     16  C   UNL d   1      32.721  19.168 -23.358  0.00  0.00     0.076 A 
ATOM     17  C   UNL d   1      32.907  19.735 -23.929  0.00  0.00     0.064 A 
ATOM     18  C   UNL d   1      32.766  19.586 -24.723  0.00  0.00     0.012 A 
ATOM     19 CL   UNL d   1      33.240  20.464 -23.698  0.00  0.00    -0.082 Cl
ATOM     20  C   UNL d   1      32.443  18.889 -24.976  0.00  0.00     0.014 A 
BRANCH  16  21
ATOM     21  C   UNL d   1      32.865  19.320 -22.546  0.00  0.00     0.212 C 
ATOM     22  O   UNL d   1      33.237  18.712 -22.158  0.00  0.00    -0.644 OA
ATOM     23  O   UNL d   1      32.626  20.064 -22.194  0.00  0.00    -0.644 OA
ENDBRANCH  16  21
ENDBRANCH   1  14
TORSDOF 4
ENDMDL
MODEL 4
REMARK VINA RESULT:      -2.1      2.903      4.642
REMARK  4 active torsions:
REMARK  status: ('A' for Active; 'I' for Inactive)
REMARK    1  A    between atoms: N_2  and  S_1 
REMARK    2  A    between atoms: C_5  and  S_1 
REMARK    3  A    between atoms: C_4  and  N_2 
REMARK    4  A    between atoms: C_7  and  C_3 
ROOT
ATOM      1  S   UNL d   1      33.117  19.471 -23.502  0.00  0.00     0.285 S 
ATOM      2  O   UNL d   1      32.998  19.063 -22.774  0.00  0.00    -0.198 OA
ATOM      3  O   UNL d   1      33.238  19.879 -24.240  0.00  0.00    -0.198 OA
ENDROOT
BRANCH   1   4
ATOM      4  N   UNL d   1      33.169  18.733 -23.907  0.00  0.00    -0.158 NA
BRANCH   4   5
ATOM      5  C   UNL d   1      32.488  18.249 -24.029  0.00  0.00     0.094 A 
ATOM      6  C   UNL d   1      32.011  18.400 -24.636  0.00  0.00     0.018 A 
ATOM      7  C   UNL d   1      31.333  17.956 -24.798  0.00  0.00     0.002 A 
ATOM      8  C   UNL d   1      32.223  19.015 -25.093  0.00  0.00     0.002 C 
ATOM      9  C   UNL d   1      31.147  17.307 -24.280  0.00  0.00     0.000 A 
ATOM     10  C   UNL d   1      31.658  17.189 -23.678  0.00  0.00     0.002 A 
ATOM     11  C   UNL d   1      30.502  16.809 -24.353  0.00  0.00     0.000 C 
ATOM     12  C   UNL d   1      32.341  17.632 -23.510  0.00  0.00     0.018 A 
ATOM     13  C   UNL d   1      32.814  17.460 -22.885  0.00  0.00     0.002 C 
ENDBRANCH   4   5
ENDBRANCH   1   4
BRANCH   1  14
ATOM     14  C   UNL d   1      33.064  20.218 -23.090  0.00  0.00     0.106 A 
ATOM     15  C   UNL d   1      32.831  20.194 -22.291  0.00  0.00     0.020 A 
ATOM     16  C   UNL d   1      32.775  20.906 -21.878  0.00  0.00     0.076 A 
ATOM     17  C   UNL d   1      32.944  21.625 -22.246  0.00  0.00     0.064 A 
ATOM     18  C   UNL d   1      33.173  21.645 -23.033  0.00  0.00     0.012 A 
ATOM     19 CL   UNL d   1      32.882  22.337 -21.815  0.00  0.00    -0.082 Cl
ATOM     20  C   UNL d   1      33.241  20.971 -23.475  0.00  0.00     0.014 A 
BRANCH  16  21
ATOM     21  C   UNL d   1      32.541  20.885 -21.073  0.00  0.00     0.212 C 
ATOM     22  O   UNL d   1      33.115  20.610 -20.570  0.00  0.00    -0.644 OA
ATOM     23  O   UNL d   1      31.756  21.140 -20.842  0.00  0.00    -0.644 OA
ENDBRANCH  16  21
ENDBRANCH   1  14
TORSDOF 4
ENDMDL
MODEL 5
REMARK VINA RESULT:      -1.9      1.874      4.189
REMARK  4 active torsions:
REMARK  status: ('A' for Active; 'I' for Inactive)
REMARK    1  A    between atoms: N_2  and  S_1 
REMARK    2  A    between atoms: C_5  and  S_1 
REMARK    3  A    between atoms: C_4  and  N_2 
REMARK    4  A    between atoms: C_7  and  C_3 
ROOT
ATOM      1  S   UNL d   1      30.130  16.993 -24.473  0.00  0.00     0.285 S 
ATOM      2  O   UNL d   1      30.252  16.185 -24.682  0.00  0.00    -0.198 OA
ATOM      3  O   UNL d   1      30.002  17.809 -24.264  0.00  0.00    -0.198 OA
ENDROOT
BRANCH   1   4
ATOM      4  N   UNL d   1      29.343  16.952 -24.775  0.00  0.00    -0.158 NA
BRANCH   4   5
ATOM      5  C   UNL d   1      28.721  16.589 -24.335  0.00  0.00     0.094 A 
ATOM      6  C   UNL d   1      28.507  15.851 -24.505  0.00  0.00     0.018 A 
ATOM      7  C   UNL d   1      27.904  15.453 -24.103  0.00  0.00     0.002 A 
ATOM      8  C   UNL d   1      28.911  15.506 -25.097  0.00  0.00     0.002 C 
ATOM      9  C   UNL d   1      27.501  15.864 -23.478  0.00  0.00     0.000 A 
ATOM     10  C   UNL d   1      27.750  16.610 -23.339  0.00  0.00     0.002 A 
ATOM     11  C   UNL d   1      26.894  15.560 -23.022  0.00  0.00     0.000 C 
ATOM     12  C   UNL d   1      28.355  17.016 -23.739  0.00  0.00     0.018 A 
ATOM     13  C   UNL d   1      28.557  17.769 -23.548  0.00  0.00     0.002 C 
ENDBRANCH   4   5
ENDBRANCH   1   4
BRANCH   1  14
ATOM     14  C   UNL d   1      30.927  17.033 -24.167  0.00  0.00     0.106 A 
ATOM     15  C   UNL d   1      31.306  17.774 -24.192  0.00  0.00     0.020 A 
ATOM     16  C   UNL d   1      32.076  17.829 -23.901  0.00  0.00     0.076 A 
ATOM     17  C   UNL d   1      32.462  17.168 -23.593  0.00  0.00     0.064 A 
ATOM     18  C   UNL d   1      32.086  16.440 -23.569  0.00  0.00     0.012 A 
ATOM     19 CL   UNL d   1      33.241  17.240 -23.302  0.00  0.00    -0.082 Cl
ATOM     20  C   UNL d   1      31.332  16.341 -23.844  0.00  0.00     0.014 A 
BRANCH  16  21
ATOM     21  C   UNL d   1      32.461  18.574 -23.925  0.00  0.00     0.212 C 
ATOM     22  O   UNL d   1      32.539  18.928 -23.199  0.00  0.00    -0.644 OA
ATOM     23  O   UNL d   1      32.732  18.899 -24.670  0.00  0.00    -0.644 OA
ENDBRANCH  16  21
ENDBRANCH   1  14
TORSDOF 4
ENDMDL
