MODEL 1
REMARK VINA RESULT:      15.5      0.000      0.000
REMARK  4 active torsions:
REMARK  status: ('A' for Active; 'I' for Inactive)
REMARK       I    between atoms: C_3  and  N_1 
REMARK    1  A    between atoms: C_5  and  N_2 
REMARK    2  A    between atoms: C_4  and  C_3 
REMARK    3  A    between atoms: C_7  and  C_4 
REMARK    4  A    between atoms: C_13  and  C_7 
ROOT
ATOM      1  N   UNL d   1      46.025 -16.349  44.276  0.00  0.00    -0.269 N 
ATOM      2  N   UNL d   1      45.683 -14.729  44.267  0.00  0.00    -0.301 N 
ATOM      3  C   UNL d   1      46.197 -17.150  44.290  0.00  0.00     0.265 C 
ATOM      4  C   UNL d   1      46.185 -15.879  44.950  0.00  0.00     0.102 A 
ATOM      5  C   UNL d   1      45.695 -15.997  43.608  0.00  0.00     0.102 A 
ATOM      6  C   UNL d   1      46.013 -15.069  44.944  0.00  0.00     0.100 A 
ATOM      7  C   UNL d   1      45.523 -15.191  43.597  0.00  0.00     0.100 A 
ATOM      8  O   UNL d   1      46.525 -17.498  44.954  0.00  0.00    -0.267 OA
ENDROOT
BRANCH   3   9
ATOM      9  C   UNL d   1      46.039 -17.616  43.623  0.00  0.00     0.061 C 
BRANCH   9  10
ATOM     10  C   UNL d   1      46.388 -18.362  43.543  0.00  0.00     0.005 C 
BRANCH  10  11
ATOM     11  C   UNL d   1      46.452 -18.707  42.802  0.00  0.00     0.000 A 
ATOM     12  C   UNL d   1      46.383 -19.522  42.730  0.00  0.00     0.002 A 
ATOM     13  C   UNL d   1      46.446 -19.876  41.988  0.00  0.00     0.030 A 
ATOM     14  C   UNL d   1      46.579 -19.403  41.318  0.00  0.00     0.140 A 
ATOM     15  C   UNL d   1      46.646 -18.590  41.403  0.00  0.00     0.030 A 
ATOM     16  F   UNL d   1      46.642 -19.756  40.576  0.00  0.00    -0.204 F 
ATOM     17  C   UNL d   1      46.582 -18.245  42.144  0.00  0.00     0.002 A 
ENDBRANCH  10  11
ENDBRANCH   9  10
ENDBRANCH   3   9
BRANCH   2  18
ATOM     18  C   UNL d   1      45.510 -13.920  44.257  0.00  0.00     0.065 A 
ATOM     19  C   UNL d   1      45.293 -13.556  43.547  0.00  0.00     0.029 A 
ATOM     20  C   UNL d   1      45.120 -12.750  43.533  0.00  0.00     0.059 A 
ATOM     21 CL   UNL d   1      44.903 -12.386  42.823  0.00  0.00    -0.082 Cl
ATOM     22  C   UNL d   1      45.163 -12.304  44.229  0.00  0.00     0.011 A 
ATOM     23  C   UNL d   1      45.381 -12.676  44.937  0.00  0.00     0.002 A 
ATOM     24  C   UNL d   1      45.555 -13.485  44.952  0.00  0.00     0.018 A 
ENDBRANCH   2  18
TORSDOF 4
ENDMDL
