MODEL 1
REMARK VINA RESULT:      -3.6      0.000      0.000
REMARK  4 active torsions:
REMARK  status: ('A' for Active; 'I' for Inactive)
REMARK    1  A    between atoms: C_2  and  S_1 
REMARK    2  A    between atoms: N_11  and  S_1 
REMARK    3  A    between atoms: C_7  and  C_19 
REMARK    4  A    between atoms: C_19  and  N_11 
ROOT
ATOM      1  C   UNL d   1      33.156  20.734 -21.703  0.00  0.00     0.133 C 
ENDROOT
BRANCH   1   2
ATOM      2  C   UNL d   1      33.125  20.082 -22.216  0.00  0.00     0.120 A 
ATOM      3  N   UNL d   1      32.974  19.321 -21.989  0.00  0.00    -0.225 NA
ATOM      4  C   UNL d   1      32.992  18.839 -22.673  0.00  0.00     0.148 A 
ATOM      5  C   UNL d   1      32.880  18.029 -22.785  0.00  0.00     0.037 A 
ATOM      6  N   UNL d   1      33.157  19.326 -23.318  0.00  0.00    -0.288 N 
ATOM      7  C   UNL d   1      32.933  17.706 -23.540  0.00  0.00     0.004 A 
ATOM      8  C   UNL d   1      32.820  16.895 -23.643  0.00  0.00     0.000 C 
ATOM      9  C   UNL d   1      33.097  18.192 -24.184  0.00  0.00     0.019 A 
ATOM     10  C   UNL d   1      33.209  19.001 -24.072  0.00  0.00     0.082 A 
ATOM     11  C   UNL d   1      33.240  20.103 -23.036  0.00  0.00     0.102 A 
ENDBRANCH   1   2
BRANCH   1  12
ATOM     12  N   UNL d   1      32.479  21.185 -21.569  0.00  0.00    -0.155 NA
BRANCH  12  13
ATOM     13  S   UNL d   1      32.513  21.832 -21.053  0.00  0.00     0.291 S 
ATOM     14  O   UNL d   1      33.187  22.114 -21.453  0.00  0.00    -0.198 OA
ATOM     15  O   UNL d   1      31.837  21.545 -20.655  0.00  0.00    -0.198 OA
BRANCH  13  16
ATOM     16  C   UNL d   1      32.545  22.475 -20.537  0.00  0.00     0.135 A 
ATOM     17  S   UNL d   1      32.920  22.495 -19.812  0.00  0.00    -0.062 SA
ATOM     18  C   UNL d   1      32.815  23.243 -19.481  0.00  0.00     0.088 A 
ATOM     19 CL   UNL d   1      33.105  23.495 -18.754  0.00  0.00    -0.075 Cl
ATOM     20  C   UNL d   1      32.363  23.693 -20.017  0.00  0.00     0.019 A 
ATOM     21  C   UNL d   1      32.197  23.219 -20.668  0.00  0.00     0.021 A 
ENDBRANCH  13  16
ENDBRANCH  12  13
ENDBRANCH   1  12
TORSDOF 4
ENDMDL
MODEL 2
REMARK VINA RESULT:      -3.1      2.322      5.062
REMARK  4 active torsions:
REMARK  status: ('A' for Active; 'I' for Inactive)
REMARK    1  A    between atoms: C_2  and  S_1 
REMARK    2  A    between atoms: N_11  and  S_1 
REMARK    3  A    between atoms: C_7  and  C_19 
REMARK    4  A    between atoms: C_19  and  N_11 
ROOT
ATOM      1  C   UNL d   1      32.557  20.705 -21.647  0.00  0.00     0.133 C 
ENDROOT
BRANCH   1   2
ATOM      2  C   UNL d   1      32.612  21.354 -21.132  0.00  0.00     0.120 A 
ATOM      3  N   UNL d   1      32.808  21.308 -20.349  0.00  0.00    -0.225 NA
ATOM      4  C   UNL d   1      32.800  22.085 -20.036  0.00  0.00     0.148 A 
ATOM      5  C   UNL d   1      32.952  22.380 -19.281  0.00  0.00     0.037 A 
ATOM      6  N   UNL d   1      32.596  22.599 -20.646  0.00  0.00    -0.288 N 
ATOM      7  C   UNL d   1      32.900  23.189 -19.136  0.00  0.00     0.004 A 
ATOM      8  C   UNL d   1      33.054  23.476 -18.378  0.00  0.00     0.000 C 
ATOM      9  C   UNL d   1      32.696  23.702 -19.745  0.00  0.00     0.019 A 
ATOM     10  C   UNL d   1      32.543  23.408 -20.500  0.00  0.00     0.082 A 
ATOM     11  C   UNL d   1      32.477  22.146 -21.333  0.00  0.00     0.102 A 
ENDBRANCH   1   2
BRANCH   1  12
ATOM     12  N   UNL d   1      33.240  20.391 -21.987  0.00  0.00    -0.155 NA
BRANCH  12  13
ATOM     13  S   UNL d   1      33.182  19.744 -22.501  0.00  0.00     0.291 S 
ATOM     14  O   UNL d   1      33.186  20.264 -23.153  0.00  0.00    -0.198 OA
ATOM     15  O   UNL d   1      33.178  19.228 -21.845  0.00  0.00    -0.198 OA
BRANCH  13  16
ATOM     16  C   UNL d   1      33.124  19.098 -23.011  0.00  0.00     0.135 A 
ATOM     17  S   UNL d   1      33.147  18.311 -22.797  0.00  0.00    -0.062 SA
ATOM     18  C   UNL d   1      33.070  17.850 -23.476  0.00  0.00     0.088 A 
ATOM     19 CL   UNL d   1      33.066  17.028 -23.506  0.00  0.00    -0.075 Cl
ATOM     20  C   UNL d   1      32.997  18.369 -24.124  0.00  0.00     0.019 A 
ATOM     21  C   UNL d   1      33.030  19.139 -23.836  0.00  0.00     0.021 A 
ENDBRANCH  13  16
ENDBRANCH  12  13
ENDBRANCH   1  12
TORSDOF 4
ENDMDL
MODEL 3
REMARK VINA RESULT:      -1.7      3.143      5.337
REMARK  4 active torsions:
REMARK  status: ('A' for Active; 'I' for Inactive)
REMARK    1  A    between atoms: C_2  and  S_1 
REMARK    2  A    between atoms: N_11  and  S_1 
REMARK    3  A    between atoms: C_7  and  C_19 
REMARK    4  A    between atoms: C_19  and  N_11 
ROOT
ATOM      1  C   UNL d   1      33.024  22.708 -20.231  0.00  0.00     0.133 C 
ENDROOT
BRANCH   1   2
ATOM      2  C   UNL d   1      32.901  22.820 -19.418  0.00  0.00     0.120 A 
ATOM      3  N   UNL d   1      33.241  22.377 -18.833  0.00  0.00    -0.225 NA
ATOM      4  C   UNL d   1      32.971  22.671 -18.097  0.00  0.00     0.148 A 
ATOM      5  C   UNL d   1      33.126  22.445 -17.319  0.00  0.00     0.037 A 
ATOM      6  N   UNL d   1      32.462  23.301 -18.250  0.00  0.00    -0.288 N 
ATOM      7  C   UNL d   1      32.771  22.848 -16.694  0.00  0.00     0.004 A 
ATOM      8  C   UNL d   1      32.932  22.616 -15.919  0.00  0.00     0.000 C 
ATOM      9  C   UNL d   1      32.263  23.476 -16.847  0.00  0.00     0.019 A 
ATOM     10  C   UNL d   1      32.108  23.702 -17.625  0.00  0.00     0.082 A 
ATOM     11  C   UNL d   1      32.415  23.396 -19.074  0.00  0.00     0.102 A 
ENDBRANCH   1   2
BRANCH   1  12
ATOM     12  N   UNL d   1      32.384  22.730 -20.751  0.00  0.00    -0.155 NA
BRANCH  12  13
ATOM     13  S   UNL d   1      32.520  22.735 -21.568  0.00  0.00     0.291 S 
ATOM     14  O   UNL d   1      32.603  23.565 -21.548  0.00  0.00    -0.198 OA
ATOM     15  O   UNL d   1      32.436  21.905 -21.583  0.00  0.00    -0.198 OA
BRANCH  13  16
ATOM     16  C   UNL d   1      32.655  22.738 -22.382  0.00  0.00     0.135 A 
ATOM     17  S   UNL d   1      32.922  22.109 -22.829  0.00  0.00    -0.062 SA
ATOM     18  C   UNL d   1      32.980  22.349 -23.615  0.00  0.00     0.088 A 
ATOM     19 CL   UNL d   1      33.228  21.884 -24.247  0.00  0.00    -0.075 Cl
ATOM     20  C   UNL d   1      32.741  23.146 -23.651  0.00  0.00     0.019 A 
ATOM     21  C   UNL d   1      32.541  23.385 -22.890  0.00  0.00     0.021 A 
ENDBRANCH  13  16
ENDBRANCH  12  13
ENDBRANCH   1  12
TORSDOF 4
ENDMDL
MODEL 4
REMARK VINA RESULT:      -1.2      2.166      5.237
REMARK  4 active torsions:
REMARK  status: ('A' for Active; 'I' for Inactive)
REMARK    1  A    between atoms: C_2  and  S_1 
REMARK    2  A    between atoms: N_11  and  S_1 
REMARK    3  A    between atoms: C_7  and  C_19 
REMARK    4  A    between atoms: C_19  and  N_11 
ROOT
ATOM      1  C   UNL d   1      32.606  22.003 -20.728  0.00  0.00     0.133 C 
ENDROOT
BRANCH   1   2
ATOM      2  C   UNL d   1      32.638  22.317 -19.960  0.00  0.00     0.120 A 
ATOM      3  N   UNL d   1      33.014  21.970 -19.334  0.00  0.00    -0.225 NA
ATOM      4  C   UNL d   1      32.913  22.465 -18.666  0.00  0.00     0.148 A 
ATOM      5  C   UNL d   1      33.168  22.400 -17.884  0.00  0.00     0.037 A 
ATOM      6  N   UNL d   1      32.467  23.116 -18.902  0.00  0.00    -0.288 N 
ATOM      7  C   UNL d   1      32.978  22.987 -17.339  0.00  0.00     0.004 A 
ATOM      8  C   UNL d   1      33.238  22.915 -16.559  0.00  0.00     0.000 C 
ATOM      9  C   UNL d   1      32.533  23.638 -17.575  0.00  0.00     0.019 A 
ATOM     10  C   UNL d   1      32.278  23.702 -18.356  0.00  0.00     0.082 A 
ATOM     11  C   UNL d   1      32.293  23.028 -19.710  0.00  0.00     0.102 A 
ENDBRANCH   1   2
BRANCH   1  12
ATOM     12  N   UNL d   1      33.241  21.565 -21.020  0.00  0.00    -0.155 NA
BRANCH  12  13
ATOM     13  S   UNL d   1      33.116  21.018 -21.629  0.00  0.00     0.291 S 
ATOM     14  O   UNL d   1      33.079  20.403 -21.067  0.00  0.00    -0.198 OA
ATOM     15  O   UNL d   1      33.154  21.637 -22.187  0.00  0.00    -0.198 OA
BRANCH  13  16
ATOM     16  C   UNL d   1      32.991  20.475 -22.237  0.00  0.00     0.135 A 
ATOM     17  S   UNL d   1      32.930  19.665 -22.157  0.00  0.00    -0.062 SA
ATOM     18  C   UNL d   1      32.807  19.333 -22.902  0.00  0.00     0.088 A 
ATOM     19 CL   UNL d   1      32.716  18.533 -23.067  0.00  0.00    -0.075 Cl
ATOM     20  C   UNL d   1      32.792  19.957 -23.454  0.00  0.00     0.019 A 
ATOM     21  C   UNL d   1      32.906  20.661 -23.042  0.00  0.00     0.021 A 
ENDBRANCH  13  16
ENDBRANCH  12  13
ENDBRANCH   1  12
TORSDOF 4
ENDMDL
