MODEL 1
REMARK VINA RESULT:      79.9      0.000      0.000
REMARK  9 active torsions:
REMARK  status: ('A' for Active; 'I' for Inactive)
REMARK    1  A    between atoms: C_21  and  N_1 
REMARK    2  A    between atoms: S_7  and  C_2 
REMARK       I    between atoms: C_6  and  N_18 
REMARK    3  A    between atoms: C_15  and  C_6 
REMARK    4  A    between atoms: C_19  and  S_7 
REMARK    5  A    between atoms: C_8  and  C_19 
REMARK       I    between atoms: N_11  and  C_8 
REMARK    6  A    between atoms: C_9  and  C_20 
REMARK    7  A    between atoms: C_20  and  N_11 
REMARK    8  A    between atoms: N_18  and  C_23 
REMARK    9  A    between atoms: C_23  and  C_21 
ROOT
ATOM      1  N   UNL d   1     -56.031-100.538 -43.699  0.00  0.00    -0.302 N 
ATOM      2  C   UNL d   1     -56.808 -99.448 -43.693  0.00  0.00     0.049 A 
ATOM      3  C   UNL d   1     -56.677-100.166 -43.317  0.00  0.00     0.087 A 
ATOM      4  C   UNL d   1     -56.253 -99.365 -44.306  0.00  0.00     0.024 A 
ATOM      5  C   UNL d   1     -55.775-100.039 -44.306  0.00  0.00     0.065 A 
ATOM      6  C   UNL d   1     -56.129 -98.764 -44.853  0.00  0.00     0.002 A 
ATOM      7  C   UNL d   1     -55.172-100.106 -44.859  0.00  0.00     0.018 A 
ATOM      8  C   UNL d   1     -55.521 -98.836 -45.407  0.00  0.00     0.000 A 
ATOM      9  C   UNL d   1     -55.041 -99.505 -45.414  0.00  0.00     0.002 A 
ENDROOT
BRANCH   1  10
ATOM     10  C   UNL d   1     -55.704-101.270 -43.508  0.00  0.00     0.101 C 
BRANCH  10  11
ATOM     11  C   UNL d   1     -56.186-101.877 -43.222  0.00  0.00     0.121 C 
BRANCH  11  12
ATOM     12  N   UNL d   1     -56.052-102.186 -42.462  0.00  0.00    -0.205 NA
ATOM     13  C   UNL d   1     -55.669-101.724 -41.890  0.00  0.00     0.279 C 
ATOM     14  O   UNL d   1     -55.419-100.953 -42.079  0.00  0.00    -0.265 OA
BRANCH  13  15
ATOM     15  C   UNL d   1     -55.537-102.031 -41.138  0.00  0.00     0.058 A 
ATOM     16  C   UNL d   1     -54.867-101.837 -40.727  0.00  0.00     0.005 A 
ATOM     17  C   UNL d   1     -54.718-102.135 -39.971  0.00  0.00     0.000 A 
ATOM     18  C   UNL d   1     -55.267-102.647 -39.621  0.00  0.00     0.000 A 
ATOM     19  C   UNL d   1     -55.960-102.852 -40.036  0.00  0.00     0.000 A 
ATOM     20  C   UNL d   1     -56.093-102.543 -40.793  0.00  0.00     0.005 A 
ENDBRANCH  13  15
ENDBRANCH  11  12
ENDBRANCH  10  11
ENDBRANCH   1  10
BRANCH   2  21
ATOM     21  S   UNL d   1     -57.395 -98.897 -43.498  0.00  0.00    -0.080 SA
BRANCH  21  22
ATOM     22  C   UNL d   1     -58.022 -98.768 -44.020  0.00  0.00     0.098 C 
BRANCH  22  23
ATOM     23  C   UNL d   1     -58.765 -99.079 -43.865  0.00  0.00     0.286 C 
ATOM     24  N   UNL d   1     -59.163 -99.526 -44.428  0.00  0.00    -0.204 NA
ATOM     25  O   UNL d   1     -59.117 -98.940 -43.130  0.00  0.00    -0.265 OA
BRANCH  24  26
ATOM     26  C   UNL d   1     -58.810 -99.661 -45.155  0.00  0.00     0.127 C 
BRANCH  26  27
ATOM     27  C   UNL d   1     -59.230 -99.508 -45.849  0.00  0.00     0.119 A 
ATOM     28  O   UNL d   1     -59.587-100.071 -46.325  0.00  0.00    -0.304 OA
ATOM     29  C   UNL d   1     -59.941 -99.680 -46.955  0.00  0.00     0.123 A 
ATOM     30  C   UNL d   1     -59.805 -98.881 -46.869  0.00  0.00     0.029 A 
ATOM     31  C   UNL d   1     -59.365 -98.772 -46.185  0.00  0.00     0.028 A 
ENDBRANCH  26  27
ENDBRANCH  24  26
ENDBRANCH  22  23
ENDBRANCH  21  22
ENDBRANCH   2  21
TORSDOF 9
ENDMDL
