MODEL 1
REMARK VINA RESULT:      -9.8      0.000      0.000
REMARK  2 active torsions:
REMARK  status: ('A' for Active; 'I' for Inactive)
REMARK    1  A    between atoms: C_6  and  C_1 
REMARK       I    between atoms: C_7  and  N_8 
REMARK    2  A    between atoms: N_8  and  C_10 
ROOT
ATOM      1  C   UNL d   1      53.973  32.883  54.349  0.00  0.00     0.025 A 
ATOM      2  C   UNL d   1      53.444  33.473  54.556  0.00  0.00     0.021 A 
ATOM      3  C   UNL d   1      53.728  34.189  54.893  0.00  0.00     0.085 A 
ATOM      4  C   UNL d   1      54.786  33.007  54.479  0.00  0.00     0.002 A 
ATOM      5  C   UNL d   1      55.051  33.685  54.798  0.00  0.00     0.002 A 
ATOM      6  C   UNL d   1      54.538  34.302  55.018  0.00  0.00     0.019 A 
ENDROOT
BRANCH   1   7
ATOM      7  C   UNL d   1      53.701  32.207  54.030  0.00  0.00     0.111 A 
ATOM      8  N   UNL d   1      53.329  32.089  53.315  0.00  0.00    -0.239 NA
ATOM      9  C   UNL d   1      53.161  31.272  53.256  0.00  0.00     0.088 A 
ATOM     10  C   UNL d   1      52.790  30.831  52.655  0.00  0.00     0.020 A 
ATOM     11  C   UNL d   1      53.439  30.913  53.944  0.00  0.00     0.049 A 
ATOM     12  C   UNL d   1      52.699  30.028  52.748  0.00  0.00     0.002 A 
ATOM     13  C   UNL d   1      52.990  29.652  53.469  0.00  0.00     0.001 A 
ATOM     14  C   UNL d   1      53.350  30.107  54.043  0.00  0.00     0.008 A 
ATOM     15  S   UNL d   1      53.775  31.514  54.420  0.00  0.00    -0.066 SA
ENDBRANCH   1   7
BRANCH   3  16
ATOM     16  N   UNL d   1      53.169  34.789  55.102  0.00  0.00    -0.208 NA
ATOM     17  C   UNL d   1      53.065  35.424  54.581  0.00  0.00     0.279 C 
ATOM     18  O   UNL d   1      52.529  35.990  54.791  0.00  0.00    -0.265 OA
ATOM     19  C   UNL d   1      53.486  35.481  53.881  0.00  0.00     0.068 C 
ENDBRANCH   3  16
TORSDOF 2
ENDMDL
MODEL 2
REMARK VINA RESULT:      -9.5      2.467      3.294
REMARK  2 active torsions:
REMARK  status: ('A' for Active; 'I' for Inactive)
REMARK    1  A    between atoms: C_6  and  C_1 
REMARK       I    between atoms: C_7  and  N_8 
REMARK    2  A    between atoms: N_8  and  C_10 
ROOT
ATOM      1  C   UNL d   1      52.926  32.918  53.279  0.00  0.00     0.025 A 
ATOM      2  C   UNL d   1      53.535  33.372  53.587  0.00  0.00     0.021 A 
ATOM      3  C   UNL d   1      54.225  32.997  53.886  0.00  0.00     0.085 A 
ATOM      4  C   UNL d   1      53.006  32.089  53.271  0.00  0.00     0.002 A 
ATOM      5  C   UNL d   1      53.660  31.738  53.555  0.00  0.00     0.002 A 
ATOM      6  C   UNL d   1      54.295  32.173  53.874  0.00  0.00     0.019 A 
ENDROOT
BRANCH   1   7
ATOM      7  C   UNL d   1      52.274  33.276  52.996  0.00  0.00     0.111 A 
ATOM      8  N   UNL d   1      52.122  33.544  52.243  0.00  0.00    -0.239 NA
ATOM      9  C   UNL d   1      51.353  33.875  52.249  0.00  0.00     0.088 A 
ATOM     10  C   UNL d   1      50.904  34.232  51.645  0.00  0.00     0.020 A 
ATOM     11  C   UNL d   1      51.058  33.796  53.016  0.00  0.00     0.049 A 
ATOM     12  C   UNL d   1      50.158  34.509  51.814  0.00  0.00     0.002 A 
ATOM     13  C   UNL d   1      49.850  34.426  52.616  0.00  0.00     0.001 A 
ATOM     14  C   UNL d   1      50.310  34.072  53.190  0.00  0.00     0.008 A 
ATOM     15  S   UNL d   1      51.649  33.418  53.472  0.00  0.00    -0.066 SA
ENDBRANCH   1   7
BRANCH   3  16
ATOM     16  N   UNL d   1      54.845  33.480  54.200  0.00  0.00    -0.208 NA
ATOM     17  C   UNL d   1      54.928  33.523  55.023  0.00  0.00     0.279 C 
ATOM     18  O   UNL d   1      55.522  33.987  55.310  0.00  0.00    -0.265 OA
ATOM     19  C   UNL d   1      54.430  33.114  55.529  0.00  0.00     0.068 C 
ENDBRANCH   3  16
TORSDOF 2
ENDMDL
MODEL 3
REMARK VINA RESULT:      -9.2      2.120      2.441
REMARK  2 active torsions:
REMARK  status: ('A' for Active; 'I' for Inactive)
REMARK    1  A    between atoms: C_6  and  C_1 
REMARK       I    between atoms: C_7  and  N_8 
REMARK    2  A    between atoms: N_8  and  C_10 
ROOT
ATOM      1  C   UNL d   1      52.470  33.123  52.979  0.00  0.00     0.025 A 
ATOM      2  C   UNL d   1      51.787  33.318  52.570  0.00  0.00     0.021 A 
ATOM      3  C   UNL d   1      51.573  34.125  52.475  0.00  0.00     0.085 A 
ATOM      4  C   UNL d   1      52.939  33.735  53.294  0.00  0.00     0.002 A 
ATOM      5  C   UNL d   1      52.733  34.497  53.202  0.00  0.00     0.002 A 
ATOM      6  C   UNL d   1      52.045  34.725  52.792  0.00  0.00     0.019 A 
ENDROOT
BRANCH   1   7
ATOM      7  C   UNL d   1      52.671  32.358  53.067  0.00  0.00     0.111 A 
ATOM      8  N   UNL d   1      52.398  31.706  52.662  0.00  0.00    -0.239 NA
ATOM      9  C   UNL d   1      52.793  31.038  52.976  0.00  0.00     0.088 A 
ATOM     10  C   UNL d   1      52.740  30.230  52.783  0.00  0.00     0.020 A 
ATOM     11  C   UNL d   1      53.299  31.308  53.569  0.00  0.00     0.049 A 
ATOM     12  C   UNL d   1      53.198  29.694  53.188  0.00  0.00     0.002 A 
ATOM     13  C   UNL d   1      53.728  29.976  53.808  0.00  0.00     0.001 A 
ATOM     14  C   UNL d   1      53.761  30.774  53.978  0.00  0.00     0.008 A 
ATOM     15  S   UNL d   1      53.210  32.139  53.613  0.00  0.00    -0.066 SA
ENDBRANCH   1   7
BRANCH   3  16
ATOM     16  N   UNL d   1      50.864  34.309  52.050  0.00  0.00    -0.208 NA
ATOM     17  C   UNL d   1      50.186  34.498  52.485  0.00  0.00     0.279 C 
ATOM     18  O   UNL d   1      49.517  34.671  52.068  0.00  0.00    -0.265 OA
ATOM     19  C   UNL d   1      50.187  34.509  53.304  0.00  0.00     0.068 C 
ENDBRANCH   3  16
TORSDOF 2
ENDMDL
MODEL 4
REMARK VINA RESULT:      -9.0      2.004      4.356
REMARK  2 active torsions:
REMARK  status: ('A' for Active; 'I' for Inactive)
REMARK    1  A    between atoms: C_6  and  C_1 
REMARK       I    between atoms: C_7  and  N_8 
REMARK    2  A    between atoms: N_8  and  C_10 
ROOT
ATOM      1  C   UNL d   1      53.130  31.799  53.440  0.00  0.00     0.025 A 
ATOM      2  C   UNL d   1      53.439  31.198  53.903  0.00  0.00     0.021 A 
ATOM      3  C   UNL d   1      53.413  30.404  53.629  0.00  0.00     0.085 A 
ATOM      4  C   UNL d   1      52.793  31.607  52.704  0.00  0.00     0.002 A 
ATOM      5  C   UNL d   1      52.770  30.855  52.447  0.00  0.00     0.002 A 
ATOM      6  C   UNL d   1      53.076  30.224  52.895  0.00  0.00     0.019 A 
ENDROOT
BRANCH   1   7
ATOM      7  C   UNL d   1      53.156  32.550  53.703  0.00  0.00     0.111 A 
ATOM      8  N   UNL d   1      53.524  32.849  54.365  0.00  0.00    -0.239 NA
ATOM      9  C   UNL d   1      53.377  33.673  54.377  0.00  0.00     0.088 A 
ATOM     10  C   UNL d   1      53.610  34.264  54.916  0.00  0.00     0.020 A 
ATOM     11  C   UNL d   1      52.919  33.851  53.715  0.00  0.00     0.049 A 
ATOM     12  C   UNL d   1      53.382  35.034  54.786  0.00  0.00     0.002 A 
ATOM     13  C   UNL d   1      52.903  35.220  54.093  0.00  0.00     0.001 A 
ATOM     14  C   UNL d   1      52.687  34.622  53.580  0.00  0.00     0.008 A 
ATOM     15  S   UNL d   1      52.789  33.134  53.302  0.00  0.00    -0.066 SA
ENDBRANCH   1   7
BRANCH   3  16
ATOM     16  N   UNL d   1      53.737  29.795  54.119  0.00  0.00    -0.208 NA
ATOM     17  C   UNL d   1      53.238  29.177  54.356  0.00  0.00     0.279 C 
ATOM     18  O   UNL d   1      53.559  28.603  54.822  0.00  0.00    -0.265 OA
ATOM     19  C   UNL d   1      52.452  29.146  54.129  0.00  0.00     0.068 C 
ENDBRANCH   3  16
TORSDOF 2
ENDMDL
MODEL 5
REMARK VINA RESULT:      -8.9      2.677      4.105
REMARK  2 active torsions:
REMARK  status: ('A' for Active; 'I' for Inactive)
REMARK    1  A    between atoms: C_6  and  C_1 
REMARK       I    between atoms: C_7  and  N_8 
REMARK    2  A    between atoms: N_8  and  C_10 
ROOT
ATOM      1  C   UNL d   1      52.841  32.289  53.209  0.00  0.00     0.025 A 
ATOM      2  C   UNL d   1      52.719  31.490  53.076  0.00  0.00     0.021 A 
ATOM      3  C   UNL d   1      53.311  30.935  53.296  0.00  0.00     0.085 A 
ATOM      4  C   UNL d   1      53.554  32.534  53.561  0.00  0.00     0.002 A 
ATOM      5  C   UNL d   1      54.112  32.007  53.768  0.00  0.00     0.002 A 
ATOM      6  C   UNL d   1      54.016  31.189  53.646  0.00  0.00     0.019 A 
ENDROOT
BRANCH   1   7
ATOM      7  C   UNL d   1      52.279  32.812  52.999  0.00  0.00     0.111 A 
ATOM      8  N   UNL d   1      52.146  33.160  52.276  0.00  0.00    -0.239 NA
ATOM      9  C   UNL d   1      51.484  33.665  52.362  0.00  0.00     0.088 A 
ATOM     10  C   UNL d   1      51.096  34.159  51.816  0.00  0.00     0.020 A 
ATOM     11  C   UNL d   1      51.232  33.606  53.146  0.00  0.00     0.049 A 
ATOM     12  C   UNL d   1      50.454  34.595  52.060  0.00  0.00     0.002 A 
ATOM     13  C   UNL d   1      50.190  34.534  52.880  0.00  0.00     0.001 A 
ATOM     14  C   UNL d   1      50.588  34.042  53.395  0.00  0.00     0.008 A 
ATOM     15  S   UNL d   1      51.742  33.067  53.532  0.00  0.00    -0.066 SA
ENDBRANCH   1   7
BRANCH   3  16
ATOM     16  N   UNL d   1      53.170  30.113  53.152  0.00  0.00    -0.208 NA
ATOM     17  C   UNL d   1      53.126  29.604  53.803  0.00  0.00     0.279 C 
ATOM     18  O   UNL d   1      52.991  28.823  53.653  0.00  0.00    -0.265 OA
ATOM     19  C   UNL d   1      53.215  29.877  54.570  0.00  0.00     0.068 C 
ENDBRANCH   3  16
TORSDOF 2
ENDMDL
