MODEL 1
REMARK VINA RESULT:      15.3      0.000      0.000
REMARK  4 active torsions:
REMARK  status: ('A' for Active; 'I' for Inactive)
REMARK    1  A    between atoms: N_3  and  C_1 
REMARK    2  A    between atoms: C_4  and  C_2 
REMARK       I    between atoms: C_6  and  N_3 
REMARK    3  A    between atoms: C_11  and  C_6 
REMARK    4  A    between atoms: C_13  and  C_11 
ROOT
ATOM      1  N   UNL d   1      46.442 -18.013  43.187  0.00  0.00    -0.201 NA
ATOM      2  C   UNL d   1      46.235 -17.249  43.395  0.00  0.00     0.280 C 
ATOM      3  O   UNL d   1      46.225 -16.654  42.814  0.00  0.00    -0.265 OA
ENDROOT
BRANCH   2   4
ATOM      4  C   UNL d   1      46.037 -17.058  44.166  0.00  0.00     0.062 C 
BRANCH   4   5
ATOM      5  C   UNL d   1      45.802 -16.294  44.363  0.00  0.00     0.005 A 
ATOM      6  C   UNL d   1      46.367 -15.693  44.450  0.00  0.00     0.003 A 
ATOM      7  C   UNL d   1      46.124 -14.929  44.648  0.00  0.00     0.030 A 
ATOM      8  C   UNL d   1      45.325 -14.759  44.759  0.00  0.00     0.140 A 
ATOM      9  C   UNL d   1      44.771 -15.354  44.673  0.00  0.00     0.030 A 
ATOM     10  F   UNL d   1      45.099 -13.998  44.955  0.00  0.00    -0.204 F 
ATOM     11  C   UNL d   1      44.995 -16.123  44.476  0.00  0.00     0.003 A 
ENDBRANCH   4   5
ENDBRANCH   2   4
BRANCH   1  12
ATOM     12  C   UNL d   1      46.451 -18.599  43.766  0.00  0.00     0.119 A 
ATOM     13  C   UNL d   1      46.299 -19.395  43.638  0.00  0.00     0.084 A 
ATOM     14  C   UNL d   1      46.365 -19.784  44.363  0.00  0.00     0.014 A 
ATOM     15  C   UNL d   1      46.561 -19.218  44.941  0.00  0.00     0.037 A 
ATOM     16  S   UNL d   1      46.611 -18.492  44.559  0.00  0.00    -0.067 SA
BRANCH  13  17
ATOM     17  C   UNL d   1      46.111 -19.752  42.917  0.00  0.00     0.299 C 
ATOM     18  O   UNL d   1      45.480 -20.274  42.863  0.00  0.00    -0.264 OA
ATOM     19  N   UNL d   1      46.566 -19.578  42.247  0.00  0.00    -0.102 N 
ENDBRANCH  13  17
ENDBRANCH   1  12
TORSDOF 4
ENDMDL
MODEL 2
REMARK VINA RESULT:      15.4      2.958      4.860
REMARK  4 active torsions:
REMARK  status: ('A' for Active; 'I' for Inactive)
REMARK    1  A    between atoms: N_3  and  C_1 
REMARK    2  A    between atoms: C_4  and  C_2 
REMARK       I    between atoms: C_6  and  N_3 
REMARK    3  A    between atoms: C_11  and  C_6 
REMARK    4  A    between atoms: C_13  and  C_11 
ROOT
ATOM      1  N   UNL d   1      44.687 -13.957  44.251  0.00  0.00    -0.201 NA
ATOM      2  C   UNL d   1      44.837 -14.761  44.235  0.00  0.00     0.280 C 
ATOM      3  O   UNL d   1      44.207 -15.293  44.127  0.00  0.00    -0.265 OA
ENDROOT
BRANCH   2   4
ATOM      4  C   UNL d   1      45.597 -15.055  44.322  0.00  0.00     0.062 C 
BRANCH   4   5
ATOM      5  C   UNL d   1      45.745 -15.862  44.268  0.00  0.00     0.005 A 
ATOM      6  C   UNL d   1      45.787 -16.326  44.954  0.00  0.00     0.003 A 
ATOM      7  C   UNL d   1      45.936 -17.135  44.892  0.00  0.00     0.030 A 
ATOM      8  C   UNL d   1      46.044 -17.486  44.154  0.00  0.00     0.140 A 
ATOM      9  C   UNL d   1      46.002 -17.026  43.479  0.00  0.00     0.030 A 
ATOM     10  F   UNL d   1      46.191 -18.289  44.107  0.00  0.00    -0.204 F 
ATOM     11  C   UNL d   1      45.854 -16.216  43.522  0.00  0.00     0.003 A 
ENDBRANCH   4   5
ENDBRANCH   2   4
BRANCH   1  12
ATOM     12  C   UNL d   1      45.315 -13.434  44.358  0.00  0.00     0.119 A 
ATOM     13  C   UNL d   1      45.485 -12.792  43.876  0.00  0.00     0.084 A 
ATOM     14  C   UNL d   1      46.156 -12.419  44.180  0.00  0.00     0.014 A 
ATOM     15  C   UNL d   1      46.398 -12.838  44.856  0.00  0.00     0.037 A 
ATOM     16  S   UNL d   1      45.871 -13.462  44.954  0.00  0.00    -0.067 SA
BRANCH  13  17
ATOM     17  C   UNL d   1      45.066 -12.554  43.205  0.00  0.00     0.299 C 
ATOM     18  O   UNL d   1      45.347 -12.734  42.454  0.00  0.00    -0.264 OA
ATOM     19  N   UNL d   1      44.359 -12.132  43.294  0.00  0.00    -0.102 N 
ENDBRANCH  13  17
ENDBRANCH   1  12
TORSDOF 4
ENDMDL
MODEL 3
REMARK VINA RESULT:      16.9      1.125      1.415
REMARK  4 active torsions:
REMARK  status: ('A' for Active; 'I' for Inactive)
REMARK    1  A    between atoms: N_3  and  C_1 
REMARK    2  A    between atoms: C_4  and  C_2 
REMARK       I    between atoms: C_6  and  N_3 
REMARK    3  A    between atoms: C_11  and  C_6 
REMARK    4  A    between atoms: C_13  and  C_11 
ROOT
ATOM      1  N   UNL d   1      46.137 -18.082  43.890  0.00  0.00    -0.201 NA
ATOM      2  C   UNL d   1      45.964 -17.327  44.152  0.00  0.00     0.280 C 
ATOM      3  O   UNL d   1      45.780 -17.204  44.954  0.00  0.00    -0.265 OA
ENDROOT
BRANCH   2   4
ATOM      4  C   UNL d   1      45.968 -16.688  43.641  0.00  0.00     0.062 C 
BRANCH   4   5
ATOM      5  C   UNL d   1      45.840 -15.924  43.920  0.00  0.00     0.005 A 
ATOM      6  C   UNL d   1      46.298 -15.294  43.636  0.00  0.00     0.003 A 
ATOM      7  C   UNL d   1      46.164 -14.531  43.921  0.00  0.00     0.030 A 
ATOM      8  C   UNL d   1      45.579 -14.390  44.484  0.00  0.00     0.140 A 
ATOM      9  C   UNL d   1      45.129 -15.013  44.761  0.00  0.00     0.030 A 
ATOM     10  F   UNL d   1      45.457 -13.628  44.757  0.00  0.00    -0.204 F 
ATOM     11  C   UNL d   1      45.249 -15.782  44.488  0.00  0.00     0.003 A 
ENDBRANCH   4   5
ENDBRANCH   2   4
BRANCH   1  12
ATOM     12  C   UNL d   1      46.319 -18.200  43.095  0.00  0.00     0.119 A 
ATOM     13  C   UNL d   1      46.353 -18.927  42.718  0.00  0.00     0.084 A 
ATOM     14  C   UNL d   1      46.553 -18.794  41.928  0.00  0.00     0.014 A 
ATOM     15  C   UNL d   1      46.642 -17.973  41.822  0.00  0.00     0.037 A 
ATOM     16  S   UNL d   1      46.495 -17.619  42.549  0.00  0.00    -0.067 SA
BRANCH  13  17
ATOM     17  C   UNL d   1      46.213 -19.666  43.059  0.00  0.00     0.299 C 
ATOM     18  O   UNL d   1      46.647 -19.912  43.712  0.00  0.00    -0.264 OA
ATOM     19  N   UNL d   1      45.631 -20.160  42.738  0.00  0.00    -0.102 N 
ENDBRANCH  13  17
ENDBRANCH   1  12
TORSDOF 4
ENDMDL
