MODEL 1
REMARK VINA RESULT:      99.2      0.000      0.000
REMARK  6 active torsions:
REMARK  status: ('A' for Active; 'I' for Inactive)
REMARK    1  A    between atoms: C_3  and  N_1 
REMARK       I    between atoms: C_4  and  N_1 
REMARK    2  A    between atoms: C_6  and  N_1 
REMARK    3  A    between atoms: N_2  and  C_3 
REMARK    4  A    between atoms: C_7  and  C_4 
REMARK    5  A    between atoms: O_22  and  C_15 
REMARK    6  A    between atoms: C_24  and  O_22 
ROOT
ATOM      1  N   UNL d   1      59.458  48.231  50.575  0.00  0.00    -0.258 N 
ATOM      2  C   UNL d   1      59.513  47.421  50.407  0.00  0.00     0.266 C 
ATOM      3  O   UNL d   1      58.888  46.973  50.342  0.00  0.00    -0.267 OA
ENDROOT
BRANCH   1   4
ATOM      4  C   UNL d   1      60.138  48.696  50.641  0.00  0.00     0.171 C 
BRANCH   4   5
ATOM      5  N   UNL d   1      60.495  49.032  51.305  0.00  0.00    -0.257 N 
ATOM      6  C   UNL d   1      61.179  49.488  51.326  0.00  0.00     0.266 A 
ATOM      7  O   UNL d   1      61.644  49.696  50.668  0.00  0.00    -0.267 OA
ATOM      8  C   UNL d   1      61.331  49.708  52.115  0.00  0.00     0.063 A 
ATOM      9  C   UNL d   1      60.733  49.384  52.584  0.00  0.00     0.024 A 
ATOM     10  C   UNL d   1      60.214  48.966  52.095  0.00  0.00     0.085 A 
ENDBRANCH   4   5
ENDBRANCH   1   4
BRANCH   1  11
ATOM     11  C   UNL d   1      58.713  48.581  50.677  0.00  0.00     0.068 A 
ATOM     12  C   UNL d   1      58.592  49.374  50.460  0.00  0.00     0.018 A 
ATOM     13  C   UNL d   1      57.851  49.704  50.568  0.00  0.00     0.002 A 
ATOM     14  C   UNL d   1      57.238  49.269  50.882  0.00  0.00     0.000 A 
ATOM     15  C   UNL d   1      57.357  48.489  51.096  0.00  0.00     0.002 A 
ATOM     16  C   UNL d   1      56.494  49.611  50.987  0.00  0.00     0.000 C 
ATOM     17  C   UNL d   1      58.090  48.138  50.997  0.00  0.00     0.018 A 
ENDBRANCH   1  11
BRANCH   2  18
ATOM     18  C   UNL d   1      60.258  47.086  50.308  0.00  0.00     0.057 A 
ATOM     19  C   UNL d   1      60.643  47.160  49.585  0.00  0.00     0.007 A 
ATOM     20  C   UNL d   1      61.387  46.828  49.481  0.00  0.00     0.025 A 
ATOM     21  C   UNL d   1      61.747  46.415  50.109  0.00  0.00     0.100 A 
ATOM     22  C   UNL d   1      61.361  46.343  50.827  0.00  0.00     0.025 A 
ATOM     23  C   UNL d   1      60.608  46.677  50.941  0.00  0.00     0.007 A 
BRANCH  21  24
ATOM     24  O   UNL d   1      62.484  46.092  49.987  0.00  0.00    -0.305 OA
BRANCH  24  25
ATOM     25  C   UNL d   1      62.684  45.738  49.267  0.00  0.00     0.123 C 
ATOM     26  C   UNL d   1      62.317  45.040  49.037  0.00  0.00     0.029 C 
ENDBRANCH  24  25
ENDBRANCH  21  24
ENDBRANCH   2  18
TORSDOF 6
ENDMDL
