MODEL 1
REMARK VINA RESULT:      -2.9      0.000      0.000
REMARK  5 active torsions:
REMARK  status: ('A' for Active; 'I' for Inactive)
REMARK    1  A    between atoms: C_10  and  C_3 
REMARK    2  A    between atoms: N_13  and  C_4 
REMARK    3  A    between atoms: N_12  and  C_17 
REMARK    4  A    between atoms: C_16  and  N_13 
REMARK    5  A    between atoms: C_17  and  C_16 
ROOT
ATOM      1  C   UNL d   1      33.202  21.536 -22.111  0.00  0.00     0.150 A 
ATOM      2  N   UNL d   1      33.219  20.992 -22.736  0.00  0.00    -0.275 N 
ATOM      3  C   UNL d   1      33.189  21.267 -21.331  0.00  0.00     0.056 A 
ATOM      4  C   UNL d   1      33.223  20.176 -22.586  0.00  0.00     0.149 A 
ATOM      5  N   UNL d   1      33.197  22.348 -22.272  0.00  0.00    -0.227 NA
ATOM      6  C   UNL d   1      33.193  20.457 -21.173  0.00  0.00     0.007 A 
ATOM      7  C   UNL d   1      33.210  19.913 -21.798  0.00  0.00     0.038 A 
ATOM      8  C   UNL d   1      33.227  22.080 -23.683  0.00  0.00     0.084 A 
ATOM      9  C   UNL d   1      33.210  22.624 -23.058  0.00  0.00     0.099 A 
ATOM     10  C   UNL d   1      33.181  20.182 -20.387  0.00  0.00     0.000 C 
ATOM     11  C   UNL d   1      33.240  22.343 -24.470  0.00  0.00     0.019 A 
ATOM     12  C   UNL d   1      33.206  23.434 -23.216  0.00  0.00     0.021 A 
ATOM     13  C   UNL d   1      33.236  23.158 -24.621  0.00  0.00     0.002 A 
ATOM     14  C   UNL d   1      33.219  23.702 -23.995  0.00  0.00     0.002 A 
ENDROOT
BRANCH   4  15
ATOM     15  N   UNL d   1      33.240  19.635 -23.207  0.00  0.00    -0.225 NA
BRANCH  15  16
ATOM     16  C   UNL d   1      32.810  18.933 -23.155  0.00  0.00     0.120 C 
BRANCH  16  17
ATOM     17  C   UNL d   1      32.765  18.434 -23.798  0.00  0.00     0.101 C 
BRANCH  17  18
ATOM     18  N   UNL d   1      32.180  17.865 -23.838  0.00  0.00    -0.298 N 
ATOM     19  C   UNL d   1      32.243  17.181 -23.382  0.00  0.00     0.107 A 
ATOM     20  C   UNL d   1      31.655  16.604 -23.419  0.00  0.00     0.142 A 
ATOM     21  O   UNL d   1      30.999  16.704 -23.910  0.00  0.00    -0.300 OA
ATOM     22  C   UNL d   1      30.939  17.397 -24.368  0.00  0.00     0.142 A 
ATOM     23  C   UNL d   1      31.527  17.973 -24.331  0.00  0.00     0.107 A 
ENDBRANCH  17  18
ENDBRANCH  16  17
ENDBRANCH  15  16
ENDBRANCH   4  15
BRANCH   3  24
ATOM     24  C   UNL d   1      33.172  21.809 -20.709  0.00  0.00     0.125 C 
ATOM     25  N   UNL d   1      32.539  21.871 -20.253  0.00  0.00    -0.146 N 
ENDBRANCH   3  24
TORSDOF 5
ENDMDL
MODEL 2
REMARK VINA RESULT:      -2.0      0.928      2.536
REMARK  5 active torsions:
REMARK  status: ('A' for Active; 'I' for Inactive)
REMARK    1  A    between atoms: C_10  and  C_3 
REMARK    2  A    between atoms: N_13  and  C_4 
REMARK    3  A    between atoms: N_12  and  C_17 
REMARK    4  A    between atoms: C_16  and  N_13 
REMARK    5  A    between atoms: C_17  and  C_16 
ROOT
ATOM      1  C   UNL d   1      33.137  22.231 -22.512  0.00  0.00     0.150 A 
ATOM      2  N   UNL d   1      33.163  21.440 -22.265  0.00  0.00    -0.275 N 
ATOM      3  C   UNL d   1      33.163  22.412 -23.316  0.00  0.00     0.056 A 
ATOM      4  C   UNL d   1      33.215  20.826 -22.820  0.00  0.00     0.149 A 
ATOM      5  N   UNL d   1      33.085  22.837 -21.950  0.00  0.00    -0.227 NA
ATOM      6  C   UNL d   1      33.215  21.807 -23.875  0.00  0.00     0.007 A 
ATOM      7  C   UNL d   1      33.241  21.016 -23.628  0.00  0.00     0.038 A 
ATOM      8  C   UNL d   1      33.085  21.867 -20.889  0.00  0.00     0.084 A 
ATOM      9  C   UNL d   1      33.059  22.658 -21.136  0.00  0.00     0.099 A 
ATOM     10  C   UNL d   1      33.241  21.986 -24.688  0.00  0.00     0.000 C 
ATOM     11  C   UNL d   1      33.059  21.677 -20.082  0.00  0.00     0.019 A 
ATOM     12  C   UNL d   1      33.007  23.263 -20.577  0.00  0.00     0.021 A 
ATOM     13  C   UNL d   1      33.007  22.291 -19.527  0.00  0.00     0.002 A 
ATOM     14  C   UNL d   1      32.981  23.082 -19.774  0.00  0.00     0.002 A 
ENDROOT
BRANCH   4  15
ATOM     15  N   UNL d   1      33.241  20.040 -22.574  0.00  0.00    -0.225 NA
BRANCH  15  16
ATOM     16  C   UNL d   1      33.015  19.438 -23.091  0.00  0.00     0.120 C 
BRANCH  16  17
ATOM     17  C   UNL d   1      32.898  18.682 -22.810  0.00  0.00     0.101 C 
BRANCH  17  18
ATOM     18  N   UNL d   1      32.597  18.102 -23.302  0.00  0.00    -0.298 N 
ATOM     19  C   UNL d   1      33.089  17.497 -23.570  0.00  0.00     0.107 A 
ATOM     20  C   UNL d   1      32.790  16.910 -24.066  0.00  0.00     0.142 A 
ATOM     21  O   UNL d   1      31.998  16.920 -24.299  0.00  0.00    -0.300 OA
ATOM     22  C   UNL d   1      31.505  17.533 -24.025  0.00  0.00     0.142 A 
ATOM     23  C   UNL d   1      31.805  18.120 -23.530  0.00  0.00     0.107 A 
ENDBRANCH  17  18
ENDBRANCH  16  17
ENDBRANCH  15  16
ENDBRANCH   4  15
BRANCH   3  24
ATOM     24  C   UNL d   1      33.137  23.199 -23.562  0.00  0.00     0.125 C 
ATOM     25  N   UNL d   1      32.624  23.429 -24.107  0.00  0.00    -0.146 N 
ENDBRANCH   3  24
TORSDOF 5
ENDMDL
