MODEL 1
REMARK VINA RESULT:      -8.5      0.000      0.000
REMARK  2 active torsions:
REMARK  status: ('A' for Active; 'I' for Inactive)
REMARK    1  A    between atoms: C_7  and  C_1 
REMARK    2  A    between atoms: C_8  and  C_7 
ROOT
ATOM      1  C   UNL d   1      53.816  33.470  53.880  0.00  0.00     0.116 A 
ATOM      2  N   UNL d   1      52.987  34.603  54.200  0.00  0.00    -0.152 NA
ATOM      3  N   UNL d   1      53.941  34.088  55.158  0.00  0.00    -0.152 NA
ATOM      4  C   UNL d   1      53.214  34.029  53.668  0.00  0.00     0.288 A 
ATOM      5  C   UNL d   1      54.172  33.503  54.617  0.00  0.00     0.288 A 
ATOM      6  C   UNL d   1      53.339  34.647  54.946  0.00  0.00     0.374 A 
ATOM      7  O   UNL d   1      52.863  33.988  52.928  0.00  0.00    -0.265 OA
ATOM      8  O   UNL d   1      54.749  32.969  54.819  0.00  0.00    -0.265 OA
ATOM      9  O   UNL d   1      53.101  35.243  55.495  0.00  0.00    -0.242 OA
ENDROOT
BRANCH   1  10
ATOM     10  C   UNL d   1      54.049  32.888  53.344  0.00  0.00     0.016 C 
BRANCH  10  11
ATOM     11  C   UNL d   1      53.484  31.869  53.304  0.00  0.00     0.030 A 
ATOM     12  S   UNL d   1      53.737  31.151  53.631  0.00  0.00    -0.080 SA
ATOM     13  C   UNL d   1      53.158  30.579  53.466  0.00  0.00     0.064 A 
ATOM     14 BR   UNL d   1      53.198  29.779  53.699  0.00  0.00    -0.042 Br
ATOM     15  C   UNL d   1      52.558  30.927  53.047  0.00  0.00     0.014 A 
ATOM     16  C   UNL d   1      52.758  31.739  52.942  0.00  0.00     0.007 A 
ENDBRANCH  10  11
ENDBRANCH   1  10
TORSDOF 2
ENDMDL
MODEL 2
REMARK VINA RESULT:      -7.9      2.294      2.868
REMARK  2 active torsions:
REMARK  status: ('A' for Active; 'I' for Inactive)
REMARK    1  A    between atoms: C_7  and  C_1 
REMARK    2  A    between atoms: C_8  and  C_7 
ROOT
ATOM      1  C   UNL d   1      52.227  33.498  52.997  0.00  0.00     0.116 A 
ATOM      2  N   UNL d   1      51.353  34.640  52.925  0.00  0.00    -0.152 NA
ATOM      3  N   UNL d   1      50.820  33.310  53.121  0.00  0.00    -0.152 NA
ATOM      4  C   UNL d   1      52.107  34.333  52.907  0.00  0.00     0.288 A 
ATOM      5  C   UNL d   1      51.589  32.997  53.103  0.00  0.00     0.288 A 
ATOM      6  C   UNL d   1      50.700  34.145  53.031  0.00  0.00     0.374 A 
ATOM      7  O   UNL d   1      52.754  34.828  52.801  0.00  0.00    -0.265 OA
ATOM      8  O   UNL d   1      51.703  32.197  53.189  0.00  0.00    -0.265 OA
ATOM      9  O   UNL d   1      49.920  34.465  53.049  0.00  0.00    -0.242 OA
ENDROOT
BRANCH   1  10
ATOM     10  C   UNL d   1      52.990  33.184  52.979  0.00  0.00     0.016 C 
BRANCH  10  11
ATOM     11  C   UNL d   1      53.615  33.106  53.960  0.00  0.00     0.030 A 
ATOM     12  S   UNL d   1      54.168  33.656  54.239  0.00  0.00    -0.080 SA
ATOM     13  C   UNL d   1      54.473  33.368  54.956  0.00  0.00     0.064 A 
ATOM     14 BR   UNL d   1      55.048  33.757  55.419  0.00  0.00    -0.042 Br
ATOM     15  C   UNL d   1      54.122  32.657  55.123  0.00  0.00     0.014 A 
ATOM     16  C   UNL d   1      53.580  32.487  54.500  0.00  0.00     0.007 A 
ENDBRANCH  10  11
ENDBRANCH   1  10
TORSDOF 2
ENDMDL
MODEL 3
REMARK VINA RESULT:      -7.8      2.478      3.473
REMARK  2 active torsions:
REMARK  status: ('A' for Active; 'I' for Inactive)
REMARK    1  A    between atoms: C_7  and  C_1 
REMARK    2  A    between atoms: C_8  and  C_7 
ROOT
ATOM      1  C   UNL d   1      53.416  31.884  53.181  0.00  0.00     0.116 A 
ATOM      2  N   UNL d   1      52.297  31.017  52.920  0.00  0.00    -0.152 NA
ATOM      3  N   UNL d   1      53.436  30.548  53.678  0.00  0.00    -0.152 NA
ATOM      4  C   UNL d   1      52.653  31.745  52.839  0.00  0.00     0.288 A 
ATOM      5  C   UNL d   1      53.800  31.290  53.595  0.00  0.00     0.288 A 
ATOM      6  C   UNL d   1      52.673  30.409  53.335  0.00  0.00     0.374 A 
ATOM      7  O   UNL d   1      52.277  32.347  52.426  0.00  0.00    -0.265 OA
ATOM      8  O   UNL d   1      54.531  31.423  53.922  0.00  0.00    -0.265 OA
ATOM      9  O   UNL d   1      52.302  29.656  53.418  0.00  0.00    -0.242 OA
ENDROOT
BRANCH   1  10
ATOM     10  C   UNL d   1      53.780  32.620  53.100  0.00  0.00     0.016 C 
BRANCH  10  11
ATOM     11  C   UNL d   1      53.585  33.460  53.885  0.00  0.00     0.030 A 
ATOM     12  S   UNL d   1      53.151  34.155  53.767  0.00  0.00    -0.080 SA
ATOM     13  C   UNL d   1      53.161  34.584  54.478  0.00  0.00     0.064 A 
ATOM     14 BR   UNL d   1      52.787  35.321  54.595  0.00  0.00    -0.042 Br
ATOM     15  C   UNL d   1      53.590  34.171  55.027  0.00  0.00     0.014 A 
ATOM     16  C   UNL d   1      53.860  33.462  54.660  0.00  0.00     0.007 A 
ENDBRANCH  10  11
ENDBRANCH   1  10
TORSDOF 2
ENDMDL
MODEL 4
REMARK VINA RESULT:      -7.7      2.217      2.672
REMARK  2 active torsions:
REMARK  status: ('A' for Active; 'I' for Inactive)
REMARK    1  A    between atoms: C_7  and  C_1 
REMARK    2  A    between atoms: C_8  and  C_7 
ROOT
ATOM      1  C   UNL d   1      53.568  33.876  53.796  0.00  0.00     0.116 A 
ATOM      2  N   UNL d   1      54.059  34.196  55.111  0.00  0.00    -0.152 NA
ATOM      3  N   UNL d   1      54.354  32.918  54.500  0.00  0.00    -0.152 NA
ATOM      4  C   UNL d   1      53.636  34.413  54.449  0.00  0.00     0.288 A 
ATOM      5  C   UNL d   1      53.924  33.139  53.825  0.00  0.00     0.288 A 
ATOM      6  C   UNL d   1      54.422  33.455  55.153  0.00  0.00     0.374 A 
ATOM      7  O   UNL d   1      53.276  35.149  54.410  0.00  0.00    -0.265 OA
ATOM      8  O   UNL d   1      53.858  32.625  53.200  0.00  0.00    -0.265 OA
ATOM      9  O   UNL d   1      54.859  33.233  55.840  0.00  0.00    -0.242 OA
ENDROOT
BRANCH   1  10
ATOM     10  C   UNL d   1      53.141  34.092  53.124  0.00  0.00     0.016 C 
BRANCH  10  11
ATOM     11  C   UNL d   1      51.988  33.921  53.081  0.00  0.00     0.030 A 
ATOM     12  S   UNL d   1      51.420  34.454  52.799  0.00  0.00    -0.080 SA
ATOM     13  C   UNL d   1      50.675  34.095  52.876  0.00  0.00     0.064 A 
ATOM     14 BR   UNL d   1      49.952  34.447  52.655  0.00  0.00    -0.042 Br
ATOM     15  C   UNL d   1      50.773  33.358  53.197  0.00  0.00     0.014 A 
ATOM     16  C   UNL d   1      51.597  33.243  53.328  0.00  0.00     0.007 A 
ENDBRANCH  10  11
ENDBRANCH   1  10
TORSDOF 2
ENDMDL
