MODEL 1
REMARK VINA RESULT:      -5.7      0.000      0.000
REMARK  3 active torsions:
REMARK  status: ('A' for Active; 'I' for Inactive)
REMARK    1  A    between atoms: O_9  and  C_1 
REMARK    2  A    between atoms: C_13  and  O_9 
REMARK    3  A    between atoms: C_16  and  C_11 
ROOT
ATOM      1  C   UNL d   1     -41.397-122.557 -51.550  0.00  0.00     0.161 A 
ATOM      2  C   UNL d   1     -41.448-122.566 -52.977  0.00  0.00     0.064 A 
ATOM      3  C   UNL d   1     -41.502-122.154 -52.275  0.00  0.00     0.222 A 
ATOM      4  C   UNL d   1     -41.290-123.372 -52.987  0.00  0.00     0.106 A 
ATOM      5  C   UNL d   1     -41.236-123.379 -51.560  0.00  0.00     0.126 A 
ATOM      6  O   UNL d   1     -41.187-123.768 -52.295  0.00  0.00    -0.305 OA
ATOM      7  C   UNL d   1     -41.556-122.147 -53.680  0.00  0.00     0.008 A 
ATOM      8  C   UNL d   1     -41.240-123.761 -53.700  0.00  0.00     0.067 A 
ATOM      9  C   UNL d   1     -41.344-123.365 -54.407  0.00  0.00     0.198 A 
ATOM     10  C   UNL d   1     -41.505-122.543 -54.396  0.00  0.00     0.039 A 
ATOM     11  O   UNL d   1     -41.660-121.346 -52.265  0.00  0.00    -0.284 OA
ATOM     12  O   UNL d   1     -41.286-123.795 -55.128  0.00  0.00    -0.286 OA
ATOM     13  C   UNL d   1     -41.124-123.817 -50.850  0.00  0.00     0.029 C 
ENDROOT
BRANCH   1  14
ATOM     14  O   UNL d   1     -41.454-122.127 -50.829  0.00  0.00    -0.302 OA
BRANCH  14  15
ATOM     15  C   UNL d   1     -42.095-122.268 -50.315  0.00  0.00     0.100 A 
ATOM     16  C   UNL d   1     -42.855-122.044 -50.538  0.00  0.00     0.025 A 
ATOM     17  C   UNL d   1     -43.477-122.184 -50.033  0.00  0.00     0.002 A 
ATOM     18  C   UNL d   1     -43.350-122.554 -49.286  0.00  0.00     0.000 A 
ATOM     19  C   UNL d   1     -42.583-122.772 -49.079  0.00  0.00     0.002 A 
ATOM     20  C   UNL d   1     -41.953-122.628 -49.595  0.00  0.00     0.025 A 
ENDBRANCH  14  15
ENDBRANCH   1  14
BRANCH  10  21
ATOM     21  C   UNL d   1     -41.616-122.105 -55.107  0.00  0.00     0.003 C 
ATOM     22  C   UNL d   1     -42.389-121.941 -55.386  0.00  0.00     0.000 C 
ENDBRANCH  10  21
TORSDOF 3
ENDMDL
MODEL 2
REMARK VINA RESULT:      -4.5      0.967      3.963
REMARK  3 active torsions:
REMARK  status: ('A' for Active; 'I' for Inactive)
REMARK    1  A    between atoms: O_9  and  C_1 
REMARK    2  A    between atoms: C_13  and  O_9 
REMARK    3  A    between atoms: C_16  and  C_11 
ROOT
ATOM      1  C   UNL d   1     -41.228-122.534 -53.093  0.00  0.00     0.161 A 
ATOM      2  C   UNL d   1     -41.415-122.552 -51.678  0.00  0.00     0.064 A 
ATOM      3  C   UNL d   1     -41.313-122.128 -52.367  0.00  0.00     0.222 A 
ATOM      4  C   UNL d   1     -41.437-123.373 -51.681  0.00  0.00     0.106 A 
ATOM      5  C   UNL d   1     -41.251-123.372 -53.097  0.00  0.00     0.126 A 
ATOM      6  O   UNL d   1     -41.357-123.773 -52.374  0.00  0.00    -0.305 OA
ATOM      7  C   UNL d   1     -41.497-122.129 -50.973  0.00  0.00     0.008 A 
ATOM      8  C   UNL d   1     -41.541-123.774 -50.980  0.00  0.00     0.067 A 
ATOM      9  C   UNL d   1     -41.623-123.375 -50.273  0.00  0.00     0.198 A 
ATOM     10  C   UNL d   1     -41.601-122.537 -50.269  0.00  0.00     0.039 A 
ATOM     11  O   UNL d   1     -41.290-121.305 -52.363  0.00  0.00    -0.284 OA
ATOM     12  O   UNL d   1     -41.729-123.817 -49.565  0.00  0.00    -0.286 OA
ATOM     13  C   UNL d   1     -41.169-123.813 -53.809  0.00  0.00     0.029 C 
ENDROOT
BRANCH   1  14
ATOM     14  O   UNL d   1     -41.123-122.092 -53.801  0.00  0.00    -0.302 OA
BRANCH  14  15
ATOM     15  C   UNL d   1     -41.745-122.044 -54.353  0.00  0.00     0.100 A 
ATOM     16  C   UNL d   1     -41.646-122.353 -55.110  0.00  0.00     0.025 A 
ATOM     17  C   UNL d   1     -42.256-122.303 -55.644  0.00  0.00     0.002 A 
ATOM     18  C   UNL d   1     -42.986-121.939 -55.432  0.00  0.00     0.000 A 
ATOM     19  C   UNL d   1     -43.069-121.634 -54.671  0.00  0.00     0.002 A 
ATOM     20  C   UNL d   1     -42.445-121.687 -54.129  0.00  0.00     0.025 A 
ENDBRANCH  14  15
ENDBRANCH   1  14
BRANCH  10  21
ATOM     21  C   UNL d   1     -41.682-122.096 -49.557  0.00  0.00     0.003 C 
ATOM     22  C   UNL d   1     -41.211-122.279 -48.888  0.00  0.00     0.000 C 
ENDBRANCH  10  21
TORSDOF 3
ENDMDL
