MODEL 1
REMARK VINA RESULT:      -2.6      0.000      0.000
REMARK  5 active torsions:
REMARK  status: ('A' for Active; 'I' for Inactive)
REMARK       I    between atoms: C_8  and  N_1 
REMARK    1  A    between atoms: C_7  and  C_3 
REMARK    2  A    between atoms: S_4  and  N_9 
REMARK    3  A    between atoms: C_21  and  S_4 
REMARK    4  A    between atoms: C_11  and  C_5 
REMARK    5  A    between atoms: N_9  and  C_20 
ROOT
ATOM      1  N   UNL d   1      32.948  22.259 -22.608  0.00  0.00    -0.194 N 
ATOM      2  N   UNL d   1      33.055  21.629 -23.158  0.00  0.00    -0.163 NA
ATOM      3  C   UNL d   1      32.822  21.944 -21.878  0.00  0.00     0.093 A 
ATOM      4  C   UNL d   1      32.989  20.926 -22.741  0.00  0.00     0.103 A 
ATOM      5  C   UNL d   1      32.844  21.106 -21.940  0.00  0.00     0.041 A 
ATOM      6  C   UNL d   1      32.970  23.059 -22.786  0.00  0.00     0.281 C 
ATOM      7  O   UNL d   1      32.857  23.616 -22.194  0.00  0.00    -0.265 OA
ATOM      8  C   UNL d   1      33.105  23.305 -23.564  0.00  0.00     0.068 C 
ENDROOT
BRANCH   4   9
ATOM      9  C   UNL d   1      33.050  20.158 -23.026  0.00  0.00     0.019 A 
ATOM     10  C   UNL d   1      33.172  20.032 -23.836  0.00  0.00     0.003 A 
ATOM     11  C   UNL d   1      33.232  19.268 -24.119  0.00  0.00     0.020 A 
ATOM     12  C   UNL d   1      33.174  18.625 -23.607  0.00  0.00     0.094 A 
ATOM     13  C   UNL d   1      33.053  18.751 -22.802  0.00  0.00     0.020 A 
ATOM     14  C   UNL d   1      32.990  19.521 -22.507  0.00  0.00     0.003 A 
BRANCH  12  15
ATOM     15  N   UNL d   1      33.234  17.843 -23.886  0.00  0.00    -0.158 NA
BRANCH  15  16
ATOM     16  S   UNL d   1      32.625  17.318 -23.750  0.00  0.00     0.286 S 
ATOM     17  O   UNL d   1      32.010  16.763 -23.605  0.00  0.00    -0.198 OA
ATOM     18  O   UNL d   1      32.070  17.900 -23.952  0.00  0.00    -0.198 OA
BRANCH  16  19
ATOM     19  C   UNL d   1      33.182  16.729 -23.546  0.00  0.00     0.117 C 
ATOM     20  C   UNL d   1      32.957  15.943 -23.492  0.00  0.00     0.014 C 
ENDBRANCH  16  19
ENDBRANCH  15  16
ENDBRANCH  12  15
ENDBRANCH   4   9
BRANCH   3  21
ATOM     21  C   UNL d   1      32.694  22.370 -21.191  0.00  0.00     0.047 A 
ATOM     22  S   UNL d   1      33.241  22.492 -20.582  0.00  0.00    -0.085 SA
ATOM     23  C   UNL d   1      32.881  22.950 -20.000  0.00  0.00     0.035 A 
ATOM     24  C   UNL d   1      32.111  23.115 -20.244  0.00  0.00     0.007 A 
ATOM     25  C   UNL d   1      31.995  22.757 -20.979  0.00  0.00     0.009 A 
ENDBRANCH   3  21
TORSDOF 5
ENDMDL
MODEL 2
REMARK VINA RESULT:      -1.6      1.054      1.431
REMARK  5 active torsions:
REMARK  status: ('A' for Active; 'I' for Inactive)
REMARK       I    between atoms: C_8  and  N_1 
REMARK    1  A    between atoms: C_7  and  C_3 
REMARK    2  A    between atoms: S_4  and  N_9 
REMARK    3  A    between atoms: C_21  and  S_4 
REMARK    4  A    between atoms: C_11  and  C_5 
REMARK    5  A    between atoms: N_9  and  C_20 
ROOT
ATOM      1  N   UNL d   1      32.319  22.479 -21.365  0.00  0.00    -0.194 N 
ATOM      2  N   UNL d   1      32.342  21.953 -22.023  0.00  0.00    -0.163 NA
ATOM      3  C   UNL d   1      32.627  22.102 -20.724  0.00  0.00     0.093 A 
ATOM      4  C   UNL d   1      32.672  21.248 -21.763  0.00  0.00     0.103 A 
ATOM      5  C   UNL d   1      32.854  21.326 -20.953  0.00  0.00     0.041 A 
ATOM      6  C   UNL d   1      32.032  23.247 -21.377  0.00  0.00     0.281 C 
ATOM      7  O   UNL d   1      32.042  23.701 -20.693  0.00  0.00    -0.265 OA
ATOM      8  C   UNL d   1      31.731  23.565 -22.078  0.00  0.00     0.068 C 
ENDROOT
BRANCH   4   9
ATOM      9  C   UNL d   1      32.814  20.563 -22.192  0.00  0.00     0.019 A 
ATOM     10  C   UNL d   1      32.828  19.832 -21.801  0.00  0.00     0.003 A 
ATOM     11  C   UNL d   1      32.969  19.150 -22.228  0.00  0.00     0.020 A 
ATOM     12  C   UNL d   1      33.096  19.184 -23.042  0.00  0.00     0.094 A 
ATOM     13  C   UNL d   1      33.082  19.911 -23.429  0.00  0.00     0.020 A 
ATOM     14  C   UNL d   1      32.940  20.606 -23.005  0.00  0.00     0.003 A 
BRANCH  12  15
ATOM     15  N   UNL d   1      33.241  18.495 -23.485  0.00  0.00    -0.158 NA
BRANCH  15  16
ATOM     16  S   UNL d   1      32.615  18.023 -23.712  0.00  0.00     0.286 S 
ATOM     17  O   UNL d   1      31.978  17.535 -23.963  0.00  0.00    -0.198 OA
ATOM     18  O   UNL d   1      32.293  18.072 -22.949  0.00  0.00    -0.198 OA
BRANCH  16  19
ATOM     19  C   UNL d   1      32.937  17.970 -24.481  0.00  0.00     0.117 C 
ATOM     20  C   UNL d   1      32.858  17.283 -24.920  0.00  0.00     0.014 C 
ENDBRANCH  16  19
ENDBRANCH  15  16
ENDBRANCH  12  15
ENDBRANCH   4   9
BRANCH   3  21
ATOM     21  C   UNL d   1      32.704  22.423 -19.975  0.00  0.00     0.047 A 
ATOM     22  S   UNL d   1      32.278  22.199 -19.301  0.00  0.00    -0.085 SA
ATOM     23  C   UNL d   1      32.532  22.665 -18.670  0.00  0.00     0.035 A 
ATOM     24  C   UNL d   1      33.113  23.177 -18.948  0.00  0.00     0.007 A 
ATOM     25  C   UNL d   1      33.221  23.029 -19.754  0.00  0.00     0.009 A 
ENDBRANCH   3  21
TORSDOF 5
ENDMDL
MODEL 3
REMARK VINA RESULT:      -0.6      2.310      5.642
REMARK  5 active torsions:
REMARK  status: ('A' for Active; 'I' for Inactive)
REMARK       I    between atoms: C_8  and  N_1 
REMARK    1  A    between atoms: C_7  and  C_3 
REMARK    2  A    between atoms: S_4  and  N_9 
REMARK    3  A    between atoms: C_21  and  S_4 
REMARK    4  A    between atoms: C_11  and  C_5 
REMARK    5  A    between atoms: N_9  and  C_20 
ROOT
ATOM      1  N   UNL d   1      31.456  16.587 -24.181  0.00  0.00    -0.194 N 
ATOM      2  N   UNL d   1      32.081  17.069 -23.886  0.00  0.00    -0.163 NA
ATOM      3  C   UNL d   1      30.755  16.905 -23.946  0.00  0.00     0.093 A 
ATOM      4  C   UNL d   1      31.739  17.687 -23.467  0.00  0.00     0.103 A 
ATOM      5  C   UNL d   1      30.910  17.597 -23.496  0.00  0.00     0.041 A 
ATOM      6  C   UNL d   1      31.547  15.908 -24.631  0.00  0.00     0.281 C 
ATOM      7  O   UNL d   1      30.887  15.490 -24.883  0.00  0.00    -0.265 OA
ATOM      8  C   UNL d   1      32.304  15.644 -24.832  0.00  0.00     0.068 C 
ENDROOT
BRANCH   4   9
ATOM      9  C   UNL d   1      32.112  18.304 -23.074  0.00  0.00     0.019 A 
ATOM     10  C   UNL d   1      32.850  18.175 -22.721  0.00  0.00     0.003 A 
ATOM     11  C   UNL d   1      33.221  18.789 -22.330  0.00  0.00     0.020 A 
ATOM     12  C   UNL d   1      32.868  19.532 -22.285  0.00  0.00     0.094 A 
ATOM     13  C   UNL d   1      32.134  19.659 -22.638  0.00  0.00     0.020 A 
ATOM     14  C   UNL d   1      31.752  19.043 -23.035  0.00  0.00     0.003 A 
BRANCH  12  15
ATOM     15  N   UNL d   1      33.238  20.163 -21.889  0.00  0.00    -0.158 NA
BRANCH  15  16
ATOM     16  S   UNL d   1      32.783  20.744 -21.543  0.00  0.00     0.286 S 
ATOM     17  O   UNL d   1      32.318  21.356 -21.199  0.00  0.00    -0.198 OA
ATOM     18  O   UNL d   1      32.561  20.220 -20.940  0.00  0.00    -0.198 OA
BRANCH  16  19
ATOM     19  C   UNL d   1      33.003  21.276 -22.148  0.00  0.00     0.117 C 
ATOM     20  C   UNL d   1      33.105  22.073 -21.987  0.00  0.00     0.014 C 
ENDBRANCH  16  19
ENDBRANCH  15  16
ENDBRANCH  12  15
ENDBRANCH   4   9
BRANCH   3  21
ATOM     21  C   UNL d   1      30.014  16.603 -24.119  0.00  0.00     0.047 A 
ATOM     22  S   UNL d   1      29.534  16.163 -23.608  0.00  0.00    -0.085 SA
ATOM     23  C   UNL d   1      28.839  15.972 -24.007  0.00  0.00     0.035 A 
ATOM     24  C   UNL d   1      28.883  16.292 -24.765  0.00  0.00     0.007 A 
ATOM     25  C   UNL d   1      29.608  16.681 -24.835  0.00  0.00     0.009 A 
ENDBRANCH   3  21
TORSDOF 5
ENDMDL
