MODEL 1
REMARK VINA RESULT:      55.5      0.000      0.000
REMARK  4 active torsions:
REMARK  status: ('A' for Active; 'I' for Inactive)
REMARK    1  A    between atoms: S_2  and  N_1 
REMARK    2  A    between atoms: C_10  and  S_2 
REMARK    3  A    between atoms: C_7  and  C_4 
REMARK    4  A    between atoms: C_11  and  C_5 
ROOT
ATOM      1  N   UNL d   1      14.221  13.971  -2.259  0.00  0.00    -0.152 N 
ATOM      2  N   UNL d   1      14.391  14.773  -2.451  0.00  0.00    -0.155 NA
ATOM      3  C   UNL d   1      14.354  13.867  -1.446  0.00  0.00     0.099 A 
ATOM      4  C   UNL d   1      14.630  15.170  -1.762  0.00  0.00     0.104 A 
ATOM      5  C   UNL d   1      14.609  14.616  -1.140  0.00  0.00     0.041 A 
ENDROOT
BRANCH   1   6
ATOM      6  S   UNL d   1      13.970  13.392  -2.766  0.00  0.00     0.286 S 
ATOM      7  O   UNL d   1      14.513  12.763  -2.379  0.00  0.00    -0.198 OA
ATOM      8  O   UNL d   1      13.468  13.950  -3.133  0.00  0.00    -0.198 OA
BRANCH   6   9
ATOM      9  C   UNL d   1      13.574  13.000  -3.369  0.00  0.00     0.105 A 
ATOM     10  C   UNL d   1      13.169  13.431  -3.946  0.00  0.00     0.013 A 
ATOM     11  C   UNL d   1      12.771  13.037  -4.553  0.00  0.00     0.001 A 
ATOM     12  C   UNL d   1      12.789  12.224  -4.565  0.00  0.00     0.000 A 
ATOM     13  C   UNL d   1      13.183  11.780  -4.006  0.00  0.00     0.001 A 
ATOM     14  C   UNL d   1      13.581  12.174  -3.400  0.00  0.00     0.013 A 
ENDBRANCH   6   9
ENDBRANCH   1   6
BRANCH   3  15
ATOM     15  C   UNL d   1      14.259  13.172  -1.013  0.00  0.00     0.058 A 
ATOM     16  C   UNL d   1      14.827  12.978  -0.464  0.00  0.00     0.197 A 
ATOM     17  O   UNL d   1      15.484  13.435  -0.322  0.00  0.00    -0.286 OA
ATOM     18  C   UNL d   1      14.729  12.259  -0.016  0.00  0.00     0.042 A 
ATOM     19  C   UNL d   1      14.069  11.779  -0.144  0.00  0.00     0.003 A 
ATOM     20  C   UNL d   1      13.526  12.022  -0.710  0.00  0.00     0.000 A 
ATOM     21  C   UNL d   1      13.618  12.696  -1.130  0.00  0.00     0.005 A 
ENDBRANCH   3  15
BRANCH   4  22
ATOM     22  C   UNL d   1      14.841  15.949  -1.721  0.00  0.00     0.019 A 
ATOM     23  C   UNL d   1      15.125  16.261  -1.007  0.00  0.00     0.002 A 
ATOM     24  C   UNL d   1      15.337  17.042  -0.965  0.00  0.00     0.000 A 
ATOM     25  C   UNL d   1      15.271  17.500  -1.603  0.00  0.00     0.000 A 
ATOM     26  C   UNL d   1      14.998  17.227  -2.308  0.00  0.00     0.000 A 
ATOM     27  C   UNL d   1      15.492  18.293  -1.537  0.00  0.00     0.000 C 
ATOM     28  C   UNL d   1      14.776  16.432  -2.374  0.00  0.00     0.002 A 
ENDBRANCH   4  22
TORSDOF 4
ENDMDL
