MODEL 1
REMARK VINA RESULT:      -6.9      0.000      0.000
REMARK  3 active torsions:
REMARK  status: ('A' for Active; 'I' for Inactive)
REMARK    1  A    between atoms: C_4  and  S_1 
REMARK    2  A    between atoms: N_7  and  S_1 
REMARK    3  A    between atoms: C_14  and  N_7 
ROOT
ATOM      1  S   UNL d   1     -41.523-122.641 -51.185  0.00  0.00     0.285 S 
ATOM      2  O   UNL d   1     -41.160-123.357 -51.304  0.00  0.00    -0.198 OA
ATOM      3  O   UNL d   1     -41.898-121.883 -51.072  0.00  0.00    -0.198 OA
ENDROOT
BRANCH   1   4
ATOM      4  C   UNL d   1     -41.944-122.948 -50.530  0.00  0.00     0.105 A 
ATOM      5  C   UNL d   1     -41.751-122.711 -49.783  0.00  0.00     0.012 A 
ATOM      6  C   UNL d   1     -42.183-123.027 -49.124  0.00  0.00     0.001 A 
ATOM      7  C   UNL d   1     -41.125-122.151 -49.645  0.00  0.00     0.001 C 
ATOM      8  C   UNL d   1     -42.775-123.553 -49.220  0.00  0.00     0.000 A 
ATOM      9  C   UNL d   1     -42.984-123.810 -50.028  0.00  0.00     0.001 A 
ATOM     10  C   UNL d   1     -43.146-123.813 -48.531  0.00  0.00     0.000 C 
ATOM     11  C   UNL d   1     -42.575-123.509 -50.638  0.00  0.00     0.013 A 
ENDBRANCH   1   4
BRANCH   1  12
ATOM     12  N   UNL d   1     -41.123-122.317 -51.822  0.00  0.00    -0.158 NA
BRANCH  12  13
ATOM     13  C   UNL d   1     -41.330-122.515 -52.631  0.00  0.00     0.094 A 
ATOM     14  C   UNL d   1     -41.685-121.969 -53.129  0.00  0.00     0.029 A 
ATOM     15  C   UNL d   1     -41.880-122.155 -53.889  0.00  0.00     0.059 A 
ATOM     16  S   UNL d   1     -42.241-121.698 -54.495  0.00  0.00    -0.018 SA
ATOM     17  C   UNL d   1     -41.730-122.896 -54.187  0.00  0.00     0.110 A 
ATOM     18  C   UNL d   1     -42.280-122.224 -55.136  0.00  0.00     0.332 A 
ATOM     19  O   UNL d   1     -42.618-121.975 -55.881  0.00  0.00    -0.251 OA
ATOM     20  O   UNL d   1     -41.988-122.920 -54.971  0.00  0.00    -0.268 OA
ATOM     21  C   UNL d   1     -41.386-123.452 -53.730  0.00  0.00     0.027 A 
ATOM     22  C   UNL d   1     -41.171-123.292 -52.937  0.00  0.00     0.022 A 
ENDBRANCH  12  13
ENDBRANCH   1  12
TORSDOF 3
ENDMDL
MODEL 2
REMARK VINA RESULT:      -6.9      1.352      4.544
REMARK  3 active torsions:
REMARK  status: ('A' for Active; 'I' for Inactive)
REMARK    1  A    between atoms: C_4  and  S_1 
REMARK    2  A    between atoms: N_7  and  S_1 
REMARK    3  A    between atoms: C_14  and  N_7 
ROOT
ATOM      1  S   UNL d   1     -41.398-122.683 -52.645  0.00  0.00     0.285 S 
ATOM      2  O   UNL d   1     -41.654-123.448 -52.732  0.00  0.00    -0.198 OA
ATOM      3  O   UNL d   1     -41.123-121.882 -52.539  0.00  0.00    -0.198 OA
ENDROOT
BRANCH   1   4
ATOM      4  C   UNL d   1     -41.670-122.489 -53.412  0.00  0.00     0.105 A 
ATOM      5  C   UNL d   1     -41.540-123.000 -54.023  0.00  0.00     0.012 A 
ATOM      6  C   UNL d   1     -41.820-122.796 -54.800  0.00  0.00     0.001 A 
ATOM      7  C   UNL d   1     -41.129-123.736 -53.906  0.00  0.00     0.001 C 
ATOM      8  C   UNL d   1     -42.208-122.115 -54.943  0.00  0.00     0.000 A 
ATOM      9  C   UNL d   1     -42.348-121.562 -54.282  0.00  0.00     0.001 A 
ATOM     10  C   UNL d   1     -42.447-121.989 -55.722  0.00  0.00     0.000 C 
ATOM     11  C   UNL d   1     -42.083-121.761 -53.560  0.00  0.00     0.013 A 
ENDBRANCH   1   4
BRANCH   1  12
ATOM     12  N   UNL d   1     -41.122-122.847 -51.891  0.00  0.00    -0.158 NA
BRANCH  12  13
ATOM     13  C   UNL d   1     -41.616-122.736 -51.198  0.00  0.00     0.094 A 
ATOM     14  C   UNL d   1     -41.526-123.199 -50.528  0.00  0.00     0.029 A 
ATOM     15  C   UNL d   1     -41.991-123.094 -49.876  0.00  0.00     0.059 A 
ATOM     16  S   UNL d   1     -42.003-123.492 -49.136  0.00  0.00    -0.018 SA
ATOM     17  C   UNL d   1     -42.567-122.522 -49.865  0.00  0.00     0.110 A 
ATOM     18  C   UNL d   1     -42.612-123.110 -48.723  0.00  0.00     0.332 A 
ATOM     19  O   UNL d   1     -42.813-123.351 -47.927  0.00  0.00    -0.251 OA
ATOM     20  O   UNL d   1     -42.947-122.547 -49.132  0.00  0.00    -0.268 OA
ATOM     21  C   UNL d   1     -42.682-122.054 -50.501  0.00  0.00     0.027 A 
ATOM     22  C   UNL d   1     -42.218-122.136 -51.192  0.00  0.00     0.022 A 
ENDBRANCH  12  13
ENDBRANCH   1  12
TORSDOF 3
ENDMDL
