MODEL 1
REMARK VINA RESULT:      -3.4      0.000      0.000
REMARK  3 active torsions:
REMARK  status: ('A' for Active; 'I' for Inactive)
REMARK    1  A    between atoms: C_11  and  N_1 
REMARK    2  A    between atoms: C_3  and  C_6 
REMARK    3  A    between atoms: C_6  and  N_5 
ROOT
ATOM      1  N   UNL d   1      32.968  20.654 -22.225  0.00  0.00    -0.301 N 
ATOM      2  N   UNL d   1      33.148  19.110 -22.812  0.00  0.00    -0.300 N 
ATOM      3  C   UNL d   1      32.874  19.993 -21.716  0.00  0.00     0.100 A 
ATOM      4  C   UNL d   1      33.150  20.527 -23.020  0.00  0.00     0.100 A 
ATOM      5  C   UNL d   1      33.241  19.771 -23.322  0.00  0.00     0.100 A 
ATOM      6  C   UNL d   1      32.965  19.220 -22.014  0.00  0.00     0.100 A 
ENDROOT
BRANCH   2   7
ATOM      7  C   UNL d   1      33.239  18.337 -23.110  0.00  0.00     0.080 C 
BRANCH   7   8
ATOM      8  C   UNL d   1      32.602  17.954 -23.470  0.00  0.00     0.019 A 
ATOM      9  C   UNL d   1      32.594  17.117 -23.524  0.00  0.00     0.022 A 
ATOM     10  C   UNL d   1      31.959  16.735 -23.884  0.00  0.00     0.120 A 
ATOM     11  C   UNL d   1      33.221  16.687 -23.217  0.00  0.00     0.003 A 
ATOM     12  N   UNL d   1      31.941  15.918 -23.942  0.00  0.00    -0.241 NA
ATOM     13  C   UNL d   1      31.322  17.185 -24.194  0.00  0.00     0.213 A 
ATOM     14  C   UNL d   1      32.578  15.466 -23.631  0.00  0.00     0.099 A 
ATOM     15  C   UNL d   1      33.213  15.848 -23.271  0.00  0.00     0.021 A 
ATOM     16  C   UNL d   1      31.333  18.017 -24.139  0.00  0.00     0.044 A 
ATOM     17  O   UNL d   1      30.686  16.803 -24.554  0.00  0.00    -0.285 OA
ATOM     18  C   UNL d   1      31.969  18.398 -23.779  0.00  0.00     0.005 A 
ENDBRANCH   7   8
ENDBRANCH   2   7
BRANCH   1  19
ATOM     19  C   UNL d   1      32.837  21.318 -21.736  0.00  0.00     0.064 A 
ATOM     20  C   UNL d   1      32.424  21.417 -21.040  0.00  0.00     0.018 A 
ATOM     21  C   UNL d   1      32.406  22.188 -20.682  0.00  0.00     0.002 A 
ATOM     22  C   UNL d   1      32.785  22.809 -21.017  0.00  0.00     0.000 A 
ATOM     23  C   UNL d   1      33.205  22.697 -21.727  0.00  0.00     0.002 A 
ATOM     24  C   UNL d   1      33.229  21.956 -22.082  0.00  0.00     0.018 A 
ENDBRANCH   1  19
TORSDOF 3
ENDMDL
MODEL 2
REMARK VINA RESULT:      -2.5      1.642      5.129
REMARK  3 active torsions:
REMARK  status: ('A' for Active; 'I' for Inactive)
REMARK    1  A    between atoms: C_11  and  N_1 
REMARK    2  A    between atoms: C_3  and  C_6 
REMARK    3  A    between atoms: C_6  and  N_5 
ROOT
ATOM      1  N   UNL d   1      32.324  18.062 -23.544  0.00  0.00    -0.301 N 
ATOM      2  N   UNL d   1      32.933  19.574 -23.223  0.00  0.00    -0.300 N 
ATOM      3  C   UNL d   1      32.091  18.721 -24.010  0.00  0.00     0.100 A 
ATOM      4  C   UNL d   1      32.858  18.175 -22.925  0.00  0.00     0.100 A 
ATOM      5  C   UNL d   1      33.165  18.915 -22.757  0.00  0.00     0.100 A 
ATOM      6  C   UNL d   1      32.399  19.478 -23.846  0.00  0.00     0.100 A 
ENDROOT
BRANCH   2   7
ATOM      7  C   UNL d   1      33.241  20.331 -23.059  0.00  0.00     0.080 C 
BRANCH   7   8
ATOM      8  C   UNL d   1      33.018  20.728 -22.371  0.00  0.00     0.019 A 
ATOM      9  C   UNL d   1      33.018  21.568 -22.354  0.00  0.00     0.022 A 
ATOM     10  C   UNL d   1      32.795  21.964 -21.668  0.00  0.00     0.120 A 
ATOM     11  C   UNL d   1      33.241  21.984 -23.024  0.00  0.00     0.003 A 
ATOM     12  N   UNL d   1      32.791  22.783 -21.640  0.00  0.00    -0.241 NA
ATOM     13  C   UNL d   1      32.568  21.528 -20.987  0.00  0.00     0.213 A 
ATOM     14  C   UNL d   1      33.018  23.221 -22.321  0.00  0.00     0.099 A 
ATOM     15  C   UNL d   1      33.241  22.824 -23.008  0.00  0.00     0.021 A 
ATOM     16  C   UNL d   1      32.569  20.694 -21.007  0.00  0.00     0.044 A 
ATOM     17  O   UNL d   1      32.345  21.924 -20.300  0.00  0.00    -0.285 OA
ATOM     18  C   UNL d   1      32.792  20.298 -21.694  0.00  0.00     0.005 A 
ENDBRANCH   7   8
ENDBRANCH   2   7
BRANCH   1  19
ATOM     19  C   UNL d   1      31.908  17.415 -23.871  0.00  0.00     0.064 A 
ATOM     20  C   UNL d   1      31.240  17.368 -24.336  0.00  0.00     0.018 A 
ATOM     21  C   UNL d   1      30.962  16.600 -24.575  0.00  0.00     0.002 A 
ATOM     22  C   UNL d   1      31.344  15.934 -24.349  0.00  0.00     0.000 A 
ATOM     23  C   UNL d   1      32.025  15.993 -23.874  0.00  0.00     0.002 A 
ATOM     24  C   UNL d   1      32.302  16.730 -23.638  0.00  0.00     0.018 A 
ENDBRANCH   1  19
TORSDOF 3
ENDMDL
MODEL 3
REMARK VINA RESULT:      -1.6      3.597      5.124
REMARK  3 active torsions:
REMARK  status: ('A' for Active; 'I' for Inactive)
REMARK    1  A    between atoms: C_11  and  N_1 
REMARK    2  A    between atoms: C_3  and  C_6 
REMARK    3  A    between atoms: C_6  and  N_5 
ROOT
ATOM      1  N   UNL d   1      32.380  23.190 -19.239  0.00  0.00    -0.301 N 
ATOM      2  N   UNL d   1      32.561  23.378 -20.881  0.00  0.00    -0.300 N 
ATOM      3  C   UNL d   1      33.144  23.297 -19.573  0.00  0.00     0.100 A 
ATOM      4  C   UNL d   1      31.722  23.179 -19.738  0.00  0.00     0.100 A 
ATOM      5  C   UNL d   1      31.798  23.270 -20.548  0.00  0.00     0.100 A 
ATOM      6  C   UNL d   1      33.231  23.391 -20.396  0.00  0.00     0.100 A 
ENDROOT
BRANCH   2   7
ATOM      7  C   UNL d   1      32.649  23.472 -21.704  0.00  0.00     0.080 C 
BRANCH   7   8
ATOM      8  C   UNL d   1      32.796  22.816 -22.182  0.00  0.00     0.019 A 
ATOM      9  C   UNL d   1      32.774  22.894 -23.018  0.00  0.00     0.022 A 
ATOM     10  C   UNL d   1      32.922  22.239 -23.495  0.00  0.00     0.120 A 
ATOM     11  C   UNL d   1      32.606  23.624 -23.350  0.00  0.00     0.003 A 
ATOM     12  N   UNL d   1      32.903  22.304 -24.312  0.00  0.00    -0.241 NA
ATOM     13  C   UNL d   1      33.093  21.496 -23.144  0.00  0.00     0.213 A 
ATOM     14  C   UNL d   1      32.731  23.047 -24.664  0.00  0.00     0.099 A 
ATOM     15  C   UNL d   1      32.584  23.702 -24.186  0.00  0.00     0.021 A 
ATOM     16  C   UNL d   1      33.114  21.421 -22.314  0.00  0.00     0.044 A 
ATOM     17  O   UNL d   1      33.240  20.840 -23.621  0.00  0.00    -0.285 OA
ATOM     18  C   UNL d   1      32.967  22.077 -21.837  0.00  0.00     0.005 A 
ENDBRANCH   7   8
ENDBRANCH   2   7
BRANCH   1  19
ATOM     19  C   UNL d   1      32.516  23.118 -18.419  0.00  0.00     0.064 A 
ATOM     20  C   UNL d   1      33.083  22.722 -17.987  0.00  0.00     0.018 A 
ATOM     21  C   UNL d   1      33.056  22.769 -17.138  0.00  0.00     0.002 A 
ATOM     22  C   UNL d   1      32.487  23.191 -16.765  0.00  0.00     0.000 A 
ATOM     23  C   UNL d   1      31.913  23.591 -17.215  0.00  0.00     0.002 A 
ATOM     24  C   UNL d   1      31.929  23.553 -18.036  0.00  0.00     0.018 A 
ENDBRANCH   1  19
TORSDOF 3
ENDMDL
MODEL 4
REMARK VINA RESULT:      -1.3      0.757      1.573
REMARK  3 active torsions:
REMARK  status: ('A' for Active; 'I' for Inactive)
REMARK    1  A    between atoms: C_11  and  N_1 
REMARK    2  A    between atoms: C_3  and  C_6 
REMARK    3  A    between atoms: C_6  and  N_5 
ROOT
ATOM      1  N   UNL d   1      32.965  20.437 -22.025  0.00  0.00    -0.301 N 
ATOM      2  N   UNL d   1      33.037  19.283 -23.218  0.00  0.00    -0.300 N 
ATOM      3  C   UNL d   1      32.845  20.649 -22.828  0.00  0.00     0.100 A 
ATOM      4  C   UNL d   1      33.118  19.648 -21.836  0.00  0.00     0.100 A 
ATOM      5  C   UNL d   1      33.156  19.070 -22.414  0.00  0.00     0.100 A 
ATOM      6  C   UNL d   1      32.882  20.068 -23.424  0.00  0.00     0.100 A 
ENDROOT
BRANCH   2   7
ATOM      7  C   UNL d   1      33.074  18.701 -23.814  0.00  0.00     0.080 C 
BRANCH   7   8
ATOM      8  C   UNL d   1      32.840  17.927 -23.651  0.00  0.00     0.019 A 
ATOM      9  C   UNL d   1      32.208  17.582 -24.083  0.00  0.00     0.022 A 
ATOM     10  C   UNL d   1      31.974  16.809 -23.921  0.00  0.00     0.120 A 
ATOM     11  C   UNL d   1      31.830  18.020 -24.664  0.00  0.00     0.003 A 
ATOM     12  N   UNL d   1      31.359  16.462 -24.337  0.00  0.00    -0.241 NA
ATOM     13  C   UNL d   1      32.368  16.369 -23.325  0.00  0.00     0.213 A 
ATOM     14  C   UNL d   1      30.964  16.902 -24.935  0.00  0.00     0.099 A 
ATOM     15  C   UNL d   1      31.198  17.675 -25.097  0.00  0.00     0.021 A 
ATOM     16  C   UNL d   1      32.995  16.715 -22.897  0.00  0.00     0.044 A 
ATOM     17  O   UNL d   1      32.135  15.596 -23.162  0.00  0.00    -0.285 OA
ATOM     18  C   UNL d   1      33.229  17.488 -23.060  0.00  0.00     0.005 A 
ENDBRANCH   7   8
ENDBRANCH   2   7
BRANCH   1  19
ATOM     19  C   UNL d   1      32.887  21.154 -21.603  0.00  0.00     0.064 A 
ATOM     20  C   UNL d   1      33.240  21.884 -21.687  0.00  0.00     0.018 A 
ATOM     21  C   UNL d   1      33.026  22.506 -21.147  0.00  0.00     0.002 A 
ATOM     22  C   UNL d   1      32.488  22.382 -20.567  0.00  0.00     0.000 A 
ATOM     23  C   UNL d   1      32.133  21.634 -20.490  0.00  0.00     0.002 A 
ATOM     24  C   UNL d   1      32.333  21.026 -21.006  0.00  0.00     0.018 A 
ENDBRANCH   1  19
TORSDOF 3
ENDMDL
MODEL 5
REMARK VINA RESULT:      -0.9      2.089      4.980
REMARK  3 active torsions:
REMARK  status: ('A' for Active; 'I' for Inactive)
REMARK    1  A    between atoms: C_11  and  N_1 
REMARK    2  A    between atoms: C_3  and  C_6 
REMARK    3  A    between atoms: C_6  and  N_5 
ROOT
ATOM      1  N   UNL d   1      30.002  16.938 -24.436  0.00  0.00    -0.301 N 
ATOM      2  N   UNL d   1      31.560  17.517 -24.404  0.00  0.00    -0.300 N 
ATOM      3  C   UNL d   1      30.505  16.768 -23.785  0.00  0.00     0.100 A 
ATOM      4  C   UNL d   1      30.292  17.396 -25.059  0.00  0.00     0.100 A 
ATOM      5  C   UNL d   1      31.057  17.687 -25.055  0.00  0.00     0.100 A 
ATOM      6  C   UNL d   1      31.286  17.060 -23.772  0.00  0.00     0.100 A 
ENDROOT
BRANCH   2   7
ATOM      7  C   UNL d   1      32.341  17.809 -24.391  0.00  0.00     0.080 C 
BRANCH   7   8
ATOM      8  C   UNL d   1      32.565  18.365 -23.824  0.00  0.00     0.019 A 
ATOM      9  C   UNL d   1      32.777  19.141 -24.062  0.00  0.00     0.022 A 
ATOM     10  C   UNL d   1      33.001  19.697 -23.497  0.00  0.00     0.120 A 
ATOM     11  C   UNL d   1      32.759  19.338 -24.858  0.00  0.00     0.003 A 
ATOM     12  N   UNL d   1      33.211  20.458 -23.718  0.00  0.00    -0.241 NA
ATOM     13  C   UNL d   1      33.016  19.485 -22.685  0.00  0.00     0.213 A 
ATOM     14  C   UNL d   1      33.196  20.671 -24.531  0.00  0.00     0.099 A 
ATOM     15  C   UNL d   1      32.972  20.116 -25.097  0.00  0.00     0.021 A 
ATOM     16  C   UNL d   1      32.805  18.713 -22.452  0.00  0.00     0.044 A 
ATOM     17  O   UNL d   1      33.240  20.040 -22.119  0.00  0.00    -0.285 OA
ATOM     18  C   UNL d   1      32.581  18.157 -23.017  0.00  0.00     0.005 A 
ENDBRANCH   7   8
ENDBRANCH   2   7
BRANCH   1  19
ATOM     19  C   UNL d   1      29.282  16.559 -24.251  0.00  0.00     0.064 A 
ATOM     20  C   UNL d   1      29.008  15.802 -24.380  0.00  0.00     0.018 A 
ATOM     21  C   UNL d   1      28.227  15.599 -24.112  0.00  0.00     0.002 A 
ATOM     22  C   UNL d   1      27.765  16.136 -23.739  0.00  0.00     0.000 A 
ATOM     23  C   UNL d   1      28.053  16.906 -23.612  0.00  0.00     0.002 A 
ATOM     24  C   UNL d   1      28.807  17.113 -23.867  0.00  0.00     0.018 A 
ENDBRANCH   1  19
TORSDOF 3
ENDMDL
MODEL 6
REMARK VINA RESULT:      -0.6      1.416      2.382
REMARK  3 active torsions:
REMARK  status: ('A' for Active; 'I' for Inactive)
REMARK    1  A    between atoms: C_11  and  N_1 
REMARK    2  A    between atoms: C_3  and  C_6 
REMARK    3  A    between atoms: C_6  and  N_5 
ROOT
ATOM      1  N   UNL d   1      32.687  21.920 -21.025  0.00  0.00    -0.301 N 
ATOM      2  N   UNL d   1      32.990  21.001 -22.376  0.00  0.00    -0.300 N 
ATOM      3  C   UNL d   1      32.765  22.285 -21.777  0.00  0.00     0.100 A 
ATOM      4  C   UNL d   1      32.764  21.100 -20.965  0.00  0.00     0.100 A 
ATOM      5  C   UNL d   1      32.912  20.637 -21.623  0.00  0.00     0.100 A 
ATOM      6  C   UNL d   1      32.916  21.821 -22.453  0.00  0.00     0.100 A 
ENDROOT
BRANCH   2   7
ATOM      7  C   UNL d   1      33.141  20.538 -23.052  0.00  0.00     0.080 C 
BRANCH   7   8
ATOM      8  C   UNL d   1      33.115  19.715 -23.003  0.00  0.00     0.019 A 
ATOM      9  C   UNL d   1      32.962  19.260 -23.692  0.00  0.00     0.022 A 
ATOM     10  C   UNL d   1      32.936  18.438 -23.643  0.00  0.00     0.120 A 
ATOM     11  C   UNL d   1      32.840  19.640 -24.407  0.00  0.00     0.003 A 
ATOM     12  N   UNL d   1      32.787  17.984 -24.309  0.00  0.00    -0.241 NA
ATOM     13  C   UNL d   1      33.063  18.058 -22.905  0.00  0.00     0.213 A 
ATOM     14  C   UNL d   1      32.660  18.363 -25.048  0.00  0.00     0.099 A 
ATOM     15  C   UNL d   1      32.686  19.185 -25.097  0.00  0.00     0.021 A 
ATOM     16  C   UNL d   1      33.215  18.513 -22.223  0.00  0.00     0.044 A 
ATOM     17  O   UNL d   1      33.037  17.236 -22.856  0.00  0.00    -0.285 OA
ATOM     18  C   UNL d   1      33.241  19.335 -22.272  0.00  0.00     0.005 A 
ENDBRANCH   7   8
ENDBRANCH   2   7
BRANCH   1  19
ATOM     19  C   UNL d   1      32.541  22.552 -20.498  0.00  0.00     0.064 A 
ATOM     20  C   UNL d   1      31.971  23.134 -20.481  0.00  0.00     0.018 A 
ATOM     21  C   UNL d   1      31.987  23.702 -19.848  0.00  0.00     0.002 A 
ATOM     22  C   UNL d   1      32.549  23.671 -19.278  0.00  0.00     0.000 A 
ATOM     23  C   UNL d   1      33.127  23.073 -19.305  0.00  0.00     0.002 A 
ATOM     24  C   UNL d   1      33.121  22.519 -19.912  0.00  0.00     0.018 A 
ENDBRANCH   1  19
TORSDOF 3
ENDMDL
MODEL 7
REMARK VINA RESULT:      -0.5      0.946      1.669
REMARK  3 active torsions:
REMARK  status: ('A' for Active; 'I' for Inactive)
REMARK    1  A    between atoms: C_11  and  N_1 
REMARK    2  A    between atoms: C_3  and  C_6 
REMARK    3  A    between atoms: C_6  and  N_5 
ROOT
ATOM      1  N   UNL d   1      33.042  19.959 -22.608  0.00  0.00    -0.301 N 
ATOM      2  N   UNL d   1      32.796  18.639 -23.588  0.00  0.00    -0.300 N 
ATOM      3  C   UNL d   1      32.713  19.252 -22.294  0.00  0.00     0.100 A 
ATOM      4  C   UNL d   1      33.241  19.989 -23.408  0.00  0.00     0.100 A 
ATOM      5  C   UNL d   1      33.125  19.346 -23.901  0.00  0.00     0.100 A 
ATOM      6  C   UNL d   1      32.592  18.593 -22.788  0.00  0.00     0.100 A 
ENDROOT
BRANCH   2   7
ATOM      7  C   UNL d   1      32.675  17.980 -24.082  0.00  0.00     0.080 C 
BRANCH   7   8
ATOM      8  C   UNL d   1      32.187  17.362 -23.835  0.00  0.00     0.019 A 
ATOM      9  C   UNL d   1      31.424  17.270 -24.175  0.00  0.00     0.022 A 
ATOM     10  C   UNL d   1      30.937  16.653 -23.928  0.00  0.00     0.120 A 
ATOM     11  C   UNL d   1      31.173  17.797 -24.750  0.00  0.00     0.003 A 
ATOM     12  N   UNL d   1      30.191  16.554 -24.254  0.00  0.00    -0.241 NA
ATOM     13  C   UNL d   1      31.204  16.119 -23.338  0.00  0.00     0.213 A 
ATOM     14  C   UNL d   1      29.923  17.088 -24.844  0.00  0.00     0.099 A 
ATOM     15  C   UNL d   1      30.411  17.705 -25.091  0.00  0.00     0.021 A 
ATOM     16  C   UNL d   1      31.961  16.214 -23.003  0.00  0.00     0.044 A 
ATOM     17  O   UNL d   1      30.717  15.503 -23.092  0.00  0.00    -0.285 OA
ATOM     18  C   UNL d   1      32.449  16.830 -23.249  0.00  0.00     0.005 A 
ENDBRANCH   7   8
ENDBRANCH   2   7
BRANCH   1  19
ATOM     19  C   UNL d   1      33.078  20.482 -21.958  0.00  0.00     0.064 A 
ATOM     20  C   UNL d   1      33.059  20.361 -21.152  0.00  0.00     0.018 A 
ATOM     21  C   UNL d   1      33.109  21.037 -20.636  0.00  0.00     0.002 A 
ATOM     22  C   UNL d   1      33.173  21.778 -20.932  0.00  0.00     0.000 A 
ATOM     23  C   UNL d   1      33.192  21.891 -21.756  0.00  0.00     0.002 A 
ATOM     24  C   UNL d   1      33.144  21.245 -22.263  0.00  0.00     0.018 A 
ENDBRANCH   1  19
TORSDOF 3
ENDMDL
