MODEL 1
REMARK VINA RESULT:      56.4      0.000      0.000
REMARK  5 active torsions:
REMARK  status: ('A' for Active; 'I' for Inactive)
REMARK    1  A    between atoms: C_6  and  C_1 
REMARK    2  A    between atoms: C_11  and  N_3 
REMARK    3  A    between atoms: C_20  and  C_11 
REMARK    4  A    between atoms: C_13  and  O_19 
REMARK    5  A    between atoms: O_19  and  C_20 
ROOT
ATOM      1  C   UNL d   1     -54.963-100.832 -43.599  0.00  0.00     0.171 A 
ATOM      2  N   UNL d   1     -54.935-101.059 -42.804  0.00  0.00    -0.225 NA
ATOM      3  N   UNL d   1     -54.905-100.004 -43.635  0.00  0.00    -0.286 N 
ATOM      4  C   UNL d   1     -54.840 -99.719 -42.860  0.00  0.00     0.083 A 
ATOM      5  C   UNL d   1     -54.859-100.370 -42.347  0.00  0.00     0.099 A 
ATOM      6  C   UNL d   1     -54.766 -98.949 -42.543  0.00  0.00     0.019 A 
ATOM      7  C   UNL d   1     -54.804-100.255 -41.525  0.00  0.00     0.021 A 
ATOM      8  C   UNL d   1     -54.711 -98.839 -41.729  0.00  0.00     0.002 A 
ATOM      9  C   UNL d   1     -54.731 -99.493 -41.218  0.00  0.00     0.002 A 
ENDROOT
BRANCH   3  10
ATOM     10  C   UNL d   1     -54.925 -99.694 -44.399  0.00  0.00     0.108 C 
BRANCH  10  11
ATOM     11  C   UNL d   1     -55.503 -99.143 -44.603  0.00  0.00     0.142 C 
BRANCH  11  12
ATOM     12  O   UNL d   1     -56.084 -98.935 -44.055  0.00  0.00    -0.304 OA
BRANCH  12  13
ATOM     13  C   UNL d   1     -56.872 -98.890 -44.290  0.00  0.00     0.100 A 
ATOM     14  C   UNL d   1     -57.466 -98.909 -43.717  0.00  0.00     0.026 A 
ATOM     15  C   UNL d   1     -58.257 -98.864 -43.947  0.00  0.00     0.013 A 
ATOM     16  C   UNL d   1     -58.448 -98.801 -44.752  0.00  0.00     0.058 A 
ATOM     17  C   UNL d   1     -57.850 -98.784 -45.319  0.00  0.00     0.013 A 
ATOM     18 CL   UNL d   1     -59.237 -98.757 -44.983  0.00  0.00    -0.082 Cl
ATOM     19  C   UNL d   1     -57.061 -98.828 -45.084  0.00  0.00     0.026 A 
ENDBRANCH  12  13
ENDBRANCH  11  12
ENDBRANCH  10  11
ENDBRANCH   3  10
BRANCH   1  20
ATOM     20  C   UNL d   1     -55.037-101.340 -44.246  0.00  0.00     0.134 A 
ATOM     21  O   UNL d   1     -54.780-101.351 -44.919  0.00  0.00    -0.302 OA
ATOM     22  C   UNL d   1     -54.952-101.888 -45.363  0.00  0.00     0.123 A 
ATOM     23  C   UNL d   1     -55.386-102.423 -45.137  0.00  0.00     0.029 A 
ATOM     24  C   UNL d   1     -55.640-102.410 -44.467  0.00  0.00     0.030 A 
ENDBRANCH   1  20
TORSDOF 5
ENDMDL
