MODEL 1
REMARK VINA RESULT:      -9.6      0.000      0.000
REMARK  1 active torsions:
REMARK  status: ('A' for Active; 'I' for Inactive)
REMARK    1  A    between atoms: C_12  and  N_4 
ROOT
ATOM      1  C   UNL d   1      52.873  32.541  53.325  0.00  0.00     0.081 A 
ATOM      2  C   UNL d   1      53.382  32.852  53.887  0.00  0.00     0.118 A 
ATOM      3  C   UNL d   1      52.342  33.053  52.922  0.00  0.00     0.268 A 
ATOM      4  N   UNL d   1      52.335  33.858  53.090  0.00  0.00    -0.249 N 
ATOM      5  N   UNL d   1      53.391  33.653  54.071  0.00  0.00    -0.212 NA
ATOM      6  C   UNL d   1      52.861  34.164  53.668  0.00  0.00     0.209 A 
ATOM      7  S   UNL d   1      53.829  32.194  54.177  0.00  0.00    -0.068 SA
ATOM      8  C   UNL d   1      53.001  31.728  53.273  0.00  0.00     0.013 A 
ATOM      9  C   UNL d   1      53.608  31.540  53.821  0.00  0.00     0.031 A 
ATOM     10  S   UNL d   1      52.882  34.977  53.866  0.00  0.00    -0.038 SA
ATOM     11  O   UNL d   1      51.806  32.754  52.336  0.00  0.00    -0.267 OA
ATOM     12  C   UNL d   1      52.658  31.139  52.810  0.00  0.00     0.001 A 
ATOM     13  C   UNL d   1      53.859  30.749  53.892  0.00  0.00     0.006 A 
ATOM     14  C   UNL d   1      52.910  30.364  52.886  0.00  0.00     0.000 A 
ATOM     15  C   UNL d   1      53.505  30.166  53.420  0.00  0.00     0.001 A 
ENDROOT
BRANCH   4  16
ATOM     16  C   UNL d   1      51.804  34.355  52.683  0.00  0.00     0.085 C 
ATOM     17  C   UNL d   1      51.028  34.430  52.938  0.00  0.00     0.021 C 
ENDBRANCH   4  16
TORSDOF 1
ENDMDL
MODEL 2
REMARK VINA RESULT:      -9.6      1.368      2.052
REMARK  1 active torsions:
REMARK  status: ('A' for Active; 'I' for Inactive)
REMARK    1  A    between atoms: C_12  and  N_4 
ROOT
ATOM      1  C   UNL d   1      53.393  32.286  53.914  0.00  0.00     0.081 A 
ATOM      2  C   UNL d   1      52.920  32.740  53.423  0.00  0.00     0.118 A 
ATOM      3  C   UNL d   1      53.833  32.661  54.524  0.00  0.00     0.268 A 
ATOM      4  N   UNL d   1      53.789  33.476  54.626  0.00  0.00    -0.249 N 
ATOM      5  N   UNL d   1      52.862  33.556  53.506  0.00  0.00    -0.212 NA
ATOM      6  C   UNL d   1      53.302  33.930  54.116  0.00  0.00     0.209 A 
ATOM      7  S   UNL d   1      52.563  32.195  52.883  0.00  0.00    -0.068 SA
ATOM      8  C   UNL d   1      53.329  31.496  53.687  0.00  0.00     0.013 A 
ATOM      9  C   UNL d   1      52.801  31.471  53.035  0.00  0.00     0.031 A 
ATOM     10  S   UNL d   1      53.232  34.761  54.189  0.00  0.00    -0.038 SA
ATOM     11  O   UNL d   1      54.329  32.211  55.046  0.00  0.00    -0.267 OA
ATOM     12  C   UNL d   1      53.672  30.805  53.974  0.00  0.00     0.001 A 
ATOM     13  C   UNL d   1      52.627  30.737  52.683  0.00  0.00     0.006 A 
ATOM     14  C   UNL d   1      53.496  30.086  53.623  0.00  0.00     0.000 A 
ATOM     15  C   UNL d   1      52.979  30.048  52.983  0.00  0.00     0.001 A 
ENDROOT
BRANCH   4  16
ATOM     16  C   UNL d   1      54.231  33.836  55.234  0.00  0.00     0.085 C 
ATOM     17  C   UNL d   1      55.034  33.969  55.140  0.00  0.00     0.021 C 
ENDBRANCH   4  16
TORSDOF 1
ENDMDL
MODEL 3
REMARK VINA RESULT:      -8.9      1.482      3.424
REMARK  1 active torsions:
REMARK  status: ('A' for Active; 'I' for Inactive)
REMARK    1  A    between atoms: C_12  and  N_4 
ROOT
ATOM      1  C   UNL d   1      53.095  32.701  53.657  0.00  0.00     0.081 A 
ATOM      2  C   UNL d   1      52.580  32.607  53.027  0.00  0.00     0.118 A 
ATOM      3  C   UNL d   1      53.508  32.033  53.955  0.00  0.00     0.268 A 
ATOM      4  N   UNL d   1      53.395  31.292  53.616  0.00  0.00    -0.249 N 
ATOM      5  N   UNL d   1      52.453  31.876  52.673  0.00  0.00    -0.212 NA
ATOM      6  C   UNL d   1      52.866  31.208  52.971  0.00  0.00     0.209 A 
ATOM      7  S   UNL d   1      52.266  33.378  52.873  0.00  0.00    -0.068 SA
ATOM      8  C   UNL d   1      53.097  33.495  53.881  0.00  0.00     0.013 A 
ATOM      9  C   UNL d   1      52.566  33.895  53.369  0.00  0.00     0.031 A 
ATOM     10  S   UNL d   1      52.726  30.471  52.601  0.00  0.00    -0.038 SA
ATOM     11  O   UNL d   1      54.046  32.106  54.607  0.00  0.00    -0.267 OA
ATOM     12  C   UNL d   1      53.500  33.906  54.469  0.00  0.00     0.001 A 
ATOM     13  C   UNL d   1      52.451  34.715  53.464  0.00  0.00     0.006 A 
ATOM     14  C   UNL d   1      53.383  34.712  54.556  0.00  0.00     0.000 A 
ATOM     15  C   UNL d   1      52.864  35.117  54.061  0.00  0.00     0.001 A 
ENDROOT
BRANCH   4  16
ATOM     16  C   UNL d   1      53.811  30.637  53.921  0.00  0.00     0.085 C 
ATOM     17  C   UNL d   1      53.406  30.010  54.260  0.00  0.00     0.021 C 
ENDBRANCH   4  16
TORSDOF 1
ENDMDL
MODEL 4
REMARK VINA RESULT:      -8.1      0.980      3.021
REMARK  1 active torsions:
REMARK  status: ('A' for Active; 'I' for Inactive)
REMARK    1  A    between atoms: C_12  and  N_4 
ROOT
ATOM      1  C   UNL d   1      52.460  33.437  53.333  0.00  0.00     0.081 A 
ATOM      2  C   UNL d   1      52.655  33.964  53.929  0.00  0.00     0.118 A 
ATOM      3  C   UNL d   1      52.944  32.762  53.204  0.00  0.00     0.268 A 
ATOM      4  N   UNL d   1      53.608  32.633  53.673  0.00  0.00    -0.249 N 
ATOM      5  N   UNL d   1      53.313  33.854  54.409  0.00  0.00    -0.212 NA
ATOM      6  C   UNL d   1      53.797  33.180  54.280  0.00  0.00     0.209 A 
ATOM      7  S   UNL d   1      52.060  34.566  53.903  0.00  0.00    -0.068 SA
ATOM      8  C   UNL d   1      51.776  33.704  52.958  0.00  0.00     0.013 A 
ATOM      9  C   UNL d   1      51.549  34.415  53.339  0.00  0.00     0.031 A 
ATOM     10  S   UNL d   1      54.464  33.082  54.777  0.00  0.00    -0.038 SA
ATOM     11  O   UNL d   1      52.762  32.202  52.592  0.00  0.00    -0.267 OA
ATOM     12  C   UNL d   1      51.332  33.405  52.331  0.00  0.00     0.001 A 
ATOM     13  C   UNL d   1      50.868  34.817  53.076  0.00  0.00     0.006 A 
ATOM     14  C   UNL d   1      50.664  33.805  52.079  0.00  0.00     0.000 A 
ATOM     15  C   UNL d   1      50.430  34.505  52.444  0.00  0.00     0.001 A 
ENDROOT
BRANCH   4  16
ATOM     16  C   UNL d   1      54.080  31.960  53.535  0.00  0.00     0.085 C 
ATOM     17  C   UNL d   1      53.868  31.234  53.851  0.00  0.00     0.021 C 
ENDBRANCH   4  16
TORSDOF 1
ENDMDL
MODEL 5
REMARK VINA RESULT:      -7.8      1.668      2.444
REMARK  1 active torsions:
REMARK  status: ('A' for Active; 'I' for Inactive)
REMARK    1  A    between atoms: C_12  and  N_4 
ROOT
ATOM      1  C   UNL d   1      53.018  33.664  53.933  0.00  0.00     0.081 A 
ATOM      2  C   UNL d   1      52.944  32.872  53.736  0.00  0.00     0.118 A 
ATOM      3  C   UNL d   1      52.456  34.216  53.640  0.00  0.00     0.268 A 
ATOM      4  N   UNL d   1      51.837  33.962  53.161  0.00  0.00    -0.249 N 
ATOM      5  N   UNL d   1      52.333  32.597  53.259  0.00  0.00    -0.212 NA
ATOM      6  C   UNL d   1      51.772  33.148  52.967  0.00  0.00     0.209 A 
ATOM      7  S   UNL d   1      53.591  32.481  54.118  0.00  0.00    -0.068 SA
ATOM      8  C   UNL d   1      53.682  33.756  54.414  0.00  0.00     0.013 A 
ATOM      9  C   UNL d   1      54.021  32.995  54.512  0.00  0.00     0.031 A 
ATOM     10  S   UNL d   1      51.156  32.854  52.483  0.00  0.00    -0.038 SA
ATOM     11  O   UNL d   1      52.512  35.041  53.830  0.00  0.00    -0.267 OA
ATOM     12  C   UNL d   1      54.022  34.415  54.772  0.00  0.00     0.001 A 
ATOM     13  C   UNL d   1      54.707  32.913  54.977  0.00  0.00     0.006 A 
ATOM     14  C   UNL d   1      54.697  34.327  55.228  0.00  0.00     0.000 A 
ATOM     15  C   UNL d   1      55.039  33.585  55.332  0.00  0.00     0.001 A 
ENDROOT
BRANCH   4  16
ATOM     16  C   UNL d   1      51.286  34.519  52.878  0.00  0.00     0.085 C 
ATOM     17  C   UNL d   1      50.520  34.530  53.169  0.00  0.00     0.021 C 
ENDBRANCH   4  16
TORSDOF 1
ENDMDL
