MODEL 1
REMARK VINA RESULT:      17.0      0.000      0.000
REMARK  4 active torsions:
REMARK  status: ('A' for Active; 'I' for Inactive)
REMARK    1  A    between atoms: C_6  and  C_1 
REMARK    2  A    between atoms: C_4  and  C_11 
REMARK    3  A    between atoms: N_8  and  C_6 
REMARK    4  A    between atoms: C_13  and  C_6 
ROOT
ATOM      1  C   UNL d   1     -41.975-121.756 -52.508  0.00  0.00     0.067 C 
ENDROOT
BRANCH   1   2
ATOM      2  C   UNL d   1     -42.018-122.118 -53.261  0.00  0.00     0.057 A 
ATOM      3  C   UNL d   1     -42.511-121.818 -53.830  0.00  0.00     0.214 A 
ATOM      4  C   UNL d   1     -42.565-122.166 -54.583  0.00  0.00     0.121 A 
ATOM      5  O   UNL d   1     -42.975-121.136 -53.640  0.00  0.00    -0.285 OA
ATOM      6  N   UNL d   1     -43.058-121.866 -55.152  0.00  0.00    -0.241 NA
ATOM      7  C   UNL d   1     -42.104-122.830 -54.750  0.00  0.00     0.032 A 
ATOM      8  C   UNL d   1     -43.102-122.213 -55.883  0.00  0.00     0.099 A 
ATOM      9  C   UNL d   1     -42.642-122.877 -56.049  0.00  0.00     0.021 A 
ATOM     10  C   UNL d   1     -42.139-123.191 -55.484  0.00  0.00     0.004 A 
ATOM     11  C   UNL d   1     -41.592-123.143 -54.162  0.00  0.00     0.059 A 
ATOM     12  C   UNL d   1     -41.557-122.782 -53.427  0.00  0.00     0.016 A 
ATOM     13 CL   UNL d   1     -41.124-123.806 -54.309  0.00  0.00    -0.082 Cl
ENDBRANCH   1   2
BRANCH   1  14
ATOM     14  N   UNL d   1     -42.100-122.192 -51.814  0.00  0.00    -0.301 N 
ATOM     15  C   UNL d   1     -41.479-122.496 -51.370  0.00  0.00     0.100 A 
ATOM     16  C   UNL d   1     -41.619-122.926 -50.685  0.00  0.00     0.100 A 
ATOM     17  N   UNL d   1     -42.381-123.054 -50.440  0.00  0.00    -0.299 N 
ATOM     18  C   UNL d   1     -43.018-122.751 -50.882  0.00  0.00     0.100 A 
ATOM     19  C   UNL d   1     -42.501-123.489 -49.749  0.00  0.00     0.100 C 
ATOM     20  C   UNL d   1     -42.881-122.330 -51.553  0.00  0.00     0.100 A 
ENDBRANCH   1  14
BRANCH   1  21
ATOM     21  C   UNL d   1     -41.804-120.942 -52.448  0.00  0.00     0.016 A 
ATOM     22  C   UNL d   1     -41.413-120.555 -53.063  0.00  0.00     0.001 A 
ATOM     23  C   UNL d   1     -41.241-119.756 -53.013  0.00  0.00     0.004 A 
ATOM     24  C   UNL d   1     -41.459-119.324 -52.339  0.00  0.00     0.071 A 
ATOM     25  C   UNL d   1     -41.848-119.710 -51.728  0.00  0.00     0.004 A 
ATOM     26  C   UNL d   1     -42.021-120.511 -51.775  0.00  0.00     0.001 A 
BRANCH  24  27
ATOM     27  C   UNL d   1     -41.295-118.533 -52.276  0.00  0.00     0.419 C 
ATOM     28  F   UNL d   1     -41.123-117.749 -52.145  0.00  0.00    -0.166 F 
ATOM     29  F   UNL d   1     -41.289-117.999 -52.961  0.00  0.00    -0.166 F 
ATOM     30  F   UNL d   1     -41.141-118.262 -51.566  0.00  0.00    -0.166 F 
ENDBRANCH  24  27
ENDBRANCH   1  21
TORSDOF 4
ENDMDL
