MODEL 1
REMARK VINA RESULT:      10.6      0.000      0.000
REMARK  6 active torsions:
REMARK  status: ('A' for Active; 'I' for Inactive)
REMARK    1  A    between atoms: N_13  and  C_4 
REMARK    2  A    between atoms: O_17  and  C_9 
REMARK    3  A    between atoms: O_18  and  C_11 
REMARK    4  A    between atoms: C_19  and  N_13 
REMARK    5  A    between atoms: C_15  and  C_20 
REMARK    6  A    between atoms: C_20  and  C_19 
ROOT
ATOM      1  C   UNL d   1      45.896 -16.898  44.283  0.00  0.00     0.101 C 
ENDROOT
BRANCH   1   2
ATOM      2  N   UNL d   1      46.490 -17.392  44.050  0.00  0.00    -0.225 NA
BRANCH   2   3
ATOM      3  C   UNL d   1      46.406 -18.195  44.110  0.00  0.00     0.169 A 
ATOM      4  C   UNL d   1      46.451 -18.633  43.476  0.00  0.00     0.094 A 
ATOM      5  C   UNL d   1      46.370 -19.409  43.539  0.00  0.00     0.190 A 
ATOM      6  C   UNL d   1      46.621 -18.762  42.142  0.00  0.00     0.128 A 
ATOM      7  N   UNL d   1      46.246 -19.735  44.224  0.00  0.00    -0.203 NA
ATOM      8  N   UNL d   1      46.415 -19.851  42.905  0.00  0.00    -0.128 NA
ATOM      9  C   UNL d   1      46.200 -19.292  44.869  0.00  0.00     0.202 A 
ATOM     10  N   UNL d   1      46.281 -18.515  44.811  0.00  0.00    -0.205 NA
ATOM     11  N   UNL d   1      46.539 -19.533  42.212  0.00  0.00    -0.145 NA
ENDBRANCH   2   3
ENDBRANCH   1   2
BRANCH   1  12
ATOM     12  C   UNL d   1      46.041 -16.292  44.824  0.00  0.00     0.021 C 
BRANCH  12  13
ATOM     13  C   UNL d   1      45.849 -15.515  44.642  0.00  0.00     0.004 A 
ATOM     14  C   UNL d   1      45.131 -15.211  44.887  0.00  0.00     0.026 A 
ATOM     15  C   UNL d   1      44.931 -14.424  44.705  0.00  0.00     0.116 A 
ATOM     16  C   UNL d   1      45.456 -13.952  44.278  0.00  0.00     0.116 A 
ATOM     17  C   UNL d   1      46.184 -14.264  44.030  0.00  0.00     0.026 A 
ATOM     18  C   UNL d   1      46.381 -15.047  44.212  0.00  0.00     0.002 A 
BRANCH  15  19
ATOM     19  O   UNL d   1      44.200 -14.114  44.955  0.00  0.00    -0.326 OA
ATOM     20  C   UNL d   1      43.516 -14.589  44.931  0.00  0.00     0.181 C 
ENDBRANCH  15  19
BRANCH  16  21
ATOM     21  O   UNL d   1      45.260 -13.161  44.091  0.00  0.00    -0.326 OA
ATOM     22  C   UNL d   1      45.770 -12.718  43.605  0.00  0.00     0.181 C 
ENDBRANCH  16  21
ENDBRANCH  12  13
ENDBRANCH   1  12
TORSDOF 6
ENDMDL
