MODEL 1
REMARK VINA RESULT:     107.9      0.000      0.000
REMARK  5 active torsions:
REMARK  status: ('A' for Active; 'I' for Inactive)
REMARK    1  A    between atoms: C_2  and  C_1 
REMARK    2  A    between atoms: C_16  and  C_8 
REMARK    3  A    between atoms: N_15  and  C_13 
REMARK    4  A    between atoms: C_19  and  N_15 
REMARK    5  A    between atoms: C_20  and  N_15 
ROOT
ATOM      1  C   UNL d   1      61.768  45.957  50.122  0.00  0.00     0.106 A 
ATOM      2  C   UNL d   1      62.184  45.717  49.456  0.00  0.00     0.304 A 
ATOM      3  C   UNL d   1      61.614  45.407  50.727  0.00  0.00     0.011 A 
ATOM      4  O   UNL d   1      62.462  44.917  49.368  0.00  0.00    -0.273 OA
ATOM      5  C   UNL d   1      62.288  44.388  49.999  0.00  0.00     0.105 A 
ATOM      6  C   UNL d   1      61.872  44.629  50.666  0.00  0.00     0.023 A 
ATOM      7  C   UNL d   1      62.566  43.589  49.912  0.00  0.00     0.042 A 
ATOM      8  C   UNL d   1      62.393  43.055  50.545  0.00  0.00     0.066 A 
ATOM      9  O   UNL d   1      62.341  46.288  48.833  0.00  0.00    -0.259 OA
ATOM     10  C   UNL d   1      61.718  44.079  51.271  0.00  0.00     0.004 A 
ATOM     11  C   UNL d   1      61.977  43.296  51.212  0.00  0.00     0.018 A 
ENDROOT
BRANCH   1  12
ATOM     12  C   UNL d   1      61.509  46.745  50.180  0.00  0.00     0.210 A 
ATOM     13  O   UNL d   1      61.010  47.093  50.747  0.00  0.00    -0.268 OA
ATOM     14  C   UNL d   1      60.933  47.889  50.545  0.00  0.00     0.204 A 
ATOM     15  N   UNL d   1      61.373  48.036  49.868  0.00  0.00    -0.121 NA
ATOM     16  N   UNL d   1      61.734  47.333  49.633  0.00  0.00    -0.121 NA
BRANCH  14  17
ATOM     17  C   UNL d   1      60.509  48.492  50.907  0.00  0.00     0.043 A 
ATOM     18  C   UNL d   1      60.902  49.066  51.344  0.00  0.00     0.004 A 
ATOM     19  C   UNL d   1      60.473  49.667  51.703  0.00  0.00     0.000 A 
ATOM     20  C   UNL d   1      59.649  49.705  51.634  0.00  0.00     0.000 A 
ATOM     21  C   UNL d   1      59.260  49.133  51.199  0.00  0.00     0.000 A 
ATOM     22  C   UNL d   1      59.694  48.524  50.835  0.00  0.00     0.004 A 
ENDBRANCH  14  17
ENDBRANCH   1  12
BRANCH   8  23
ATOM     23  N   UNL d   1      62.661  42.220  50.498  0.00  0.00    -0.304 N 
BRANCH  23  24
ATOM     24  C   UNL d   1      62.547  41.733  51.173  0.00  0.00     0.080 C 
ATOM     25  C   UNL d   1      63.106  41.677  51.772  0.00  0.00     0.021 C 
ENDBRANCH  23  24
BRANCH  23  26
ATOM     26  C   UNL d   1      63.010  41.929  49.812  0.00  0.00     0.080 C 
ATOM     27  C   UNL d   1      62.743  41.209  49.483  0.00  0.00     0.021 C 
ENDBRANCH  23  26
ENDBRANCH   8  23
TORSDOF 5
ENDMDL
