MODEL 1
REMARK VINA RESULT:      71.7      0.000      0.000
REMARK  3 active torsions:
REMARK  status: ('A' for Active; 'I' for Inactive)
REMARK    1  A    between atoms: C_12  and  C_9 
REMARK    2  A    between atoms: O_26  and  C_19 
REMARK    3  A    between atoms: O_27  and  C_22 
ROOT
ATOM      1  C   UNL d   1      58.535  49.707  50.592  0.00  0.00     0.156 A 
ATOM      2  C   UNL d   1      58.233  49.707  51.359  0.00  0.00     0.091 A 
ATOM      3  N   UNL d   1      58.027  49.707  49.947  0.00  0.00    -0.241 N 
ATOM      4  N   UNL d   1      56.913  49.707  50.832  0.00  0.00    -0.224 N 
ATOM      5  C   UNL d   1      57.218  49.707  50.066  0.00  0.00     0.343 A 
ATOM      6  C   UNL d   1      57.417  49.707  51.476  0.00  0.00     0.271 A 
ATOM      7  C   UNL d   1      59.553  49.707  51.886  0.00  0.00     0.056 A 
ATOM      8  N   UNL d   1      59.348  49.707  50.474  0.00  0.00    -0.228 NA
ATOM      9  C   UNL d   1      58.738  49.707  52.003  0.00  0.00     0.012 A 
ATOM     10  C   UNL d   1      59.858  49.707  51.111  0.00  0.00     0.082 A 
ATOM     11  C   UNL d   1      60.061  49.708  52.531  0.00  0.00     0.193 A 
ATOM     12  C   UNL d   1      60.671  49.708  50.993  0.00  0.00    -0.003 A 
ATOM     13  C   UNL d   1      61.184  49.708  51.636  0.00  0.00     0.042 A 
ATOM     14  O   UNL d   1      56.707  49.706  49.420  0.00  0.00    -0.245 OA
ATOM     15  C   UNL d   1      60.877  49.708  52.404  0.00  0.00     0.019 A 
ATOM     16  O   UNL d   1      57.165  49.707  52.051  0.00  0.00    -0.266 OA
ATOM     17  O   UNL d   1      59.789  49.708  53.201  0.00  0.00    -0.287 OA
ATOM     18  C   UNL d   1      58.332  49.707  49.182  0.00  0.00     0.105 C 
ATOM     19  C   UNL d   1      56.096  49.706  50.948  0.00  0.00     0.107 C 
ATOM     20  C   UNL d   1      61.429  49.708  51.022  0.00  0.00     0.009 C 
ATOM     21  C   UNL d   1      61.690  49.708  52.286  0.00  0.00     0.009 C 
ENDROOT
BRANCH   9  22
ATOM     22  C   UNL d   1      58.414  49.707  52.813  0.00  0.00     0.003 A 
ATOM     23  C   UNL d   1      57.464  49.706  52.971  0.00  0.00     0.026 A 
ATOM     24  C   UNL d   1      57.190  49.706  53.802  0.00  0.00     0.116 A 
ATOM     25  C   UNL d   1      57.765  49.707  54.439  0.00  0.00     0.116 A 
ATOM     26  C   UNL d   1      58.618  49.708  54.264  0.00  0.00     0.026 A 
ATOM     27  C   UNL d   1      58.890  49.708  53.447  0.00  0.00     0.002 A 
BRANCH  24  28
ATOM     28  O   UNL d   1      56.346  49.705  53.967  0.00  0.00    -0.326 OA
ATOM     29  C   UNL d   1      56.040  49.321  54.680  0.00  0.00     0.181 C 
ENDBRANCH  24  28
BRANCH  25  30
ATOM     30  O   UNL d   1      57.488  49.707  55.245  0.00  0.00    -0.326 OA
ATOM     31  C   UNL d   1      57.998  49.434  55.894  0.00  0.00     0.181 C 
ENDBRANCH  25  30
ENDBRANCH   9  22
TORSDOF 3
ENDMDL
