MODEL 1
REMARK VINA RESULT:      15.0      0.000      0.000
REMARK  2 active torsions:
REMARK  status: ('A' for Active; 'I' for Inactive)
REMARK    1  A    between atoms: N_6  and  C_4 
REMARK    2  A    between atoms: C_9  and  N_6 
ROOT
ATOM      1  S   UNL d   1     -51.072  27.270  33.474  0.00  0.00     0.216 S 
ATOM      2  C   UNL d   1     -51.372  26.501  33.420  0.00  0.00     0.121 A 
ATOM      3  C   UNL d   1     -50.263  27.213  33.463  0.00  0.00     0.142 A 
ATOM      4  C   UNL d   1     -50.744  25.967  33.375  0.00  0.00     0.132 A 
ATOM      5  C   UNL d   1     -50.059  26.416  33.402  0.00  0.00     0.225 A 
ATOM      6  O   UNL d   1     -51.905  27.313  33.485  0.00  0.00    -0.217 OA
ATOM      7  O   UNL d   1     -50.986  28.082  33.533  0.00  0.00    -0.217 OA
ATOM      8  O   UNL d   1     -49.267  26.131  33.374  0.00  0.00    -0.284 OA
ENDROOT
BRANCH   4   9
ATOM      9  N   UNL d   1     -50.694  25.164  33.316  0.00  0.00    -0.242 NA
BRANCH   9  10
ATOM     10  C   UNL d   1     -51.358  24.688  33.352  0.00  0.00     0.082 A 
ATOM     11  C   UNL d   1     -51.271  23.887  33.345  0.00  0.00     0.020 A 
ATOM     12  C   UNL d   1     -51.959  23.399  33.382  0.00  0.00     0.013 A 
ATOM     13  C   UNL d   1     -52.698  23.743  33.425  0.00  0.00     0.058 A 
ATOM     14  C   UNL d   1     -52.797  24.554  33.433  0.00  0.00     0.013 A 
ATOM     15 CL   UNL d   1     -53.378  23.246  33.462  0.00  0.00    -0.082 Cl
ATOM     16  C   UNL d   1     -52.116  25.029  33.396  0.00  0.00     0.020 A 
ENDBRANCH   9  10
ENDBRANCH   4   9
TORSDOF 2
ENDMDL
