MODEL 1
REMARK VINA RESULT:      -5.3      0.000      0.000
REMARK  3 active torsions:
REMARK  status: ('A' for Active; 'I' for Inactive)
REMARK    1  A    between atoms: S_8  and  C_1 
REMARK    2  A    between atoms: C_7  and  C_12 
REMARK    3  A    between atoms: C_12  and  S_8 
ROOT
ATOM      1  C   UNL d   1     -41.348-122.588 -52.844  0.00  0.00     0.141 A 
ATOM      2  N   UNL d   1     -41.814-121.969 -53.098  0.00  0.00    -0.232 NA
ATOM      3  S   UNL d   1     -41.124-123.033 -53.483  0.00  0.00    -0.060 SA
ATOM      4  C   UNL d   1     -41.873-122.041 -53.905  0.00  0.00     0.088 A 
ATOM      5  C   UNL d   1     -41.446-122.699 -54.143  0.00  0.00     0.049 A 
ATOM      6  C   UNL d   1     -42.275-121.574 -54.464  0.00  0.00     0.020 A 
ATOM      7  C   UNL d   1     -41.417-122.895 -54.942  0.00  0.00     0.008 A 
ATOM      8  C   UNL d   1     -42.238-121.783 -55.272  0.00  0.00     0.002 A 
ATOM      9  C   UNL d   1     -41.810-122.441 -55.510  0.00  0.00     0.001 A 
ENDROOT
BRANCH   1  10
ATOM     10  S   UNL d   1     -41.139-122.736 -52.059  0.00  0.00    -0.060 SA
BRANCH  10  11
ATOM     11  C   UNL d   1     -41.705-122.768 -51.473  0.00  0.00     0.044 C 
BRANCH  11  12
ATOM     12  C   UNL d   1     -41.528-123.088 -50.720  0.00  0.00     0.036 A 
ATOM     13  S   UNL d   1     -41.784-122.692 -50.041  0.00  0.00    -0.086 SA
ATOM     14  C   UNL d   1     -41.532-123.132 -49.397  0.00  0.00     0.035 A 
ATOM     15  C   UNL d   1     -41.123-123.795 -49.678  0.00  0.00     0.007 A 
ATOM     16  C   UNL d   1     -41.123-123.762 -50.502  0.00  0.00     0.007 A 
ENDBRANCH  11  12
ENDBRANCH  10  11
ENDBRANCH   1  10
TORSDOF 3
ENDMDL
MODEL 2
REMARK VINA RESULT:      -5.1      0.815      4.133
REMARK  3 active torsions:
REMARK  status: ('A' for Active; 'I' for Inactive)
REMARK    1  A    between atoms: S_8  and  C_1 
REMARK    2  A    between atoms: C_7  and  C_12 
REMARK    3  A    between atoms: C_12  and  S_8 
ROOT
ATOM      1  C   UNL d   1     -41.352-122.692 -52.301  0.00  0.00     0.141 A 
ATOM      2  N   UNL d   1     -41.671-122.185 -51.747  0.00  0.00    -0.232 NA
ATOM      3  S   UNL d   1     -41.123-123.377 -51.936  0.00  0.00    -0.060 SA
ATOM      4  C   UNL d   1     -41.633-122.572 -51.034  0.00  0.00     0.088 A 
ATOM      5  C   UNL d   1     -41.294-123.309 -51.151  0.00  0.00     0.049 A 
ATOM      6  C   UNL d   1     -41.874-122.333 -50.274  0.00  0.00     0.020 A 
ATOM      7  C   UNL d   1     -41.194-123.814 -50.509  0.00  0.00     0.008 A 
ATOM      8  C   UNL d   1     -41.766-122.855 -49.631  0.00  0.00     0.002 A 
ATOM      9  C   UNL d   1     -41.427-123.593 -49.747  0.00  0.00     0.001 A 
ENDROOT
BRANCH   1  10
ATOM     10  S   UNL d   1     -41.276-122.530 -53.107  0.00  0.00    -0.060 SA
BRANCH  10  11
ATOM     11  C   UNL d   1     -41.932-122.382 -53.569  0.00  0.00     0.044 C 
BRANCH  11  12
ATOM     12  C   UNL d   1     -41.863-122.290 -54.399  0.00  0.00     0.036 A 
ATOM     13  S   UNL d   1     -42.491-121.960 -54.823  0.00  0.00    -0.086 SA
ATOM     14  C   UNL d   1     -42.264-121.943 -55.611  0.00  0.00     0.035 A 
ATOM     15  C   UNL d   1     -41.502-122.260 -55.671  0.00  0.00     0.007 A 
ATOM     16  C   UNL d   1     -41.257-122.475 -54.913  0.00  0.00     0.007 A 
ENDBRANCH  11  12
ENDBRANCH  10  11
ENDBRANCH   1  10
TORSDOF 3
ENDMDL
MODEL 3
REMARK VINA RESULT:      -4.9      0.889      4.240
REMARK  3 active torsions:
REMARK  status: ('A' for Active; 'I' for Inactive)
REMARK    1  A    between atoms: S_8  and  C_1 
REMARK    2  A    between atoms: C_7  and  C_12 
REMARK    3  A    between atoms: C_12  and  S_8 
ROOT
ATOM      1  C   UNL d   1     -41.631-122.521 -51.430  0.00  0.00     0.141 A 
ATOM      2  N   UNL d   1     -42.338-122.361 -51.054  0.00  0.00    -0.232 NA
ATOM      3  S   UNL d   1     -41.136-122.904 -50.917  0.00  0.00    -0.060 SA
ATOM      4  C   UNL d   1     -42.266-122.654 -50.299  0.00  0.00     0.088 A 
ATOM      5  C   UNL d   1     -41.523-122.990 -50.215  0.00  0.00     0.049 A 
ATOM      6  C   UNL d   1     -42.804-122.654 -49.664  0.00  0.00     0.020 A 
ATOM      7  C   UNL d   1     -41.312-123.328 -49.495  0.00  0.00     0.008 A 
ATOM      8  C   UNL d   1     -42.578-123.001 -48.939  0.00  0.00     0.002 A 
ATOM      9  C   UNL d   1     -41.834-123.337 -48.854  0.00  0.00     0.001 A 
ENDROOT
BRANCH   1  10
ATOM     10  S   UNL d   1     -41.453-122.322 -52.211  0.00  0.00    -0.060 SA
BRANCH  10  11
ATOM     11  C   UNL d   1     -41.501-122.877 -52.807  0.00  0.00     0.044 C 
BRANCH  11  12
ATOM     12  C   UNL d   1     -41.582-122.643 -53.607  0.00  0.00     0.036 A 
ATOM     13  S   UNL d   1     -41.308-123.145 -54.204  0.00  0.00    -0.086 SA
ATOM     14  C   UNL d   1     -41.462-122.773 -54.918  0.00  0.00     0.035 A 
ATOM     15  C   UNL d   1     -41.828-122.047 -54.762  0.00  0.00     0.007 A 
ATOM     16  C   UNL d   1     -41.900-121.972 -53.943  0.00  0.00     0.007 A 
ENDBRANCH  11  12
ENDBRANCH  10  11
ENDBRANCH   1  10
TORSDOF 3
ENDMDL
MODEL 4
REMARK VINA RESULT:      -4.5      1.298      4.568
REMARK  3 active torsions:
REMARK  status: ('A' for Active; 'I' for Inactive)
REMARK    1  A    between atoms: S_8  and  C_1 
REMARK    2  A    between atoms: C_7  and  C_12 
REMARK    3  A    between atoms: C_12  and  S_8 
ROOT
ATOM      1  C   UNL d   1     -41.620-122.861 -50.570  0.00  0.00     0.141 A 
ATOM      2  N   UNL d   1     -41.123-123.255 -50.057  0.00  0.00    -0.232 NA
ATOM      3  S   UNL d   1     -42.297-122.651 -50.180  0.00  0.00    -0.060 SA
ATOM      4  C   UNL d   1     -41.507-123.282 -49.342  0.00  0.00     0.088 A 
ATOM      5  C   UNL d   1     -42.234-122.909 -49.418  0.00  0.00     0.049 A 
ATOM      6  C   UNL d   1     -41.276-123.611 -48.614  0.00  0.00     0.020 A 
ATOM      7  C   UNL d   1     -42.734-122.862 -48.766  0.00  0.00     0.008 A 
ATOM      8  C   UNL d   1     -41.793-123.557 -47.960  0.00  0.00     0.002 A 
ATOM      9  C   UNL d   1     -42.519-123.184 -48.036  0.00  0.00     0.001 A 
ENDROOT
BRANCH   1  10
ATOM     10  S   UNL d   1     -41.456-122.704 -51.364  0.00  0.00    -0.060 SA
BRANCH  10  11
ATOM     11  C   UNL d   1     -41.280-123.308 -51.884  0.00  0.00     0.044 C 
BRANCH  11  12
ATOM     12  C   UNL d   1     -41.238-123.167 -52.709  0.00  0.00     0.036 A 
ATOM     13  S   UNL d   1     -41.246-123.810 -53.229  0.00  0.00    -0.086 SA
ATOM     14  C   UNL d   1     -41.200-123.503 -53.988  0.00  0.00     0.035 A 
ATOM     15  C   UNL d   1     -41.164-122.678 -53.935  0.00  0.00     0.007 A 
ATOM     16  C   UNL d   1     -41.188-122.474 -53.136  0.00  0.00     0.007 A 
ENDBRANCH  11  12
ENDBRANCH  10  11
ENDBRANCH   1  10
TORSDOF 3
ENDMDL
