MODEL 1
REMARK VINA RESULT:      -2.8      0.000      0.000
REMARK  1 active torsions:
REMARK  status: ('A' for Active; 'I' for Inactive)
REMARK    1  A    between atoms: C_10  and  C_4 
ROOT
ATOM      1  N   UNL d   1      59.785   0.413  29.287  0.00  0.00    -0.202 N 
ATOM      2  C   UNL d   1      59.421   0.328  30.022  0.00  0.00     0.166 A 
ATOM      3  N   UNL d   1      59.204   0.292  28.700  0.00  0.00    -0.163 NA
ATOM      4  C   UNL d   1      58.615   0.155  29.893  0.00  0.00     0.055 A 
ATOM      5  C   UNL d   1      60.593   0.588  29.243  0.00  0.00     0.143 A 
ATOM      6  C   UNL d   1      58.497   0.136  29.081  0.00  0.00     0.104 A 
ATOM      7  N   UNL d   1      59.860   0.418  30.711  0.00  0.00    -0.227 NA
ATOM      8  C   UNL d   1      61.034   0.678  29.937  0.00  0.00     0.050 A 
ATOM      9  C   UNL d   1      60.665   0.592  30.678  0.00  0.00     0.086 A 
ATOM     10 CL   UNL d   1      60.960   0.673  28.510  0.00  0.00    -0.061 Cl
ATOM     11  C   UNL d   1      57.777  -0.017  28.708  0.00  0.00     0.023 C 
ATOM     12  C   UNL d   1      61.103   0.682  31.367  0.00  0.00     0.021 C 
ENDROOT
BRANCH   4  13
ATOM     13  C   UNL d   1      58.045   0.027  30.475  0.00  0.00     0.004 A 
ATOM     14  C   UNL d   1      57.660   0.669  30.823  0.00  0.00     0.001 A 
ATOM     15  C   UNL d   1      57.093   0.538  31.403  0.00  0.00     0.011 A 
ATOM     16  C   UNL d   1      56.905  -0.229  31.640  0.00  0.00     0.058 A 
ATOM     17  C   UNL d   1      57.287  -0.869  31.295  0.00  0.00     0.011 A 
ATOM     18 CL   UNL d   1      56.339  -0.354  32.218  0.00  0.00    -0.082 Cl
ATOM     19  C   UNL d   1      57.859  -0.747  30.711  0.00  0.00     0.001 A 
ENDBRANCH   4  13
TORSDOF 1
ENDMDL
MODEL 2
REMARK VINA RESULT:      -1.9      1.131      2.198
REMARK  1 active torsions:
REMARK  status: ('A' for Active; 'I' for Inactive)
REMARK    1  A    between atoms: C_10  and  C_4 
ROOT
ATOM      1  N   UNL d   1      59.236   0.427  30.691  0.00  0.00    -0.202 N 
ATOM      2  C   UNL d   1      58.448   0.193  30.765  0.00  0.00     0.166 A 
ATOM      3  N   UNL d   1      59.510   0.641  31.449  0.00  0.00    -0.163 NA
ATOM      4  C   UNL d   1      58.234   0.261  31.568  0.00  0.00     0.055 A 
ATOM      5  C   UNL d   1      59.602   0.418  29.948  0.00  0.00     0.143 A 
ATOM      6  C   UNL d   1      58.892   0.535  31.975  0.00  0.00     0.104 A 
ATOM      7  N   UNL d   1      58.027  -0.050  30.102  0.00  0.00    -0.227 NA
ATOM      8  C   UNL d   1      59.177   0.173  29.282  0.00  0.00     0.050 A 
ATOM      9  C   UNL d   1      58.383  -0.063  29.359  0.00  0.00     0.086 A 
ATOM     10 CL   UNL d   1      60.388   0.651  29.871  0.00  0.00    -0.061 Cl
ATOM     11  C   UNL d   1      58.924   0.681  32.786  0.00  0.00     0.023 C 
ATOM     12  C   UNL d   1      57.962  -0.306  28.697  0.00  0.00     0.021 C 
ENDROOT
BRANCH   4  13
ATOM     13  C   UNL d   1      57.495   0.083  31.892  0.00  0.00     0.004 A 
ATOM     14  C   UNL d   1      56.936   0.681  31.993  0.00  0.00     0.001 A 
ATOM     15  C   UNL d   1      56.202   0.502  32.316  0.00  0.00     0.011 A 
ATOM     16  C   UNL d   1      56.019  -0.270  32.539  0.00  0.00     0.058 A 
ATOM     17  C   UNL d   1      56.575  -0.867  32.439  0.00  0.00     0.011 A 
ATOM     18 CL   UNL d   1      55.287  -0.445  32.859  0.00  0.00    -0.082 Cl
ATOM     19  C   UNL d   1      57.316  -0.696  32.115  0.00  0.00     0.001 A 
ENDBRANCH   4  13
TORSDOF 1
ENDMDL
MODEL 3
REMARK VINA RESULT:      -1.3      1.897      3.098
REMARK  1 active torsions:
REMARK  status: ('A' for Active; 'I' for Inactive)
REMARK    1  A    between atoms: C_10  and  C_4 
ROOT
ATOM      1  N   UNL d   1      58.578   0.470  31.889  0.00  0.00    -0.202 N 
ATOM      2  C   UNL d   1      57.780   0.260  31.869  0.00  0.00     0.166 A 
ATOM      3  N   UNL d   1      58.774   0.654  32.678  0.00  0.00    -0.163 NA
ATOM      4  C   UNL d   1      57.481   0.313  32.647  0.00  0.00     0.055 A 
ATOM      5  C   UNL d   1      59.022   0.469  31.190  0.00  0.00     0.143 A 
ATOM      6  C   UNL d   1      58.099   0.555  33.130  0.00  0.00     0.104 A 
ATOM      7  N   UNL d   1      57.427   0.049  31.158  0.00  0.00    -0.227 NA
ATOM      8  C   UNL d   1      58.665   0.256  30.474  0.00  0.00     0.050 A 
ATOM      9  C   UNL d   1      57.861   0.044  30.458  0.00  0.00     0.086 A 
ATOM     10 CL   UNL d   1      59.819   0.678  31.205  0.00  0.00    -0.061 Cl
ATOM     11  C   UNL d   1      58.047   0.678  33.944  0.00  0.00     0.023 C 
ATOM     12  C   UNL d   1      57.508  -0.167  29.747  0.00  0.00     0.021 C 
ENDROOT
BRANCH   4  13
ATOM     13  C   UNL d   1      56.707   0.151  32.883  0.00  0.00     0.004 A 
ATOM     14  C   UNL d   1      56.096   0.665  32.672  0.00  0.00     0.001 A 
ATOM     15  C   UNL d   1      55.327   0.502  32.908  0.00  0.00     0.011 A 
ATOM     16  C   UNL d   1      55.160  -0.171  33.355  0.00  0.00     0.058 A 
ATOM     17  C   UNL d   1      55.766  -0.683  33.566  0.00  0.00     0.011 A 
ATOM     18 CL   UNL d   1      54.392  -0.330  33.588  0.00  0.00    -0.082 Cl
ATOM     19  C   UNL d   1      56.543  -0.527  33.332  0.00  0.00     0.001 A 
ENDBRANCH   4  13
TORSDOF 1
ENDMDL
MODEL 4
REMARK VINA RESULT:      -1.1      2.115      4.014
REMARK  1 active torsions:
REMARK  status: ('A' for Active; 'I' for Inactive)
REMARK    1  A    between atoms: C_10  and  C_4 
ROOT
ATOM      1  N   UNL d   1      57.591   0.438  33.039  0.00  0.00    -0.202 N 
ATOM      2  C   UNL d   1      57.374   0.199  32.280  0.00  0.00     0.166 A 
ATOM      3  N   UNL d   1      58.397   0.649  33.019  0.00  0.00    -0.163 NA
ATOM      4  C   UNL d   1      58.045   0.262  31.789  0.00  0.00     0.055 A 
ATOM      5  C   UNL d   1      57.031   0.433  33.650  0.00  0.00     0.143 A 
ATOM      6  C   UNL d   1      58.663   0.538  32.253  0.00  0.00     0.104 A 
ATOM      7  N   UNL d   1      56.603  -0.044  32.129  0.00  0.00    -0.227 NA
ATOM      8  C   UNL d   1      56.256   0.188  33.497  0.00  0.00     0.050 A 
ATOM      9  C   UNL d   1      56.039  -0.052  32.730  0.00  0.00     0.086 A 
ATOM     10 CL   UNL d   1      57.244   0.671  34.409  0.00  0.00    -0.061 Cl
ATOM     11  C   UNL d   1      59.431   0.681  31.988  0.00  0.00     0.023 C 
ATOM     12  C   UNL d   1      55.269  -0.295  32.579  0.00  0.00     0.021 C 
ENDROOT
BRANCH   4  13
ATOM     13  C   UNL d   1      58.079   0.079  30.985  0.00  0.00     0.004 A 
ATOM     14  C   UNL d   1      58.198  -0.701  30.744  0.00  0.00     0.001 A 
ATOM     15  C   UNL d   1      58.231  -0.880  29.943  0.00  0.00     0.011 A 
ATOM     16  C   UNL d   1      58.146  -0.286  29.377  0.00  0.00     0.058 A 
ATOM     17  C   UNL d   1      58.027   0.492  29.615  0.00  0.00     0.011 A 
ATOM     18 CL   UNL d   1      58.180  -0.468  28.580  0.00  0.00    -0.082 Cl
ATOM     19  C   UNL d   1      57.993   0.680  30.419  0.00  0.00     0.001 A 
ENDBRANCH   4  13
TORSDOF 1
ENDMDL
MODEL 5
REMARK VINA RESULT:      -1.0      2.897      4.910
REMARK  1 active torsions:
REMARK  status: ('A' for Active; 'I' for Inactive)
REMARK    1  A    between atoms: C_10  and  C_4 
ROOT
ATOM      1  N   UNL d   1      56.442   0.447  34.034  0.00  0.00    -0.202 N 
ATOM      2  C   UNL d   1      56.358   0.209  33.249  0.00  0.00     0.166 A 
ATOM      3  N   UNL d   1      57.241   0.655  34.154  0.00  0.00    -0.163 NA
ATOM      4  C   UNL d   1      57.104   0.270  32.881  0.00  0.00     0.055 A 
ATOM      5  C   UNL d   1      55.785   0.445  34.539  0.00  0.00     0.143 A 
ATOM      6  C   UNL d   1      57.634   0.543  33.445  0.00  0.00     0.104 A 
ATOM      7  N   UNL d   1      55.624  -0.029  32.967  0.00  0.00    -0.227 NA
ATOM      8  C   UNL d   1      55.047   0.204  34.254  0.00  0.00     0.050 A 
ATOM      9  C   UNL d   1      54.965  -0.035  33.461  0.00  0.00     0.086 A 
ATOM     10 CL   UNL d   1      55.865   0.681  35.324  0.00  0.00    -0.061 Cl
ATOM     11  C   UNL d   1      58.437   0.682  33.317  0.00  0.00     0.023 C 
ATOM     12  C   UNL d   1      54.231  -0.274  33.180  0.00  0.00     0.021 C 
ENDROOT
BRANCH   4  13
ATOM     13  C   UNL d   1      57.275   0.087  32.094  0.00  0.00     0.004 A 
ATOM     14  C   UNL d   1      57.472  -0.686  31.883  0.00  0.00     0.001 A 
ATOM     15  C   UNL d   1      57.642  -0.865  31.100  0.00  0.00     0.011 A 
ATOM     16  C   UNL d   1      57.618  -0.277  30.522  0.00  0.00     0.058 A 
ATOM     17  C   UNL d   1      57.422   0.494  30.729  0.00  0.00     0.011 A 
ATOM     18 CL   UNL d   1      57.787  -0.459  29.742  0.00  0.00    -0.082 Cl
ATOM     19  C   UNL d   1      57.250   0.682  31.515  0.00  0.00     0.001 A 
ENDBRANCH   4  13
TORSDOF 1
ENDMDL
MODEL 6
REMARK VINA RESULT:      -0.7      3.007      4.859
REMARK  1 active torsions:
REMARK  status: ('A' for Active; 'I' for Inactive)
REMARK    1  A    between atoms: C_10  and  C_4 
ROOT
ATOM      1  N   UNL d   1      55.870   0.415  34.306  0.00  0.00    -0.202 N 
ATOM      2  C   UNL d   1      56.502   0.330  33.782  0.00  0.00     0.166 A 
ATOM      3  N   UNL d   1      55.165   0.294  33.877  0.00  0.00    -0.163 NA
ATOM      4  C   UNL d   1      56.188   0.157  33.028  0.00  0.00     0.055 A 
ATOM      5  C   UNL d   1      56.015   0.590  35.102  0.00  0.00     0.143 A 
ATOM      6  C   UNL d   1      55.371   0.138  33.101  0.00  0.00     0.104 A 
ATOM      7  N   UNL d   1      57.274   0.419  34.049  0.00  0.00    -0.227 NA
ATOM      8  C   UNL d   1      56.793   0.679  35.370  0.00  0.00     0.050 A 
ATOM      9  C   UNL d   1      57.428   0.593  34.839  0.00  0.00     0.086 A 
ATOM     10 CL   UNL d   1      55.387   0.676  35.629  0.00  0.00    -0.061 Cl
ATOM     11  C   UNL d   1      54.841  -0.015  32.487  0.00  0.00     0.023 C 
ATOM     12  C   UNL d   1      58.200   0.682  35.106  0.00  0.00     0.021 C 
ENDROOT
BRANCH   4  13
ATOM     13  C   UNL d   1      56.622   0.028  32.338  0.00  0.00     0.004 A 
ATOM     14  C   UNL d   1      56.812  -0.741  32.107  0.00  0.00     0.001 A 
ATOM     15  C   UNL d   1      57.244  -0.866  31.420  0.00  0.00     0.011 A 
ATOM     16  C   UNL d   1      57.490  -0.229  30.958  0.00  0.00     0.058 A 
ATOM     17  C   UNL d   1      57.303   0.538  31.186  0.00  0.00     0.011 A 
ATOM     18 CL   UNL d   1      57.921  -0.357  30.274  0.00  0.00    -0.082 Cl
ATOM     19  C   UNL d   1      56.868   0.673  31.876  0.00  0.00     0.001 A 
ENDBRANCH   4  13
TORSDOF 1
ENDMDL
