MODEL 1
REMARK VINA RESULT:       4.8      0.000      0.000
REMARK  0 active torsions:
REMARK  status: ('A' for Active; 'I' for Inactive)
ROOT
ATOM      1  N   UNL d   1      44.544 -14.326  43.868  0.00  0.00    -0.270 NA
ATOM      2  C   UNL d   1      45.927 -13.766  44.579  0.00  0.00    -0.001 A 
ATOM      3  C   UNL d   1      45.641 -14.517  44.767  0.00  0.00    -0.004 A 
ATOM      4  C   UNL d   1      44.831 -13.583  43.685  0.00  0.00     0.076 A 
ATOM      5  C   UNL d   1      44.949 -14.796  44.411  0.00  0.00     0.103 A 
ATOM      6  C   UNL d   1      45.523 -13.303  44.041  0.00  0.00     0.017 A 
ATOM      7  C   UNL d   1      46.620 -13.486  44.935  0.00  0.00    -0.000 C 
ATOM      8  C   UNL d   1      44.426 -13.111  43.142  0.00  0.00     0.019 A 
ATOM      9  C   UNL d   1      45.354 -15.267  44.955  0.00  0.00     0.029 C 
ATOM     10  C   UNL d   1      44.256 -15.076  44.056  0.00  0.00     0.029 C 
ATOM     11  C   UNL d   1      45.810 -12.556  43.855  0.00  0.00     0.002 A 
ATOM     12  C   UNL d   1      44.713 -12.365  42.957  0.00  0.00     0.002 A 
ATOM     13  C   UNL d   1      45.405 -12.081  43.310  0.00  0.00     0.000 A 
ENDROOT
TORSDOF 0
ENDMDL
MODEL 2
REMARK VINA RESULT:       4.9      0.499      2.212
REMARK  0 active torsions:
REMARK  status: ('A' for Active; 'I' for Inactive)
ROOT
ATOM      1  N   UNL d   1      44.666 -13.601  43.465  0.00  0.00    -0.270 NA
ATOM      2  C   UNL d   1      45.942 -13.234  44.449  0.00  0.00    -0.001 A 
ATOM      3  C   UNL d   1      45.625 -12.657  43.952  0.00  0.00    -0.004 A 
ATOM      4  C   UNL d   1      44.983 -14.169  43.959  0.00  0.00     0.076 A 
ATOM      5  C   UNL d   1      44.986 -12.841  43.460  0.00  0.00     0.103 A 
ATOM      6  C   UNL d   1      45.622 -13.986  44.451  0.00  0.00     0.017 A 
ATOM      7  C   UNL d   1      46.581 -13.051  44.942  0.00  0.00    -0.000 C 
ATOM      8  C   UNL d   1      44.663 -14.930  43.965  0.00  0.00     0.019 A 
ATOM      9  C   UNL d   1      45.308 -12.080  43.455  0.00  0.00     0.029 C 
ATOM     10  C   UNL d   1      44.348 -13.024  42.968  0.00  0.00     0.029 C 
ATOM     11  C   UNL d   1      45.939 -14.559  44.947  0.00  0.00     0.002 A 
ATOM     12  C   UNL d   1      44.980 -15.502  44.460  0.00  0.00     0.002 A 
ATOM     13  C   UNL d   1      45.619 -15.323  44.954  0.00  0.00     0.000 A 
ENDROOT
TORSDOF 0
ENDMDL
MODEL 3
REMARK VINA RESULT:       6.1      6.710      7.539
REMARK  0 active torsions:
REMARK  status: ('A' for Active; 'I' for Inactive)
ROOT
ATOM      1  N   UNL d   1      45.807 -15.502  36.497  0.00  0.00    -0.270 NA
ATOM      2  C   UNL d   1      45.030 -14.377  37.427  0.00  0.00    -0.001 A 
ATOM      3  C   UNL d   1      45.838 -14.304  37.279  0.00  0.00    -0.004 A 
ATOM      4  C   UNL d   1      45.007 -15.571  36.647  0.00  0.00     0.076 A 
ATOM      5  C   UNL d   1      46.227 -14.866  36.814  0.00  0.00     0.103 A 
ATOM      6  C   UNL d   1      44.618 -15.009  37.112  0.00  0.00     0.017 A 
ATOM      7  C   UNL d   1      44.641 -13.815  37.892  0.00  0.00    -0.000 C 
ATOM      8  C   UNL d   1      44.586 -16.207  36.330  0.00  0.00     0.019 A 
ATOM      9  C   UNL d   1      46.646 -14.230  37.131  0.00  0.00     0.029 C 
ATOM     10  C   UNL d   1      46.616 -15.428  36.349  0.00  0.00     0.029 C 
ATOM     11  C   UNL d   1      43.813 -15.081  37.261  0.00  0.00     0.002 A 
ATOM     12  C   UNL d   1      43.783 -16.279  36.479  0.00  0.00     0.002 A 
ATOM     13  C   UNL d   1      43.389 -15.719  36.944  0.00  0.00     0.000 A 
ENDROOT
TORSDOF 0
ENDMDL
