MODEL 1
REMARK VINA RESULT:      56.8      0.000      0.000
REMARK  3 active torsions:
REMARK  status: ('A' for Active; 'I' for Inactive)
REMARK    1  A    between atoms: C_9  and  C_1 
REMARK       I    between atoms: N_12  and  C_9 
REMARK    2  A    between atoms: C_16  and  N_12 
REMARK    3  A    between atoms: C_17  and  C_16 
ROOT
ATOM      1  C   UNL d   1     -50.467  27.143  33.578  0.00  0.00     0.108 A 
ATOM      2  C   UNL d   1     -51.339  26.147  33.499  0.00  0.00     0.044 A 
ATOM      3  C   UNL d   1     -50.550  25.811  33.505  0.00  0.00     0.112 A 
ATOM      4  S   UNL d   1     -50.008  26.438  33.555  0.00  0.00    -0.061 SA
ATOM      5  C   UNL d   1     -51.264  26.972  33.545  0.00  0.00     0.116 A 
ATOM      6  N   UNL d   1     -50.455  25.007  33.466  0.00  0.00    -0.239 NA
ATOM      7  C   UNL d   1     -51.874  24.841  33.414  0.00  0.00     0.057 A 
ATOM      8  C   UNL d   1     -51.983  25.658  33.454  0.00  0.00     0.008 A 
ATOM      9  C   UNL d   1     -51.119  24.519  33.420  0.00  0.00     0.085 A 
ATOM     10  C   UNL d   1     -52.540  24.348  33.368  0.00  0.00     0.197 A 
ATOM     11  N   UNL d   1     -51.886  27.546  33.557  0.00  0.00    -0.147 N 
ATOM     12  O   UNL d   1     -53.307  24.674  33.362  0.00  0.00    -0.286 OA
ATOM     13  C   UNL d   1     -51.012  23.697  33.380  0.00  0.00     0.019 A 
ATOM     14  C   UNL d   1     -52.449  23.537  33.328  0.00  0.00     0.042 A 
ATOM     15  C   UNL d   1     -51.659  23.201  33.334  0.00  0.00     0.005 A 
ENDROOT
BRANCH   1  16
ATOM     16  C   UNL d   1     -50.159  27.915  33.628  0.00  0.00     0.287 C 
ATOM     17  N   UNL d   1     -49.441  28.020  34.015  0.00  0.00    -0.206 NA
ATOM     18  O   UNL d   1     -50.548  28.561  33.307  0.00  0.00    -0.265 OA
BRANCH  17  19
ATOM     19  C   UNL d   1     -49.118  28.786  34.074  0.00  0.00     0.102 C 
BRANCH  19  20
ATOM     20  C   UNL d   1     -48.584  28.965  34.673  0.00  0.00     0.019 A 
ATOM     21  C   UNL d   1     -47.853  29.296  34.488  0.00  0.00     0.002 A 
ATOM     22  C   UNL d   1     -47.320  29.473  35.093  0.00  0.00     0.000 A 
ATOM     23  C   UNL d   1     -47.511  29.325  35.872  0.00  0.00     0.000 A 
ATOM     24  C   UNL d   1     -48.239  28.995  36.063  0.00  0.00     0.000 A 
ATOM     25  C   UNL d   1     -48.779  28.814  35.463  0.00  0.00     0.002 A 
ENDBRANCH  19  20
ENDBRANCH  17  19
ENDBRANCH   1  16
TORSDOF 3
ENDMDL
