MODEL 1
REMARK VINA RESULT:     111.6      0.000      0.000
REMARK  7 active torsions:
REMARK  status: ('A' for Active; 'I' for Inactive)
REMARK    1  A    between atoms: S_2  and  C_1 
REMARK    2  A    between atoms: C_9  and  S_2 
REMARK    3  A    between atoms: C_10  and  N_3 
REMARK    4  A    between atoms: C_8  and  C_10 
REMARK       I    between atoms: N_15  and  C_8 
REMARK    5  A    between atoms: C_20  and  N_15 
REMARK    6  A    between atoms: O_32  and  C_21 
REMARK    7  A    between atoms: C_33  and  C_27 
ROOT
ATOM      1  C   UNL d   1      59.840  48.951  50.551  0.00  0.00     0.144 A 
ATOM      2  N   UNL d   1      61.152  48.391  50.425  0.00  0.00    -0.299 N 
ATOM      3  C   UNL d   1      60.052  49.264  51.291  0.00  0.00     0.209 A 
ATOM      4  C   UNL d   1      60.391  48.514  50.118  0.00  0.00     0.095 A 
ATOM      5  C   UNL d   1      60.808  49.140  51.592  0.00  0.00     0.058 A 
ATOM      6  C   UNL d   1      61.359  48.703  51.159  0.00  0.00     0.068 A 
ATOM      7  C   UNL d   1      62.114  48.579  51.460  0.00  0.00     0.020 A 
ATOM      8  C   UNL d   1      61.014  49.452  52.325  0.00  0.00     0.029 A 
ATOM      9  O   UNL d   1      59.498  49.703  51.726  0.00  0.00    -0.286 OA
ATOM     10  C   UNL d   1      61.773  49.328  52.629  0.00  0.00     0.094 A 
ATOM     11  C   UNL d   1      62.324  48.892  52.196  0.00  0.00     0.026 A 
ENDROOT
BRANCH   2  12
ATOM     12  C   UNL d   1      61.703  47.955  49.993  0.00  0.00     0.144 C 
BRANCH  12  13
ATOM     13  C   UNL d   1      61.776  47.145  50.116  0.00  0.00     0.297 C 
ATOM     14  N   UNL d   1      61.426  46.612  49.592  0.00  0.00    -0.207 NA
ATOM     15  O   UNL d   1      62.201  46.866  50.765  0.00  0.00    -0.264 OA
BRANCH  14  16
ATOM     16  C   UNL d   1      61.501  45.802  49.717  0.00  0.00     0.085 A 
ATOM     17  C   UNL d   1      61.298  45.478  50.445  0.00  0.00     0.019 A 
ATOM     18  C   UNL d   1      61.372  44.668  50.570  0.00  0.00     0.002 A 
ATOM     19  C   UNL d   1      61.650  44.181  49.965  0.00  0.00     0.000 A 
ATOM     20  C   UNL d   1      61.854  44.508  49.233  0.00  0.00     0.002 A 
ATOM     21  C   UNL d   1      61.779  45.318  49.109  0.00  0.00     0.019 A 
BRANCH  19  22
ATOM     22  C   UNL d   1      61.728  43.366  50.082  0.00  0.00     0.000 C 
ATOM     23  C   UNL d   1      62.479  43.028  50.083  0.00  0.00     0.000 C 
ENDBRANCH  19  22
ENDBRANCH  14  16
ENDBRANCH  12  13
ENDBRANCH   2  12
BRANCH   1  24
ATOM     24  S   UNL d   1      59.081  49.075  50.248  0.00  0.00     0.214 S 
ATOM     25  O   UNL d   1      59.363  49.704  49.796  0.00  0.00    -0.217 OA
ATOM     26  O   UNL d   1      58.790  48.439  50.703  0.00  0.00    -0.217 OA
BRANCH  24  27
ATOM     27  C   UNL d   1      58.320  49.202  49.942  0.00  0.00     0.088 A 
ATOM     28  C   UNL d   1      57.655  49.112  50.424  0.00  0.00     0.014 A 
ATOM     29  C   UNL d   1      56.902  49.239  50.117  0.00  0.00     0.030 A 
ATOM     30  C   UNL d   1      56.802  49.457  49.327  0.00  0.00     0.140 A 
ATOM     31  C   UNL d   1      57.471  49.547  48.843  0.00  0.00     0.030 A 
ATOM     32  F   UNL d   1      56.045  49.584  49.020  0.00  0.00    -0.204 F 
ATOM     33  C   UNL d   1      58.224  49.420  49.152  0.00  0.00     0.014 A 
ENDBRANCH  24  27
ENDBRANCH   1  24
BRANCH  10  34
ATOM     34  O   UNL d   1      61.970  49.646  53.369  0.00  0.00    -0.328 OA
ATOM     35  C   UNL d   1      62.769  49.704  53.588  0.00  0.00     0.181 C 
ENDBRANCH  10  34
TORSDOF 7
ENDMDL
