MODEL 1
REMARK VINA RESULT:      39.2      0.000      0.000
REMARK  4 active torsions:
REMARK  status: ('A' for Active; 'I' for Inactive)
REMARK    1  A    between atoms: C_5  and  N_1 
REMARK    2  A    between atoms: C_7  and  C_3 
REMARK    3  A    between atoms: C_8  and  C_4 
REMARK    4  A    between atoms: N_10  and  C_5 
ROOT
ATOM      1  N   UNL d   1      14.601  13.041  -1.579  0.00  0.00    -0.203 N 
ATOM      2  N   UNL d   1      14.895  13.665  -1.122  0.00  0.00    -0.163 NA
ATOM      3  C   UNL d   1      14.747  14.368  -1.488  0.00  0.00     0.103 A 
ATOM      4  C   UNL d   1      14.251  13.363  -2.265  0.00  0.00     0.087 A 
ATOM      5  C   UNL d   1      14.338  14.185  -2.215  0.00  0.00     0.040 A 
ENDROOT
BRANCH   3   6
ATOM      6  C   UNL d   1      14.962  15.118  -1.192  0.00  0.00     0.019 A 
ATOM      7  C   UNL d   1      15.173  15.215  -0.402  0.00  0.00     0.002 A 
ATOM      8  C   UNL d   1      15.386  15.974  -0.124  0.00  0.00     0.000 A 
ATOM      9  C   UNL d   1      15.383  16.612  -0.634  0.00  0.00     0.000 A 
ATOM     10  C   UNL d   1      15.169  16.496  -1.422  0.00  0.00     0.000 A 
ATOM     11  C   UNL d   1      15.643  17.492  -0.256  0.00  0.00     0.000 C 
ATOM     12  C   UNL d   1      14.962  15.764  -1.698  0.00  0.00     0.002 A 
ENDBRANCH   3   6
BRANCH   1  13
ATOM     13  C   UNL d   1      14.643  12.220  -1.392  0.00  0.00     0.222 C 
ATOM     14  S   UNL d   1      15.326  11.780  -1.631  0.00  0.00    -0.037 SA
BRANCH  13  15
ATOM     15  N   UNL d   1      14.020  11.829  -0.974  0.00  0.00    -0.214 NA
ATOM     16  C   UNL d   1      13.986  11.873  -0.144  0.00  0.00     0.122 C 
ENDBRANCH  13  15
ENDBRANCH   1  13
BRANCH   4  17
ATOM     17  C   UNL d   1      13.882  12.970  -2.891  0.00  0.00     0.018 A 
ATOM     18  C   UNL d   1      13.537  12.233  -2.783  0.00  0.00     0.002 A 
ATOM     19  C   UNL d   1      13.170  11.843  -3.407  0.00  0.00     0.007 A 
ATOM     20  C   UNL d   1      13.148  12.195  -4.149  0.00  0.00     0.035 A 
ATOM     21  C   UNL d   1      13.482  12.915  -4.269  0.00  0.00     0.007 A 
ATOM     22 BR   UNL d   1      12.769  11.780  -4.773  0.00  0.00    -0.049 Br
ATOM     23  C   UNL d   1      13.852  13.309  -3.643  0.00  0.00     0.002 A 
ENDBRANCH   4  17
TORSDOF 4
ENDMDL
