MODEL 1
REMARK VINA RESULT:      38.6      0.000      0.000
REMARK  4 active torsions:
REMARK  status: ('A' for Active; 'I' for Inactive)
REMARK    1  A    between atoms: C_14  and  N_3 
REMARK    2  A    between atoms: C_9  and  C_5 
REMARK    3  A    between atoms: C_19  and  C_14 
REMARK    4  A    between atoms: C_23  and  C_19 
ROOT
ATOM      1  C   UNL d   1      14.098  13.454  -2.543  0.00  0.00     0.083 A 
ATOM      2  C   UNL d   1      14.044  14.098  -3.053  0.00  0.00     0.161 A 
ATOM      3  N   UNL d   1      14.631  14.525  -1.929  0.00  0.00    -0.272 N 
ATOM      4  C   UNL d   1      14.371  14.763  -2.680  0.00  0.00     0.288 A 
ATOM      5  C   UNL d   1      14.461  13.715  -1.846  0.00  0.00     0.072 A 
ATOM      6  C   UNL d   1      13.813  12.715  -2.771  0.00  0.00     0.201 A 
ATOM      7  O   UNL d   1      13.698  14.000  -3.806  0.00  0.00    -0.302 OA
ATOM      8  C   UNL d   1      13.472  12.622  -3.516  0.00  0.00     0.062 A 
ATOM      9  C   UNL d   1      13.416  13.263  -4.030  0.00  0.00     0.103 A 
ATOM     10  O   UNL d   1      14.430  15.518  -2.992  0.00  0.00    -0.264 OA
ATOM     11  O   UNL d   1      13.868  12.071  -2.260  0.00  0.00    -0.286 OA
ATOM     12  C   UNL d   1      13.186  11.879  -3.747  0.00  0.00     0.005 A 
ATOM     13  C   UNL d   1      13.069  13.158  -4.782  0.00  0.00     0.025 A 
ATOM     14  C   UNL d   1      12.845  11.780  -4.487  0.00  0.00     0.000 A 
ATOM     15  C   UNL d   1      12.787  12.421  -5.006  0.00  0.00     0.002 A 
ENDROOT
BRANCH   5  16
ATOM     16  C   UNL d   1      14.517  13.074  -1.332  0.00  0.00     0.019 A 
ATOM     17  C   UNL d   1      13.849  12.798  -0.928  0.00  0.00     0.031 A 
ATOM     18  C   UNL d   1      13.910  12.157  -0.416  0.00  0.00     0.140 A 
ATOM     19  F   UNL d   1      13.241  11.888  -0.018  0.00  0.00    -0.204 F 
ATOM     20  C   UNL d   1      14.643  11.782  -0.300  0.00  0.00     0.030 A 
ATOM     21  C   UNL d   1      15.311  12.057  -0.703  0.00  0.00     0.002 A 
ATOM     22  C   UNL d   1      15.246  12.705  -1.220  0.00  0.00     0.002 A 
ENDBRANCH   5  16
BRANCH   3  23
ATOM     23  C   UNL d   1      14.992  15.004  -1.366  0.00  0.00     0.086 C 
BRANCH  23  24
ATOM     24  C   UNL d   1      14.949  15.822  -1.437  0.00  0.00     0.065 C 
BRANCH  24  25
ATOM     25  C   UNL d   1      15.381  16.303  -0.926  0.00  0.00     0.236 C 
ATOM     26  O   UNL d   1      15.163  17.080  -0.817  0.00  0.00    -0.283 OA
ENDBRANCH  24  25
ENDBRANCH  23  24
ENDBRANCH   3  23
TORSDOF 4
ENDMDL
