MODEL 1
REMARK VINA RESULT:      13.5      0.000      0.000
REMARK  2 active torsions:
REMARK  status: ('A' for Active; 'I' for Inactive)
REMARK    1  A    between atoms: C_7  and  C_5 
REMARK    2  A    between atoms: C_8  and  C_7 
ROOT
ATOM      1  C   UNL d   1      58.653  49.628  50.017  0.00  0.00     0.046 C 
ENDROOT
BRANCH   1   2
ATOM      2  C   UNL d   1      57.856  49.650  50.173  0.00  0.00     0.205 A 
ATOM      3  N   UNL d   1      57.309  49.658  49.581  0.00  0.00    -0.120 NA
ATOM      4  N   UNL d   1      56.559  49.680  49.934  0.00  0.00    -0.109 NA
ATOM      5  C   UNL d   1      56.683  49.685  50.743  0.00  0.00     0.262 A 
ATOM      6  O   UNL d   1      57.444  49.667  50.894  0.00  0.00    -0.260 OA
ATOM      7  S   UNL d   1      56.077  49.706  51.331  0.00  0.00    -0.029 SA
ENDBRANCH   1   2
BRANCH   1   8
ATOM      8  C   UNL d   1      59.209  49.654  50.661  0.00  0.00     0.004 A 
ATOM      9  C   UNL d   1      58.969  49.675  51.451  0.00  0.00     0.000 A 
ATOM     10  C   UNL d   1      59.518  49.701  52.065  0.00  0.00     0.000 A 
ATOM     11  C   UNL d   1      60.320  49.704  51.869  0.00  0.00     0.000 A 
ATOM     12  C   UNL d   1      60.579  49.683  51.089  0.00  0.00     0.000 A 
ATOM     13  C   UNL d   1      59.988  49.657  50.466  0.00  0.00     0.000 A 
ENDBRANCH   1   8
TORSDOF 2
ENDMDL
