MODEL 1
REMARK VINA RESULT:      -9.8      0.000      0.000
REMARK  3 active torsions:
REMARK  status: ('A' for Active; 'I' for Inactive)
REMARK    1  A    between atoms: C_8  and  N_2 
REMARK    2  A    between atoms: C_12  and  C_8 
REMARK    3  A    between atoms: N_11  and  C_12 
ROOT
ATOM      1  C   UNL d   1      52.482  32.894  53.357  0.00  0.00     0.166 A 
ATOM      2  N   UNL d   1      52.096  33.624  53.299  0.00  0.00    -0.288 N 
ATOM      3  C   UNL d   1      53.175  32.998  53.795  0.00  0.00     0.117 A 
ATOM      4  N   UNL d   1      52.278  32.153  53.062  0.00  0.00    -0.225 NA
ATOM      5  N   UNL d   1      53.666  32.355  53.936  0.00  0.00    -0.241 NA
ATOM      6  C   UNL d   1      53.218  33.795  54.007  0.00  0.00     0.037 A 
ATOM      7  C   UNL d   1      52.560  34.166  53.702  0.00  0.00     0.067 A 
ATOM      8  C   UNL d   1      52.764  31.510  53.201  0.00  0.00     0.101 A 
ATOM      9  C   UNL d   1      53.457  31.612  53.637  0.00  0.00     0.099 A 
ATOM     10  C   UNL d   1      53.803  34.206  54.452  0.00  0.00     0.003 A 
ATOM     11  C   UNL d   1      52.459  34.986  53.834  0.00  0.00     0.018 A 
ATOM     12  C   UNL d   1      52.555  30.766  52.902  0.00  0.00     0.021 A 
ATOM     13  C   UNL d   1      53.871  30.985  53.737  0.00  0.00     0.021 A 
ATOM     14  C   UNL d   1      53.700  35.002  54.577  0.00  0.00     0.000 A 
ATOM     15  C   UNL d   1      53.036  35.319  54.256  0.00  0.00     0.002 A 
ATOM     16  C   UNL d   1      53.737  30.227  53.479  0.00  0.00     0.002 A 
ATOM     17  C   UNL d   1      53.040  30.129  53.041  0.00  0.00     0.002 A 
ENDROOT
BRANCH   2  18
ATOM     18  C   UNL d   1      51.487  34.124  53.054  0.00  0.00     0.101 C 
BRANCH  18  19
ATOM     19  C   UNL d   1      50.835  33.644  52.994  0.00  0.00     0.100 C 
BRANCH  19  20
ATOM     20  N   UNL d   1      50.261  34.112  52.631  0.00  0.00    -0.298 N 
ATOM     21  C   UNL d   1      50.183  34.106  51.809  0.00  0.00     0.107 A 
ATOM     22  C   UNL d   1      49.608  34.574  51.447  0.00  0.00     0.142 A 
ATOM     23  O   UNL d   1      49.109  35.052  51.905  0.00  0.00    -0.300 OA
ATOM     24  C   UNL d   1      49.187  35.058  52.726  0.00  0.00     0.142 A 
ATOM     25  C   UNL d   1      49.765  34.587  53.089  0.00  0.00     0.107 A 
ENDBRANCH  19  20
ENDBRANCH  18  19
ENDBRANCH   2  18
TORSDOF 3
ENDMDL
MODEL 2
REMARK VINA RESULT:      -9.0      0.923      2.808
REMARK  3 active torsions:
REMARK  status: ('A' for Active; 'I' for Inactive)
REMARK    1  A    between atoms: C_8  and  N_2 
REMARK    2  A    between atoms: C_12  and  C_8 
REMARK    3  A    between atoms: N_11  and  C_12 
ROOT
ATOM      1  C   UNL d   1      53.184  33.113  53.817  0.00  0.00     0.166 A 
ATOM      2  N   UNL d   1      52.549  32.915  53.326  0.00  0.00    -0.288 N 
ATOM      3  C   UNL d   1      53.627  32.432  53.963  0.00  0.00     0.117 A 
ATOM      4  N   UNL d   1      53.404  33.837  54.145  0.00  0.00    -0.225 NA
ATOM      5  N   UNL d   1      54.294  32.476  54.440  0.00  0.00    -0.241 NA
ATOM      6  C   UNL d   1      53.265  31.809  53.561  0.00  0.00     0.037 A 
ATOM      7  C   UNL d   1      52.612  32.110  53.177  0.00  0.00     0.067 A 
ATOM      8  C   UNL d   1      54.068  33.885  54.620  0.00  0.00     0.101 A 
ATOM      9  C   UNL d   1      54.512  33.204  54.767  0.00  0.00     0.099 A 
ATOM     10  C   UNL d   1      53.479  30.996  53.515  0.00  0.00     0.003 A 
ATOM     11  C   UNL d   1      52.135  31.596  52.721  0.00  0.00     0.018 A 
ATOM     12  C   UNL d   1      54.286  34.613  54.947  0.00  0.00     0.021 A 
ATOM     13  C   UNL d   1      55.117  33.304  55.213  0.00  0.00     0.021 A 
ATOM     14  C   UNL d   1      53.013  30.501  53.071  0.00  0.00     0.000 A 
ATOM     15  C   UNL d   1      52.383  30.848  52.714  0.00  0.00     0.002 A 
ATOM     16  C   UNL d   1      55.395  33.978  55.569  0.00  0.00     0.002 A 
ATOM     17  C   UNL d   1      54.946  34.658  55.419  0.00  0.00     0.002 A 
ENDROOT
BRANCH   2  18
ATOM     18  C   UNL d   1      51.868  33.079  52.890  0.00  0.00     0.101 C 
BRANCH  18  19
ATOM     19  C   UNL d   1      51.856  33.887  52.818  0.00  0.00     0.100 C 
BRANCH  19  20
ATOM     20  N   UNL d   1      51.110  34.062  52.513  0.00  0.00    -0.298 N 
ATOM     21  C   UNL d   1      50.478  34.202  53.024  0.00  0.00     0.107 A 
ATOM     22  C   UNL d   1      49.732  34.377  52.717  0.00  0.00     0.142 A 
ATOM     23  O   UNL d   1      49.615  34.411  51.897  0.00  0.00    -0.300 OA
ATOM     24  C   UNL d   1      50.248  34.271  51.387  0.00  0.00     0.142 A 
ATOM     25  C   UNL d   1      50.997  34.095  51.696  0.00  0.00     0.107 A 
ENDBRANCH  19  20
ENDBRANCH  18  19
ENDBRANCH   2  18
TORSDOF 3
ENDMDL
MODEL 3
REMARK VINA RESULT:      -8.9      1.836      4.071
REMARK  3 active torsions:
REMARK  status: ('A' for Active; 'I' for Inactive)
REMARK    1  A    between atoms: C_8  and  N_2 
REMARK    2  A    between atoms: C_12  and  C_8 
REMARK    3  A    between atoms: N_11  and  C_12 
ROOT
ATOM      1  C   UNL d   1      52.536  32.982  53.656  0.00  0.00     0.166 A 
ATOM      2  N   UNL d   1      53.104  32.436  53.909  0.00  0.00    -0.288 N 
ATOM      3  C   UNL d   1      52.767  33.736  53.903  0.00  0.00     0.117 A 
ATOM      4  N   UNL d   1      51.839  32.874  53.231  0.00  0.00    -0.225 NA
ATOM      5  N   UNL d   1      52.297  34.384  53.722  0.00  0.00    -0.241 NA
ATOM      6  C   UNL d   1      53.481  33.656  54.310  0.00  0.00     0.037 A 
ATOM      7  C   UNL d   1      53.677  32.865  54.310  0.00  0.00     0.067 A 
ATOM      8  C   UNL d   1      51.367  33.517  53.049  0.00  0.00     0.101 A 
ATOM      9  C   UNL d   1      51.597  34.271  53.295  0.00  0.00     0.099 A 
ATOM     10  C   UNL d   1      53.962  34.240  54.679  0.00  0.00     0.003 A 
ATOM     11  C   UNL d   1      54.382  32.621  54.688  0.00  0.00     0.018 A 
ATOM     12  C   UNL d   1      50.667  33.404  52.621  0.00  0.00     0.021 A 
ATOM     13  C   UNL d   1      51.125  34.831  53.100  0.00  0.00     0.021 A 
ATOM     14  C   UNL d   1      54.645  33.998  55.045  0.00  0.00     0.000 A 
ATOM     15  C   UNL d   1      54.793  33.209  55.015  0.00  0.00     0.002 A 
ATOM     16  C   UNL d   1      50.428  34.803  52.687  0.00  0.00     0.002 A 
ATOM     17  C   UNL d   1      50.201  34.045  52.442  0.00  0.00     0.002 A 
ENDROOT
BRANCH   2  18
ATOM     18  C   UNL d   1      53.424  31.680  53.986  0.00  0.00     0.101 C 
BRANCH  18  19
ATOM     19  C   UNL d   1      52.914  31.195  53.581  0.00  0.00     0.100 C 
BRANCH  19  20
ATOM     20  N   UNL d   1      53.149  30.429  53.777  0.00  0.00    -0.298 N 
ATOM     21  C   UNL d   1      53.680  30.024  53.294  0.00  0.00     0.107 A 
ATOM     22  C   UNL d   1      53.915  29.258  53.491  0.00  0.00     0.142 A 
ATOM     23  O   UNL d   1      53.618  28.893  54.174  0.00  0.00    -0.300 OA
ATOM     24  C   UNL d   1      53.086  29.299  54.657  0.00  0.00     0.142 A 
ATOM     25  C   UNL d   1      52.852  30.068  54.458  0.00  0.00     0.107 A 
ENDBRANCH  19  20
ENDBRANCH  18  19
ENDBRANCH   2  18
TORSDOF 3
ENDMDL
MODEL 4
REMARK VINA RESULT:      -8.8      0.693      1.050
REMARK  3 active torsions:
REMARK  status: ('A' for Active; 'I' for Inactive)
REMARK    1  A    between atoms: C_8  and  N_2 
REMARK    2  A    between atoms: C_12  and  C_8 
REMARK    3  A    between atoms: N_11  and  C_12 
ROOT
ATOM      1  C   UNL d   1      52.857  32.283  53.589  0.00  0.00     0.166 A 
ATOM      2  N   UNL d   1      52.610  33.072  53.569  0.00  0.00    -0.288 N 
ATOM      3  C   UNL d   1      53.534  32.231  54.059  0.00  0.00     0.117 A 
ATOM      4  N   UNL d   1      52.539  31.612  53.233  0.00  0.00    -0.225 NA
ATOM      5  N   UNL d   1      53.895  31.502  54.171  0.00  0.00    -0.241 NA
ATOM      6  C   UNL d   1      53.708  32.991  54.330  0.00  0.00     0.037 A 
ATOM      7  C   UNL d   1      53.142  33.495  54.029  0.00  0.00     0.067 A 
ATOM      8  C   UNL d   1      52.895  30.884  53.342  0.00  0.00     0.101 A 
ATOM      9  C   UNL d   1      53.573  30.830  53.811  0.00  0.00     0.099 A 
ATOM     10  C   UNL d   1      54.333  33.260  54.826  0.00  0.00     0.003 A 
ATOM     11  C   UNL d   1      53.182  34.309  54.217  0.00  0.00     0.018 A 
ATOM     12  C   UNL d   1      52.573  30.211  52.983  0.00  0.00     0.021 A 
ATOM     13  C   UNL d   1      53.863  30.133  53.880  0.00  0.00     0.021 A 
ATOM     14  C   UNL d   1      54.367  34.051  55.005  0.00  0.00     0.000 A 
ATOM     15  C   UNL d   1      53.787  34.504  54.683  0.00  0.00     0.002 A 
ATOM     16  C   UNL d   1      53.609  29.431  53.563  0.00  0.00     0.002 A 
ATOM     17  C   UNL d   1      52.929  29.489  53.093  0.00  0.00     0.002 A 
ENDROOT
BRANCH   2  18
ATOM     18  C   UNL d   1      52.113  33.689  53.339  0.00  0.00     0.101 C 
BRANCH  18  19
ATOM     19  C   UNL d   1      51.825  33.465  52.614  0.00  0.00     0.100 C 
BRANCH  19  20
ATOM     20  N   UNL d   1      51.141  33.914  52.509  0.00  0.00    -0.298 N 
ATOM     21  C   UNL d   1      50.667  34.100  53.158  0.00  0.00     0.107 A 
ATOM     22  C   UNL d   1      49.982  34.549  53.052  0.00  0.00     0.142 A 
ATOM     23  O   UNL d   1      49.770  34.815  52.296  0.00  0.00    -0.300 OA
ATOM     24  C   UNL d   1      50.245  34.628  51.648  0.00  0.00     0.142 A 
ATOM     25  C   UNL d   1      50.932  34.177  51.755  0.00  0.00     0.107 A 
ENDBRANCH  19  20
ENDBRANCH  18  19
ENDBRANCH   2  18
TORSDOF 3
ENDMDL
MODEL 5
REMARK VINA RESULT:      -7.6      1.836      3.955
REMARK  3 active torsions:
REMARK  status: ('A' for Active; 'I' for Inactive)
REMARK    1  A    between atoms: C_8  and  N_2 
REMARK    2  A    between atoms: C_12  and  C_8 
REMARK    3  A    between atoms: N_11  and  C_12 
ROOT
ATOM      1  C   UNL d   1      53.199  32.991  53.921  0.00  0.00     0.166 A 
ATOM      2  N   UNL d   1      52.722  32.453  53.513  0.00  0.00    -0.288 N 
ATOM      3  C   UNL d   1      52.833  33.731  53.907  0.00  0.00     0.117 A 
ATOM      4  N   UNL d   1      53.923  32.887  54.301  0.00  0.00    -0.225 NA
ATOM      5  N   UNL d   1      53.194  34.370  54.276  0.00  0.00    -0.241 NA
ATOM      6  C   UNL d   1      52.126  33.651  53.489  0.00  0.00     0.037 A 
ATOM      7  C   UNL d   1      52.066  32.873  53.253  0.00  0.00     0.067 A 
ATOM      8  C   UNL d   1      54.286  33.520  54.669  0.00  0.00     0.101 A 
ATOM      9  C   UNL d   1      53.921  34.261  54.656  0.00  0.00     0.099 A 
ATOM     10  C   UNL d   1      51.536  34.224  53.305  0.00  0.00     0.003 A 
ATOM     11  C   UNL d   1      51.397  32.631  52.814  0.00  0.00     0.018 A 
ATOM     12  C   UNL d   1      55.013  33.412  55.050  0.00  0.00     0.021 A 
ATOM     13  C   UNL d   1      54.299  34.813  55.012  0.00  0.00     0.021 A 
ATOM     14  C   UNL d   1      50.889  33.984  52.879  0.00  0.00     0.000 A 
ATOM     15  C   UNL d   1      50.879  33.208  52.672  0.00  0.00     0.002 A 
ATOM     16  C   UNL d   1      55.008  34.788  55.404  0.00  0.00     0.002 A 
ATOM     17  C   UNL d   1      55.371  34.043  55.415  0.00  0.00     0.002 A 
ENDROOT
BRANCH   2  18
ATOM     18  C   UNL d   1      52.531  31.708  53.213  0.00  0.00     0.101 C 
BRANCH  18  19
ATOM     19  C   UNL d   1      53.241  31.320  53.154  0.00  0.00     0.100 C 
BRANCH  19  20
ATOM     20  N   UNL d   1      53.052  30.520  53.230  0.00  0.00    -0.298 N 
ATOM     21  C   UNL d   1      52.695  30.119  52.603  0.00  0.00     0.107 A 
ATOM     22  C   UNL d   1      52.506  29.320  52.680  0.00  0.00     0.142 A 
ATOM     23  O   UNL d   1      52.673  28.918  53.385  0.00  0.00    -0.300 OA
ATOM     24  C   UNL d   1      53.029  29.319  54.012  0.00  0.00     0.142 A 
ATOM     25  C   UNL d   1      53.219  30.122  53.933  0.00  0.00     0.107 A 
ENDBRANCH  19  20
ENDBRANCH  18  19
ENDBRANCH   2  18
TORSDOF 3
ENDMDL
MODEL 6
REMARK VINA RESULT:      -7.3      1.835      4.424
REMARK  3 active torsions:
REMARK  status: ('A' for Active; 'I' for Inactive)
REMARK    1  A    between atoms: C_8  and  N_2 
REMARK    2  A    between atoms: C_12  and  C_8 
REMARK    3  A    between atoms: N_11  and  C_12 
ROOT
ATOM      1  C   UNL d   1      52.308  33.076  53.399  0.00  0.00     0.166 A 
ATOM      2  N   UNL d   1      53.030  32.809  53.703  0.00  0.00    -0.288 N 
ATOM      3  C   UNL d   1      51.934  32.445  53.019  0.00  0.00     0.117 A 
ATOM      4  N   UNL d   1      51.955  33.819  53.427  0.00  0.00    -0.225 NA
ATOM      5  N   UNL d   1      51.202  32.561  52.665  0.00  0.00    -0.241 NA
ATOM      6  C   UNL d   1      52.426  31.785  53.088  0.00  0.00     0.037 A 
ATOM      7  C   UNL d   1      53.088  32.015  53.504  0.00  0.00     0.067 A 
ATOM      8  C   UNL d   1      51.226  33.939  53.076  0.00  0.00     0.101 A 
ATOM      9  C   UNL d   1      50.850  33.310  52.696  0.00  0.00     0.099 A 
ATOM     10  C   UNL d   1      52.321  30.999  52.805  0.00  0.00     0.003 A 
ATOM     11  C   UNL d   1      53.687  31.452  53.658  0.00  0.00     0.018 A 
ATOM     12  C   UNL d   1      50.874  34.688  53.107  0.00  0.00     0.021 A 
ATOM     13  C   UNL d   1      50.178  33.474  52.388  0.00  0.00     0.021 A 
ATOM     14  C   UNL d   1      52.906  30.457  52.957  0.00  0.00     0.000 A 
ATOM     15  C   UNL d   1      53.536  30.734  53.370  0.00  0.00     0.002 A 
ATOM     16  C   UNL d   1      49.770  34.175  52.375  0.00  0.00     0.002 A 
ATOM     17  C   UNL d   1      50.150  34.804  52.758  0.00  0.00     0.002 A 
ENDROOT
BRANCH   2  18
ATOM     18  C   UNL d   1      53.744  32.899  54.106  0.00  0.00     0.101 C 
BRANCH  18  19
ATOM     19  C   UNL d   1      53.754  33.675  54.342  0.00  0.00     0.100 C 
BRANCH  19  20
ATOM     20  N   UNL d   1      54.452  33.756  54.775  0.00  0.00    -0.298 N 
ATOM     21  C   UNL d   1      54.446  33.642  55.592  0.00  0.00     0.107 A 
ATOM     22  C   UNL d   1      55.145  33.723  56.024  0.00  0.00     0.142 A 
ATOM     23  O   UNL d   1      55.853  33.919  55.639  0.00  0.00    -0.300 OA
ATOM     24  C   UNL d   1      55.858  34.032  54.822  0.00  0.00     0.142 A 
ATOM     25  C   UNL d   1      55.155  33.951  54.389  0.00  0.00     0.107 A 
ENDBRANCH  19  20
ENDBRANCH  18  19
ENDBRANCH   2  18
TORSDOF 3
ENDMDL
MODEL 7
REMARK VINA RESULT:      -7.2      2.063      3.659
REMARK  3 active torsions:
REMARK  status: ('A' for Active; 'I' for Inactive)
REMARK    1  A    between atoms: C_8  and  N_2 
REMARK    2  A    between atoms: C_12  and  C_8 
REMARK    3  A    between atoms: N_11  and  C_12 
ROOT
ATOM      1  C   UNL d   1      53.145  31.926  53.502  0.00  0.00     0.166 A 
ATOM      2  N   UNL d   1      53.382  32.707  53.635  0.00  0.00    -0.288 N 
ATOM      3  C   UNL d   1      52.440  31.934  53.071  0.00  0.00     0.117 A 
ATOM      4  N   UNL d   1      53.493  31.213  53.724  0.00  0.00    -0.225 NA
ATOM      5  N   UNL d   1      52.083  31.225  52.863  0.00  0.00    -0.241 NA
ATOM      6  C   UNL d   1      52.240  32.724  52.938  0.00  0.00     0.037 A 
ATOM      7  C   UNL d   1      52.816  33.186  53.283  0.00  0.00     0.067 A 
ATOM      8  C   UNL d   1      53.140  30.504  53.519  0.00  0.00     0.101 A 
ATOM      9  C   UNL d   1      52.436  30.511  53.089  0.00  0.00     0.099 A 
ATOM     10  C   UNL d   1      51.581  33.055  52.531  0.00  0.00     0.003 A 
ATOM     11  C   UNL d   1      52.754  34.018  53.233  0.00  0.00     0.018 A 
ATOM     12  C   UNL d   1      53.494  29.790  53.745  0.00  0.00     0.021 A 
ATOM     13  C   UNL d   1      52.151  29.829  52.925  0.00  0.00     0.021 A 
ATOM     14  C   UNL d   1      51.526  33.864  52.486  0.00  0.00     0.000 A 
ATOM     15  C   UNL d   1      52.118  34.272  52.841  0.00  0.00     0.002 A 
ATOM     16  C   UNL d   1      52.434  29.090  53.108  0.00  0.00     0.002 A 
ATOM     17  C   UNL d   1      53.141  29.088  53.540  0.00  0.00     0.002 A 
ENDROOT
BRANCH   2  18
ATOM     18  C   UNL d   1      53.884  33.290  53.933  0.00  0.00     0.101 C 
BRANCH  18  19
ATOM     19  C   UNL d   1      54.562  32.895  54.139  0.00  0.00     0.100 C 
BRANCH  19  20
ATOM     20  N   UNL d   1      54.947  33.398  54.668  0.00  0.00    -0.298 N 
ATOM     21  C   UNL d   1      55.552  33.892  54.403  0.00  0.00     0.107 A 
ATOM     22  C   UNL d   1      55.936  34.394  54.933  0.00  0.00     0.142 A 
ATOM     23  O   UNL d   1      55.717  34.404  55.732  0.00  0.00    -0.300 OA
ATOM     24  C   UNL d   1      55.112  33.909  55.997  0.00  0.00     0.142 A 
ATOM     25  C   UNL d   1      54.727  33.405  55.464  0.00  0.00     0.107 A 
ENDBRANCH  19  20
ENDBRANCH  18  19
ENDBRANCH   2  18
TORSDOF 3
ENDMDL
