MODEL 1
REMARK VINA RESULT:      -9.5      0.000      0.000
REMARK  5 active torsions:
REMARK  status: ('A' for Active; 'I' for Inactive)
REMARK    1  A    between atoms: N_10  and  C_4 
REMARK    2  A    between atoms: C_11  and  N_5 
REMARK    3  A    between atoms: C_14  and  N_10 
REMARK    4  A    between atoms: C_15  and  C_11 
REMARK    5  A    between atoms: C_18  and  C_14 
ROOT
ATOM      1  C   UNL d   1      53.407  33.705  54.243  0.00  0.00     0.191 A 
ATOM      2  C   UNL d   1      53.826  33.103  53.967  0.00  0.00     0.174 A 
ATOM      3  N   UNL d   1      52.664  33.843  53.993  0.00  0.00    -0.042 NA
ATOM      4  C   UNL d   1      52.351  33.362  53.459  0.00  0.00     0.722 A 
ATOM      5  N   UNL d   1      52.775  32.737  53.167  0.00  0.00    -0.132 N 
ATOM      6  N   UNL d   1      53.725  34.200  54.791  0.00  0.00    -0.239 N 
ATOM      7  C   UNL d   1      54.461  34.085  55.055  0.00  0.00     0.358 A 
ATOM      8  N   UNL d   1      54.888  33.473  54.774  0.00  0.00    -0.152 NA
ATOM      9  C   UNL d   1      54.574  32.983  54.232  0.00  0.00     0.303 A 
ATOM     10  O   UNL d   1      54.780  34.579  55.603  0.00  0.00    -0.244 OA
ATOM     11  O   UNL d   1      55.011  32.356  53.944  0.00  0.00    -0.263 OA
ATOM     12  C   UNL d   1      53.294  34.818  55.075  0.00  0.00     0.105 C 
ENDROOT
BRANCH   4  13
ATOM     13  N   UNL d   1      51.611  33.484  53.199  0.00  0.00    -0.137 N 
ATOM     14  C   UNL d   1      50.867  33.184  53.394  0.00  0.00     0.118 C 
BRANCH  13  15
ATOM     15  C   UNL d   1      51.471  34.021  52.593  0.00  0.00     0.098 C 
BRANCH  15  16
ATOM     16  C   UNL d   1      50.696  34.262  52.422  0.00  0.00     0.018 A 
ATOM     17  C   UNL d   1      50.370  34.093  51.677  0.00  0.00     0.002 A 
ATOM     18  C   UNL d   1      49.596  34.333  51.507  0.00  0.00     0.000 A 
ATOM     19  C   UNL d   1      49.154  34.739  52.078  0.00  0.00     0.000 A 
ATOM     20  C   UNL d   1      49.488  34.905  52.821  0.00  0.00     0.000 A 
ATOM     21  C   UNL d   1      50.262  34.665  52.992  0.00  0.00     0.002 A 
ENDBRANCH  15  16
ENDBRANCH  13  15
ENDBRANCH   4  13
BRANCH   5  22
ATOM     22  C   UNL d   1      52.838  32.079  52.674  0.00  0.00     0.098 C 
BRANCH  22  23
ATOM     23  C   UNL d   1      52.708  31.321  52.974  0.00  0.00     0.018 A 
ATOM     24  C   UNL d   1      53.341  30.806  53.035  0.00  0.00     0.002 A 
ATOM     25  C   UNL d   1      53.211  30.048  53.335  0.00  0.00     0.000 A 
ATOM     26  C   UNL d   1      53.685  29.389  53.480  0.00  0.00     0.000 C 
ATOM     27  C   UNL d   1      52.449  29.815  53.570  0.00  0.00     0.000 A 
ATOM     28  C   UNL d   1      51.823  30.351  53.500  0.00  0.00     0.000 A 
ATOM     29  C   UNL d   1      51.952  31.102  53.202  0.00  0.00     0.002 A 
ENDBRANCH  22  23
ENDBRANCH   5  22
TORSDOF 5
ENDMDL
MODEL 2
REMARK VINA RESULT:      -9.2      0.810      3.859
REMARK  5 active torsions:
REMARK  status: ('A' for Active; 'I' for Inactive)
REMARK    1  A    between atoms: N_10  and  C_4 
REMARK    2  A    between atoms: C_11  and  N_5 
REMARK    3  A    between atoms: C_14  and  N_10 
REMARK    4  A    between atoms: C_15  and  C_11 
REMARK    5  A    between atoms: C_18  and  C_14 
ROOT
ATOM      1  C   UNL d   1      53.853  33.400  54.356  0.00  0.00     0.191 A 
ATOM      2  C   UNL d   1      53.276  33.914  54.493  0.00  0.00     0.174 A 
ATOM      3  N   UNL d   1      53.719  32.721  53.964  0.00  0.00    -0.042 NA
ATOM      4  C   UNL d   1      52.993  32.568  53.712  0.00  0.00     0.722 A 
ATOM      5  N   UNL d   1      52.390  33.091  53.847  0.00  0.00    -0.132 N 
ATOM      6  N   UNL d   1      54.598  33.555  54.614  0.00  0.00    -0.239 N 
ATOM      7  C   UNL d   1      54.757  34.223  55.006  0.00  0.00     0.358 A 
ATOM      8  N   UNL d   1      54.171  34.745  55.144  0.00  0.00    -0.152 NA
ATOM      9  C   UNL d   1      53.433  34.593  54.890  0.00  0.00     0.303 A 
ATOM     10  O   UNL d   1      55.502  34.377  55.264  0.00  0.00    -0.244 OA
ATOM     11  O   UNL d   1      52.832  35.128  55.032  0.00  0.00    -0.263 OA
ATOM     12  C   UNL d   1      55.191  33.027  54.474  0.00  0.00     0.105 C 
ENDROOT
BRANCH   4  13
ATOM     13  N   UNL d   1      52.842  31.895  53.319  0.00  0.00    -0.137 N 
ATOM     14  C   UNL d   1      52.999  31.616  52.559  0.00  0.00     0.118 C 
BRANCH  13  15
ATOM     15  C   UNL d   1      52.436  31.283  53.690  0.00  0.00     0.098 C 
BRANCH  15  16
ATOM     16  C   UNL d   1      52.728  30.509  53.652  0.00  0.00     0.018 A 
ATOM     17  C   UNL d   1      53.049  30.159  54.333  0.00  0.00     0.002 A 
ATOM     18  C   UNL d   1      53.341  29.384  54.295  0.00  0.00     0.000 A 
ATOM     19  C   UNL d   1      53.310  28.966  53.581  0.00  0.00     0.000 A 
ATOM     20  C   UNL d   1      52.988  29.323  52.903  0.00  0.00     0.000 A 
ATOM     21  C   UNL d   1      52.696  30.098  52.941  0.00  0.00     0.002 A 
ENDBRANCH  15  16
ENDBRANCH  13  15
ENDBRANCH   4  13
BRANCH   5  22
ATOM     22  C   UNL d   1      51.598  33.308  53.775  0.00  0.00     0.098 C 
BRANCH  22  23
ATOM     23  C   UNL d   1      51.335  33.706  53.101  0.00  0.00     0.018 A 
ATOM     24  C   UNL d   1      50.535  33.861  53.019  0.00  0.00     0.002 A 
ATOM     25  C   UNL d   1      50.273  34.258  52.345  0.00  0.00     0.000 A 
ATOM     26  C   UNL d   1      49.539  34.510  52.065  0.00  0.00     0.000 C 
ATOM     27  C   UNL d   1      50.814  34.495  51.761  0.00  0.00     0.000 A 
ATOM     28  C   UNL d   1      51.617  34.328  51.863  0.00  0.00     0.000 A 
ATOM     29  C   UNL d   1      51.877  33.934  52.531  0.00  0.00     0.002 A 
ENDBRANCH  22  23
ENDBRANCH   5  22
TORSDOF 5
ENDMDL
MODEL 3
REMARK VINA RESULT:      -9.0      1.443      4.288
REMARK  5 active torsions:
REMARK  status: ('A' for Active; 'I' for Inactive)
REMARK    1  A    between atoms: N_10  and  C_4 
REMARK    2  A    between atoms: C_11  and  N_5 
REMARK    3  A    between atoms: C_14  and  N_10 
REMARK    4  A    between atoms: C_15  and  C_11 
REMARK    5  A    between atoms: C_18  and  C_14 
ROOT
ATOM      1  C   UNL d   1      51.886  33.180  53.083  0.00  0.00     0.191 A 
ATOM      2  C   UNL d   1      52.454  33.714  53.165  0.00  0.00     0.174 A 
ATOM      3  N   UNL d   1      52.043  32.400  53.101  0.00  0.00    -0.042 NA
ATOM      4  C   UNL d   1      52.785  32.168  53.202  0.00  0.00     0.722 A 
ATOM      5  N   UNL d   1      53.380  32.711  53.287  0.00  0.00    -0.132 N 
ATOM      6  N   UNL d   1      51.124  33.416  52.979  0.00  0.00    -0.239 N 
ATOM      7  C   UNL d   1      50.941  34.184  52.958  0.00  0.00     0.358 A 
ATOM      8  N   UNL d   1      51.519  34.727  53.041  0.00  0.00    -0.152 NA
ATOM      9  C   UNL d   1      52.273  34.495  53.144  0.00  0.00     0.303 A 
ATOM     10  O   UNL d   1      50.180  34.420  52.854  0.00  0.00    -0.244 OA
ATOM     11  O   UNL d   1      52.865  35.052  53.229  0.00  0.00    -0.263 OA
ATOM     12  C   UNL d   1      50.540  32.866  52.896  0.00  0.00     0.105 C 
ENDROOT
BRANCH   4  13
ATOM     13  N   UNL d   1      52.961  31.394  53.223  0.00  0.00    -0.137 N 
ATOM     14  C   UNL d   1      53.558  30.924  52.903  0.00  0.00     0.118 C 
BRANCH  13  15
ATOM     15  C   UNL d   1      52.481  30.874  53.641  0.00  0.00     0.098 C 
BRANCH  15  16
ATOM     16  C   UNL d   1      52.763  30.121  53.843  0.00  0.00     0.018 A 
ATOM     17  C   UNL d   1      52.903  29.937  54.641  0.00  0.00     0.002 A 
ATOM     18  C   UNL d   1      53.184  29.185  54.843  0.00  0.00     0.000 A 
ATOM     19  C   UNL d   1      53.324  28.624  54.250  0.00  0.00     0.000 A 
ATOM     20  C   UNL d   1      53.182  28.815  53.454  0.00  0.00     0.000 A 
ATOM     21  C   UNL d   1      52.900  29.567  53.252  0.00  0.00     0.002 A 
ENDBRANCH  15  16
ENDBRANCH  13  15
ENDBRANCH   4  13
BRANCH   5  22
ATOM     22  C   UNL d   1      54.177  32.893  53.399  0.00  0.00     0.098 C 
BRANCH  22  23
ATOM     23  C   UNL d   1      54.451  33.120  54.144  0.00  0.00     0.018 A 
ATOM     24  C   UNL d   1      55.072  33.651  54.191  0.00  0.00     0.002 A 
ATOM     25  C   UNL d   1      55.347  33.878  54.936  0.00  0.00     0.000 A 
ATOM     26  C   UNL d   1      55.939  34.381  55.211  0.00  0.00     0.000 C 
ATOM     27  C   UNL d   1      54.996  33.571  55.624  0.00  0.00     0.000 A 
ATOM     28  C   UNL d   1      54.369  33.036  55.553  0.00  0.00     0.000 A 
ATOM     29  C   UNL d   1      54.097  32.811  54.815  0.00  0.00     0.002 A 
ENDBRANCH  22  23
ENDBRANCH   5  22
TORSDOF 5
ENDMDL
MODEL 4
REMARK VINA RESULT:      -7.8      1.894      4.309
REMARK  5 active torsions:
REMARK  status: ('A' for Active; 'I' for Inactive)
REMARK    1  A    between atoms: N_10  and  C_4 
REMARK    2  A    between atoms: C_11  and  N_5 
REMARK    3  A    between atoms: C_14  and  N_10 
REMARK    4  A    between atoms: C_15  and  C_11 
REMARK    5  A    between atoms: C_18  and  C_14 
ROOT
ATOM      1  C   UNL d   1      53.334  30.311  54.007  0.00  0.00     0.191 A 
ATOM      2  C   UNL d   1      52.827  30.315  53.410  0.00  0.00     0.174 A 
ATOM      3  N   UNL d   1      53.734  30.967  54.216  0.00  0.00    -0.042 NA
ATOM      4  C   UNL d   1      53.614  31.627  53.810  0.00  0.00     0.722 A 
ATOM      5  N   UNL d   1      53.093  31.642  53.191  0.00  0.00    -0.132 N 
ATOM      6  N   UNL d   1      53.459  29.636  54.425  0.00  0.00    -0.239 N 
ATOM      7  C   UNL d   1      53.073  28.972  54.238  0.00  0.00     0.358 A 
ATOM      8  N   UNL d   1      52.558  28.975  53.630  0.00  0.00    -0.152 NA
ATOM      9  C   UNL d   1      52.434  29.643  53.216  0.00  0.00     0.303 A 
ATOM     10  O   UNL d   1      53.198  28.296  54.655  0.00  0.00    -0.244 OA
ATOM     11  O   UNL d   1      51.905  29.646  52.593  0.00  0.00    -0.263 OA
ATOM     12  C   UNL d   1      53.980  29.633  55.040  0.00  0.00     0.105 C 
ENDROOT
BRANCH   4  13
ATOM     13  N   UNL d   1      54.005  32.290  54.004  0.00  0.00    -0.137 N 
ATOM     14  C   UNL d   1      54.460  32.840  53.591  0.00  0.00     0.118 C 
BRANCH  13  15
ATOM     15  C   UNL d   1      54.003  32.557  54.782  0.00  0.00     0.098 C 
BRANCH  15  16
ATOM     16  C   UNL d   1      54.346  33.287  54.970  0.00  0.00     0.018 A 
ATOM     17  C   UNL d   1      53.858  33.923  55.192  0.00  0.00     0.002 A 
ATOM     18  C   UNL d   1      54.201  34.653  55.381  0.00  0.00     0.000 A 
ATOM     19  C   UNL d   1      55.024  34.744  55.348  0.00  0.00     0.000 A 
ATOM     20  C   UNL d   1      55.504  34.104  55.125  0.00  0.00     0.000 A 
ATOM     21  C   UNL d   1      55.162  33.373  54.936  0.00  0.00     0.002 A 
ENDBRANCH  15  16
ENDBRANCH  13  15
ENDBRANCH   4  13
BRANCH   5  22
ATOM     22  C   UNL d   1      52.713  32.047  52.581  0.00  0.00     0.098 C 
BRANCH  22  23
ATOM     23  C   UNL d   1      52.075  32.544  52.747  0.00  0.00     0.018 A 
ATOM     24  C   UNL d   1      52.094  33.316  52.475  0.00  0.00     0.002 A 
ATOM     25  C   UNL d   1      51.456  33.813  52.641  0.00  0.00     0.000 A 
ATOM     26  C   UNL d   1      51.270  34.599  52.472  0.00  0.00     0.000 C 
ATOM     27  C   UNL d   1      50.808  33.532  53.077  0.00  0.00     0.000 A 
ATOM     28  C   UNL d   1      50.809  32.749  53.343  0.00  0.00     0.000 A 
ATOM     29  C   UNL d   1      51.441  32.256  53.178  0.00  0.00     0.002 A 
ENDBRANCH  22  23
ENDBRANCH   5  22
TORSDOF 5
ENDMDL
