MODEL 1
REMARK VINA RESULT:      30.9      0.000      0.000
REMARK  7 active torsions:
REMARK  status: ('A' for Active; 'I' for Inactive)
REMARK    1  A    between atoms: S_7  and  C_1 
REMARK    2  A    between atoms: C_6  and  C_8 
REMARK       I    between atoms: N_10  and  C_6 
REMARK    3  A    between atoms: C_13  and  S_7 
REMARK    4  A    between atoms: C_21  and  N_10 
REMARK    5  A    between atoms: C_14  and  C_13 
REMARK    6  A    between atoms: C_17  and  C_21 
REMARK    7  A    between atoms: C_22  and  C_17 
ROOT
ATOM      1  C   UNL d   1     -58.472 -98.859 -45.018  0.00  0.00     0.058 A 
ATOM      2  C   UNL d   1     -58.202 -98.817 -44.249  0.00  0.00     0.005 A 
ATOM      3  C   UNL d   1     -57.916 -98.869 -45.647  0.00  0.00     0.005 A 
ATOM      4  C   UNL d   1     -56.838 -98.792 -44.711  0.00  0.00     0.007 A 
ATOM      5  C   UNL d   1     -57.130 -98.837 -45.500  0.00  0.00     0.001 A 
ATOM      6  C   UNL d   1     -57.396 -98.783 -44.098  0.00  0.00     0.001 A 
ENDROOT
BRANCH   4   7
ATOM      7  C   UNL d   1     -56.053 -98.760 -44.564  0.00  0.00     0.038 C 
BRANCH   7   8
ATOM      8  S   UNL d   1     -55.716 -99.234 -43.954  0.00  0.00    -0.048 SA
BRANCH   8   9
ATOM      9  C   UNL d   1     -55.480-100.016 -44.114  0.00  0.00     0.194 A 
ATOM     10  N   UNL d   1     -55.377-100.337 -44.868  0.00  0.00    -0.220 NA
ATOM     11  C   UNL d   1     -55.144-101.116 -44.772  0.00  0.00     0.101 A 
ATOM     12  C   UNL d   1     -54.963-101.706 -45.299  0.00  0.00     0.021 A 
ATOM     13  C   UNL d   1     -55.106-101.271 -43.962  0.00  0.00     0.101 A 
ATOM     14  C   UNL d   1     -54.750-102.424 -45.040  0.00  0.00     0.002 A 
ATOM     15  C   UNL d   1     -54.712-102.578 -44.229  0.00  0.00     0.002 A 
ATOM     16  C   UNL d   1     -54.887-102.015 -43.677  0.00  0.00     0.021 A 
ATOM     17  N   UNL d   1     -55.316-100.586 -43.565  0.00  0.00    -0.220 NA
ENDBRANCH   8   9
ENDBRANCH   7   8
ENDBRANCH   4   7
BRANCH   1  18
ATOM     18  C   UNL d   1     -59.290 -98.891 -45.139  0.00  0.00     0.279 C 
ATOM     19  O   UNL d   1     -59.578 -98.976 -45.909  0.00  0.00    -0.265 OA
ATOM     20  N   UNL d   1     -59.815 -98.840 -44.506  0.00  0.00    -0.206 NA
BRANCH  20  21
ATOM     21  C   UNL d   1     -59.532 -98.756 -43.738  0.00  0.00     0.106 C 
BRANCH  21  22
ATOM     22  C   UNL d   1     -59.960 -99.069 -43.098  0.00  0.00     0.066 C 
BRANCH  22  23
ATOM     23  C   UNL d   1     -59.563 -99.394 -42.460  0.00  0.00     0.236 C 
ATOM     24  O   UNL d   1     -59.896 -99.364 -41.703  0.00  0.00    -0.283 OA
ENDBRANCH  22  23
ENDBRANCH  21  22
ENDBRANCH  20  21
ENDBRANCH   1  18
TORSDOF 7
ENDMDL
