MODEL 1
REMARK VINA RESULT:       6.0      0.000      0.000
REMARK  1 active torsions:
REMARK  status: ('A' for Active; 'I' for Inactive)
REMARK    1  A    between atoms: C_12  and  C_1 
ROOT
ATOM      1  C   UNL d   1      46.319 -18.879  44.081  0.00  0.00     0.019 A 
ATOM      2  C   UNL d   1      46.322 -18.235  42.802  0.00  0.00     0.103 A 
ATOM      3  C   UNL d   1      46.399 -18.914  43.262  0.00  0.00     0.024 A 
ATOM      4  O   UNL d   1      46.162 -17.510  43.160  0.00  0.00    -0.273 OA
ATOM      5  C   UNL d   1      46.081 -17.472  43.982  0.00  0.00     0.300 A 
ATOM      6  C   UNL d   1      46.159 -18.153  44.443  0.00  0.00     0.070 A 
ATOM      7  C   UNL d   1      46.559 -19.638  42.899  0.00  0.00     0.002 A 
ATOM      8  C   UNL d   1      46.404 -18.278  41.978  0.00  0.00     0.025 A 
ATOM      9  C   UNL d   1      46.641 -19.685  42.084  0.00  0.00     0.000 A 
ATOM     10  O   UNL d   1      45.921 -16.743  44.346  0.00  0.00    -0.259 OA
ATOM     11  C   UNL d   1      46.563 -19.001  41.621  0.00  0.00     0.002 A 
ATOM     12  C   UNL d   1      46.638 -20.322  43.353  0.00  0.00     0.000 C 
ATOM     13  C   UNL d   1      46.646 -19.051  40.796  0.00  0.00     0.000 C 
ENDROOT
BRANCH   1  14
ATOM     14  C   UNL d   1      46.398 -19.563  44.535  0.00  0.00     0.069 C 
ATOM     15 CL   UNL d   1      45.725 -19.930  44.837  0.00  0.00    -0.082 Cl
ENDBRANCH   1  14
TORSDOF 1
ENDMDL
