MODEL 1
REMARK VINA RESULT:      -6.1      0.000      0.000
REMARK  6 active torsions:
REMARK  status: ('A' for Active; 'I' for Inactive)
REMARK    1  A    between atoms: C_2  and  S_1 
REMARK    2  A    between atoms: N_5  and  S_1 
REMARK    3  A    between atoms: C_9  and  N_5 
REMARK    4  A    between atoms: C_11  and  C_9 
REMARK       I    between atoms: N_17  and  C_11 
REMARK    5  A    between atoms: C_16  and  C_21 
REMARK    6  A    between atoms: C_21  and  N_17 
ROOT
ATOM      1  C   UNL d   1     -43.557  12.876  21.574  0.00  0.00     0.299 C 
ATOM      2  N   UNL d   1     -43.022  13.415  21.266  0.00  0.00    -0.203 NA
ATOM      3  O   UNL d   1     -43.299  12.102  21.787  0.00  0.00    -0.263 OA
ENDROOT
BRANCH   1   4
ATOM      4  C   UNL d   1     -44.346  13.088  21.675  0.00  0.00     0.174 C 
BRANCH   4   5
ATOM      5  N   UNL d   1     -44.797  12.736  22.285  0.00  0.00    -0.151 NA
BRANCH   5   6
ATOM      6  S   UNL d   1     -45.558  13.025  22.456  0.00  0.00     0.291 S 
ATOM      7  O   UNL d   1     -45.496  12.733  23.238  0.00  0.00    -0.198 OA
ATOM      8  O   UNL d   1     -45.626  13.313  21.691  0.00  0.00    -0.198 OA
BRANCH   6   9
ATOM      9  C   UNL d   1     -46.315  13.308  22.638  0.00  0.00     0.135 A 
ATOM     10  S   UNL d   1     -46.981  12.856  22.643  0.00  0.00    -0.067 SA
ATOM     11  C   UNL d   1     -47.626  13.352  22.854  0.00  0.00     0.065 A 
ATOM     12 BR   UNL d   1     -48.428  13.115  22.927  0.00  0.00    -0.042 Br
ATOM     13  C   UNL d   1     -47.339  14.098  22.973  0.00  0.00     0.015 A 
ATOM     14  C   UNL d   1     -46.522  14.081  22.841  0.00  0.00     0.021 A 
ENDBRANCH   6   9
ENDBRANCH   5   6
ENDBRANCH   4   5
ENDBRANCH   1   4
BRANCH   2  15
ATOM     15  C   UNL d   1     -42.221  13.199  21.163  0.00  0.00     0.129 C 
BRANCH  15  16
ATOM     16  C   UNL d   1     -41.688  13.748  20.828  0.00  0.00     0.144 A 
ATOM     17  O   UNL d   1     -41.458  13.691  20.052  0.00  0.00    -0.301 OA
ATOM     18  C   UNL d   1     -40.937  14.235  19.740  0.00  0.00     0.123 A 
ATOM     19  C   UNL d   1     -40.702  14.179  18.951  0.00  0.00     0.027 A 
ATOM     20  C   UNL d   1     -40.640  14.845  20.207  0.00  0.00     0.123 A 
ATOM     21  C   UNL d   1     -40.175  14.727  18.630  0.00  0.00     0.002 A 
ATOM     22  C   UNL d   1     -39.880  15.335  19.099  0.00  0.00     0.002 A 
ATOM     23  C   UNL d   1     -40.117  15.391  19.895  0.00  0.00     0.027 A 
ATOM     24  O   UNL d   1     -40.869  14.906  20.991  0.00  0.00    -0.301 OA
ATOM     25  C   UNL d   1     -41.393  14.356  21.298  0.00  0.00     0.149 A 
ENDBRANCH  15  16
ENDBRANCH   2  15
TORSDOF 6
ENDMDL
MODEL 2
REMARK VINA RESULT:      -5.3      2.364      5.996
REMARK  6 active torsions:
REMARK  status: ('A' for Active; 'I' for Inactive)
REMARK    1  A    between atoms: C_2  and  S_1 
REMARK    2  A    between atoms: N_5  and  S_1 
REMARK    3  A    between atoms: C_9  and  N_5 
REMARK    4  A    between atoms: C_11  and  C_9 
REMARK       I    between atoms: N_17  and  C_11 
REMARK    5  A    between atoms: C_16  and  C_21 
REMARK    6  A    between atoms: C_21  and  N_17 
ROOT
ATOM      1  C   UNL d   1     -43.973  12.803  21.736  0.00  0.00     0.299 C 
ATOM      2  N   UNL d   1     -44.686  13.184  21.868  0.00  0.00    -0.203 NA
ATOM      3  O   UNL d   1     -43.820  12.058  22.100  0.00  0.00    -0.263 OA
ENDROOT
BRANCH   1   4
ATOM      4  C   UNL d   1     -43.405  13.146  21.248  0.00  0.00     0.174 C 
BRANCH   4   5
ATOM      5  N   UNL d   1     -42.594  12.992  21.382  0.00  0.00    -0.151 NA
BRANCH   5   6
ATOM      6  S   UNL d   1     -42.018  13.490  21.049  0.00  0.00     0.291 S 
ATOM      7  O   UNL d   1     -41.733  13.679  21.812  0.00  0.00    -0.198 OA
ATOM      8  O   UNL d   1     -42.291  13.310  20.296  0.00  0.00    -0.198 OA
BRANCH   6   9
ATOM      9  C   UNL d   1     -41.439  13.990  20.726  0.00  0.00     0.135 A 
ATOM     10  S   UNL d   1     -41.258  14.719  21.013  0.00  0.00    -0.067 SA
ATOM     11  C   UNL d   1     -40.647  15.039  20.532  0.00  0.00     0.065 A 
ATOM     12 BR   UNL d   1     -40.285  15.791  20.627  0.00  0.00    -0.042 Br
ATOM     13  C   UNL d   1     -40.469  14.496  19.961  0.00  0.00     0.015 A 
ATOM     14  C   UNL d   1     -40.958  13.838  20.074  0.00  0.00     0.021 A 
ENDBRANCH   6   9
ENDBRANCH   5   6
ENDBRANCH   4   5
ENDBRANCH   1   4
BRANCH   2  15
ATOM     15  C   UNL d   1     -45.263  12.836  22.363  0.00  0.00     0.129 C 
BRANCH  15  16
ATOM     16  C   UNL d   1     -46.002  13.212  22.459  0.00  0.00     0.144 A 
ATOM     17  O   UNL d   1     -46.664  12.946  22.072  0.00  0.00    -0.301 OA
ATOM     18  C   UNL d   1     -47.378  13.325  22.177  0.00  0.00     0.123 A 
ATOM     19  C   UNL d   1     -48.052  13.054  21.785  0.00  0.00     0.027 A 
ATOM     20  C   UNL d   1     -47.436  13.979  22.674  0.00  0.00     0.123 A 
ATOM     21  C   UNL d   1     -48.778  13.434  21.887  0.00  0.00     0.002 A 
ATOM     22  C   UNL d   1     -48.832  14.088  22.384  0.00  0.00     0.002 A 
ATOM     23  C   UNL d   1     -48.152  14.360  22.779  0.00  0.00     0.027 A 
ATOM     24  O   UNL d   1     -46.770  14.251  23.066  0.00  0.00    -0.301 OA
ATOM     25  C   UNL d   1     -46.056  13.866  22.956  0.00  0.00     0.149 A 
ENDBRANCH  15  16
ENDBRANCH   2  15
TORSDOF 6
ENDMDL
MODEL 3
REMARK VINA RESULT:      -5.2      2.602      6.083
REMARK  6 active torsions:
REMARK  status: ('A' for Active; 'I' for Inactive)
REMARK    1  A    between atoms: C_2  and  S_1 
REMARK    2  A    between atoms: N_5  and  S_1 
REMARK    3  A    between atoms: C_9  and  N_5 
REMARK    4  A    between atoms: C_11  and  C_9 
REMARK       I    between atoms: N_17  and  C_11 
REMARK    5  A    between atoms: C_16  and  C_21 
REMARK    6  A    between atoms: C_21  and  N_17 
ROOT
ATOM      1  C   UNL d   1     -43.172  12.861  21.499  0.00  0.00     0.299 C 
ATOM      2  N   UNL d   1     -43.941  13.063  21.701  0.00  0.00    -0.203 NA
ATOM      3  O   UNL d   1     -42.844  12.133  21.771  0.00  0.00    -0.263 OA
ENDROOT
BRANCH   1   4
ATOM      4  C   UNL d   1     -42.721  13.367  21.033  0.00  0.00     0.174 C 
BRANCH   4   5
ATOM      5  N   UNL d   1     -41.894  13.414  21.150  0.00  0.00    -0.151 NA
BRANCH   5   6
ATOM      6  S   UNL d   1     -41.455  14.006  20.765  0.00  0.00     0.291 S 
ATOM      7  O   UNL d   1     -41.263  14.350  21.502  0.00  0.00    -0.198 OA
ATOM      8  O   UNL d   1     -41.639  13.674  20.037  0.00  0.00    -0.198 OA
BRANCH   6   9
ATOM      9  C   UNL d   1     -41.014  14.600  20.390  0.00  0.00     0.135 A 
ATOM     10  S   UNL d   1     -40.514  14.474  19.773  0.00  0.00    -0.067 SA
ATOM     11  C   UNL d   1     -40.180  15.215  19.558  0.00  0.00     0.065 A 
ATOM     12 BR   UNL d   1     -39.626  15.348  18.941  0.00  0.00    -0.042 Br
ATOM     13  C   UNL d   1     -40.485  15.779  20.051  0.00  0.00     0.015 A 
ATOM     14  C   UNL d   1     -41.006  15.404  20.573  0.00  0.00     0.021 A 
ENDBRANCH   6   9
ENDBRANCH   5   6
ENDBRANCH   4   5
ENDBRANCH   1   4
BRANCH   2  15
ATOM     15  C   UNL d   1     -44.399  12.549  22.175  0.00  0.00     0.129 C 
BRANCH  15  16
ATOM     16  C   UNL d   1     -45.178  12.767  22.382  0.00  0.00     0.144 A 
ATOM     17  O   UNL d   1     -45.643  12.286  22.840  0.00  0.00    -0.301 OA
ATOM     18  C   UNL d   1     -46.402  12.515  23.033  0.00  0.00     0.123 A 
ATOM     19  C   UNL d   1     -46.875  12.025  23.499  0.00  0.00     0.027 A 
ATOM     20  C   UNL d   1     -46.702  13.233  22.766  0.00  0.00     0.123 A 
ATOM     21  C   UNL d   1     -47.645  12.252  23.698  0.00  0.00     0.002 A 
ATOM     22  C   UNL d   1     -47.942  12.971  23.429  0.00  0.00     0.002 A 
ATOM     23  C   UNL d   1     -47.463  13.463  22.960  0.00  0.00     0.027 A 
ATOM     24  O   UNL d   1     -46.236  13.722  22.304  0.00  0.00    -0.301 OA
ATOM     25  C   UNL d   1     -45.475  13.486  22.113  0.00  0.00     0.149 A 
ENDBRANCH  15  16
ENDBRANCH   2  15
TORSDOF 6
ENDMDL
MODEL 4
REMARK VINA RESULT:      -4.5      4.985      5.879
REMARK  6 active torsions:
REMARK  status: ('A' for Active; 'I' for Inactive)
REMARK    1  A    between atoms: C_2  and  S_1 
REMARK    2  A    between atoms: N_5  and  S_1 
REMARK    3  A    between atoms: C_9  and  N_5 
REMARK    4  A    between atoms: C_11  and  C_9 
REMARK       I    between atoms: N_17  and  C_11 
REMARK    5  A    between atoms: C_16  and  C_21 
REMARK    6  A    between atoms: C_21  and  N_17 
ROOT
ATOM      1  C   UNL d   1     -40.479  15.416  19.465  0.00  0.00     0.299 C 
ATOM      2  N   UNL d   1     -39.981  15.548  18.826  0.00  0.00    -0.203 NA
ATOM      3  O   UNL d   1     -41.296  15.255  19.335  0.00  0.00    -0.263 OA
ENDROOT
BRANCH   1   4
ATOM      4  C   UNL d   1     -40.182  15.439  20.232  0.00  0.00     0.174 C 
BRANCH   4   5
ATOM      5  N   UNL d   1     -40.228  14.760  20.717  0.00  0.00    -0.151 NA
BRANCH   5   6
ATOM      6  S   UNL d   1     -39.763  14.710  21.405  0.00  0.00     0.291 S 
ATOM      7  O   UNL d   1     -40.142  15.388  21.715  0.00  0.00    -0.198 OA
ATOM      8  O   UNL d   1     -39.386  14.044  21.107  0.00  0.00    -0.198 OA
BRANCH   6   9
ATOM      9  C   UNL d   1     -39.304  14.669  22.095  0.00  0.00     0.135 A 
ATOM     10  S   UNL d   1     -39.018  13.987  22.410  0.00  0.00    -0.067 SA
ATOM     11  C   UNL d   1     -38.585  14.186  23.102  0.00  0.00     0.065 A 
ATOM     12 BR   UNL d   1     -38.188  13.647  23.610  0.00  0.00    -0.042 Br
ATOM     13  C   UNL d   1     -38.617  14.988  23.195  0.00  0.00     0.015 A 
ATOM     14  C   UNL d   1     -39.064  15.298  22.571  0.00  0.00     0.021 A 
ENDBRANCH   6   9
ENDBRANCH   5   6
ENDBRANCH   4   5
ENDBRANCH   1   4
BRANCH   2  15
ATOM     15  C   UNL d   1     -40.283  15.524  18.047  0.00  0.00     0.129 C 
BRANCH  15  16
ATOM     16  C   UNL d   1     -39.771  15.338  17.415  0.00  0.00     0.144 A 
ATOM     17  O   UNL d   1     -39.450  14.597  17.336  0.00  0.00    -0.301 OA
ATOM     18  C   UNL d   1     -38.952  14.432  16.712  0.00  0.00     0.123 A 
ATOM     19  C   UNL d   1     -38.626  13.678  16.632  0.00  0.00     0.027 A 
ATOM     20  C   UNL d   1     -38.769  15.012  16.158  0.00  0.00     0.123 A 
ATOM     21  C   UNL d   1     -38.120  13.505  16.002  0.00  0.00     0.002 A 
ATOM     22  C   UNL d   1     -37.940  14.088  15.450  0.00  0.00     0.002 A 
ATOM     23  C   UNL d   1     -38.269  14.847  15.532  0.00  0.00     0.027 A 
ATOM     24  O   UNL d   1     -39.090  15.762  16.233  0.00  0.00    -0.301 OA
ATOM     25  C   UNL d   1     -39.590  15.921  16.862  0.00  0.00     0.149 A 
ENDBRANCH  15  16
ENDBRANCH   2  15
TORSDOF 6
ENDMDL
MODEL 5
REMARK VINA RESULT:      -3.9      2.425      6.693
REMARK  6 active torsions:
REMARK  status: ('A' for Active; 'I' for Inactive)
REMARK    1  A    between atoms: C_2  and  S_1 
REMARK    2  A    between atoms: N_5  and  S_1 
REMARK    3  A    between atoms: C_9  and  N_5 
REMARK    4  A    between atoms: C_11  and  C_9 
REMARK       I    between atoms: N_17  and  C_11 
REMARK    5  A    between atoms: C_16  and  C_21 
REMARK    6  A    between atoms: C_21  and  N_17 
ROOT
ATOM      1  C   UNL d   1     -46.000  13.081  22.772  0.00  0.00     0.299 C 
ATOM      2  N   UNL d   1     -46.736  13.147  22.418  0.00  0.00    -0.203 NA
ATOM      3  O   UNL d   1     -45.941  12.841  23.579  0.00  0.00    -0.263 OA
ENDROOT
BRANCH   1   4
ATOM      4  C   UNL d   1     -45.318  13.247  22.342  0.00  0.00     0.174 C 
BRANCH   4   5
ATOM      5  N   UNL d   1     -44.752  12.646  22.211  0.00  0.00    -0.151 NA
BRANCH   5   6
ATOM      6  S   UNL d   1     -44.011  12.838  21.887  0.00  0.00     0.291 S 
ATOM      7  O   UNL d   1     -43.733  12.068  22.054  0.00  0.00    -0.198 OA
ATOM      8  O   UNL d   1     -44.277  13.597  21.719  0.00  0.00    -0.198 OA
BRANCH   6   9
ATOM      9  C   UNL d   1     -43.268  13.020  21.566  0.00  0.00     0.135 A 
ATOM     10  S   UNL d   1     -43.054  13.749  21.301  0.00  0.00    -0.067 SA
ATOM     11  C   UNL d   1     -42.263  13.698  21.021  0.00  0.00     0.065 A 
ATOM     12 BR   UNL d   1     -41.813  14.327  20.694  0.00  0.00    -0.042 Br
ATOM     13  C   UNL d   1     -42.011  12.937  21.122  0.00  0.00     0.015 A 
ATOM     14  C   UNL d   1     -42.632  12.507  21.461  0.00  0.00     0.021 A 
ENDBRANCH   6   9
ENDBRANCH   5   6
ENDBRANCH   4   5
ENDBRANCH   1   4
BRANCH   2  15
ATOM     15  C   UNL d   1     -47.429  12.978  22.854  0.00  0.00     0.129 C 
BRANCH  15  16
ATOM     16  C   UNL d   1     -48.175  13.061  22.488  0.00  0.00     0.144 A 
ATOM     17  O   UNL d   1     -48.837  13.251  22.918  0.00  0.00    -0.301 OA
ATOM     18  C   UNL d   1     -49.557  13.329  22.544  0.00  0.00     0.123 A 
ATOM     19  C   UNL d   1     -50.230  13.522  22.981  0.00  0.00     0.027 A 
ATOM     20  C   UNL d   1     -49.621  13.215  21.732  0.00  0.00     0.123 A 
ATOM     21  C   UNL d   1     -50.964  13.601  22.608  0.00  0.00     0.002 A 
ATOM     22  C   UNL d   1     -51.024  13.487  21.795  0.00  0.00     0.002 A 
ATOM     23  C   UNL d   1     -50.344  13.293  21.357  0.00  0.00     0.027 A 
ATOM     24  O   UNL d   1     -48.956  13.024  21.294  0.00  0.00    -0.301 OA
ATOM     25  C   UNL d   1     -48.235  12.947  21.675  0.00  0.00     0.149 A 
ENDBRANCH  15  16
ENDBRANCH   2  15
TORSDOF 6
ENDMDL
MODEL 6
REMARK VINA RESULT:      -3.4      1.418      2.243
REMARK  6 active torsions:
REMARK  status: ('A' for Active; 'I' for Inactive)
REMARK    1  A    between atoms: C_2  and  S_1 
REMARK    2  A    between atoms: N_5  and  S_1 
REMARK    3  A    between atoms: C_9  and  N_5 
REMARK    4  A    between atoms: C_11  and  C_9 
REMARK       I    between atoms: N_17  and  C_11 
REMARK    5  A    between atoms: C_16  and  C_21 
REMARK    6  A    between atoms: C_21  and  N_17 
ROOT
ATOM      1  C   UNL d   1     -41.756  13.717  21.021  0.00  0.00     0.299 C 
ATOM      2  N   UNL d   1     -41.513  14.065  20.319  0.00  0.00    -0.203 NA
ATOM      3  O   UNL d   1     -41.183  13.435  21.571  0.00  0.00    -0.263 OA
ENDROOT
BRANCH   1   4
ATOM      4  C   UNL d   1     -42.558  13.642  21.189  0.00  0.00     0.174 C 
BRANCH   4   5
ATOM      5  N   UNL d   1     -42.880  12.888  21.354  0.00  0.00    -0.151 NA
BRANCH   5   6
ATOM      6  S   UNL d   1     -43.636  12.827  21.696  0.00  0.00     0.291 S 
ATOM      7  O   UNL d   1     -43.515  12.010  21.828  0.00  0.00    -0.198 OA
ATOM      8  O   UNL d   1     -43.763  13.628  21.569  0.00  0.00    -0.198 OA
BRANCH   6   9
ATOM      9  C   UNL d   1     -44.388  12.755  22.038  0.00  0.00     0.135 A 
ATOM     10  S   UNL d   1     -44.986  13.283  21.936  0.00  0.00    -0.067 SA
ATOM     11  C   UNL d   1     -45.649  13.008  22.373  0.00  0.00     0.065 A 
ATOM     12 BR   UNL d   1     -46.398  13.385  22.426  0.00  0.00    -0.042 Br
ATOM     13  C   UNL d   1     -45.440  12.315  22.733  0.00  0.00     0.015 A 
ATOM     14  C   UNL d   1     -44.655  12.149  22.530  0.00  0.00     0.021 A 
ENDBRANCH   6   9
ENDBRANCH   5   6
ENDBRANCH   4   5
ENDBRANCH   1   4
BRANCH   2  15
ATOM     15  C   UNL d   1     -40.698  14.141  20.148  0.00  0.00     0.129 C 
BRANCH  15  16
ATOM     16  C   UNL d   1     -40.460  14.381  19.385  0.00  0.00     0.144 A 
ATOM     17  O   UNL d   1     -40.066  13.874  18.888  0.00  0.00    -0.301 OA
ATOM     18  C   UNL d   1     -39.841  14.125  18.146  0.00  0.00     0.123 A 
ATOM     19  C   UNL d   1     -39.441  13.611  17.639  0.00  0.00     0.027 A 
ATOM     20  C   UNL d   1     -40.009  14.890  17.893  0.00  0.00     0.123 A 
ATOM     21  C   UNL d   1     -39.209  13.859  16.886  0.00  0.00     0.002 A 
ATOM     22  C   UNL d   1     -39.379  14.624  16.637  0.00  0.00     0.002 A 
ATOM     23  C   UNL d   1     -39.783  15.142  17.149  0.00  0.00     0.027 A 
ATOM     24  O   UNL d   1     -40.406  15.405  18.392  0.00  0.00    -0.301 OA
ATOM     25  C   UNL d   1     -40.630  15.147  19.137  0.00  0.00     0.149 A 
ENDBRANCH  15  16
ENDBRANCH   2  15
TORSDOF 6
ENDMDL
