MODEL 1
REMARK VINA RESULT:     186.3      0.000      0.000
REMARK  5 active torsions:
REMARK  status: ('A' for Active; 'I' for Inactive)
REMARK    1  A    between atoms: C_6  and  C_1 
REMARK    2  A    between atoms: C_9  and  C_5 
REMARK       I    between atoms: N_13  and  C_6 
REMARK    3  A    between atoms: C_7  and  C_15 
REMARK    4  A    between atoms: N_10  and  N_13 
REMARK    5  A    between atoms: C_15  and  N_10 
ROOT
ATOM      1  C   UNL d   1     -55.285 -99.723 -43.004  0.00  0.00     0.316 C 
ATOM      2  N   UNL d   1     -55.679-100.157 -43.775  0.00  0.00    -0.104 NA
ATOM      3  O   UNL d   1     -54.905 -99.008 -43.144  0.00  0.00    -0.262 OA
ENDROOT
BRANCH   1   4
ATOM      4  C   UNL d   1     -55.309-100.020 -42.241  0.00  0.00     0.164 A 
ATOM      5  C   UNL d   1     -55.419-100.825 -42.123  0.00  0.00     0.047 A 
ATOM      6  C   UNL d   1     -55.360-100.633 -40.725  0.00  0.00     0.105 A 
ATOM      7  N   UNL d   1     -55.250 -99.828 -40.843  0.00  0.00    -0.148 NA
ATOM      8  N   UNL d   1     -55.224 -99.520 -41.603  0.00  0.00    -0.143 NA
BRANCH   6   9
ATOM      9  C   UNL d   1     -55.414-101.123 -40.071  0.00  0.00     0.019 A 
ATOM     10  C   UNL d   1     -55.446-100.793 -39.324  0.00  0.00     0.002 A 
ATOM     11  C   UNL d   1     -55.500-101.282 -38.664  0.00  0.00     0.000 A 
ATOM     12  C   UNL d   1     -55.532-100.957 -37.916  0.00  0.00     0.000 A 
ATOM     13  C   UNL d   1     -55.521-102.100 -38.763  0.00  0.00     0.000 A 
ATOM     14  C   UNL d   1     -55.585-101.441 -37.264  0.00  0.00     0.000 A 
ATOM     15  C   UNL d   1     -55.607-102.259 -37.353  0.00  0.00     0.000 A 
ATOM     16  C   UNL d   1     -55.575-102.587 -38.100  0.00  0.00     0.000 A 
ATOM     17  C   UNL d   1     -55.488-102.414 -39.508  0.00  0.00     0.000 A 
ATOM     18  C   UNL d   1     -55.434-101.925 -40.163  0.00  0.00     0.002 A 
ENDBRANCH   6   9
ENDBRANCH   1   4
BRANCH   2  19
ATOM     19  N   UNL d   1     -55.717 -99.899 -44.743  0.00  0.00    -0.143 NA
BRANCH  19  20
ATOM     20  C   UNL d   1     -56.209-100.338 -45.292  0.00  0.00     0.126 C 
BRANCH  20  21
ATOM     21  C   UNL d   1     -56.984-100.628 -45.041  0.00  0.00     0.060 A 
ATOM     22  C   UNL d   1     -57.531-100.106 -44.630  0.00  0.00     0.005 A 
ATOM     23  C   UNL d   1     -58.305-100.396 -44.379  0.00  0.00     0.000 A 
ATOM     24  C   UNL d   1     -57.305 -99.284 -44.467  0.00  0.00     0.000 A 
ATOM     25  C   UNL d   1     -58.858 -99.867 -43.964  0.00  0.00     0.000 A 
ATOM     26  C   UNL d   1     -58.540-101.214 -44.538  0.00  0.00     0.003 A 
ATOM     27  C   UNL d   1     -58.629 -99.048 -43.803  0.00  0.00     0.000 A 
ATOM     28  C   UNL d   1     -57.857 -98.755 -44.051  0.00  0.00     0.000 A 
ATOM     29  C   UNL d   1     -57.984-101.733 -44.952  0.00  0.00     0.042 A 
ATOM     30  C   UNL d   1     -57.209-101.443 -45.203  0.00  0.00     0.197 A 
ATOM     31  O   UNL d   1     -56.665-101.963 -45.611  0.00  0.00    -0.286 OA
ENDBRANCH  20  21
ENDBRANCH  19  20
ENDBRANCH   2  19
TORSDOF 5
ENDMDL
