MODEL 1
REMARK VINA RESULT:      -2.7      0.000      0.000
REMARK  4 active torsions:
REMARK  status: ('A' for Active; 'I' for Inactive)
REMARK    1  A    between atoms: C_7  and  C_1 
REMARK    2  A    between atoms: N_5  and  C_2 
REMARK    3  A    between atoms: C_12  and  N_5 
REMARK    4  A    between atoms: O_21  and  C_14 
ROOT
ATOM      1  C   UNL d   1      32.181  16.177 -24.244  0.00  0.00     0.101 A 
ATOM      2  C   UNL d   1      32.255  17.010 -24.211  0.00  0.00     0.187 A 
ATOM      3  C   UNL d   1      31.433  15.843 -24.341  0.00  0.00     0.010 A 
ATOM      4  O   UNL d   1      31.579  17.482 -24.278  0.00  0.00    -0.289 OA
ATOM      5  C   UNL d   1      30.834  17.142 -24.375  0.00  0.00     0.104 A 
ATOM      6  C   UNL d   1      30.759  16.309 -24.407  0.00  0.00     0.023 A 
ATOM      7  C   UNL d   1      30.157  17.615 -24.441  0.00  0.00     0.049 A 
ATOM      8  C   UNL d   1      30.012  15.976 -24.505  0.00  0.00     0.004 A 
ATOM      9  C   UNL d   1      29.409  17.276 -24.539  0.00  0.00     0.096 A 
ATOM     10  C   UNL d   1      29.335  16.443 -24.571  0.00  0.00     0.024 A 
ENDROOT
BRANCH   2  11
ATOM     11  N   UNL d   1      32.997  17.350 -24.114  0.00  0.00    -0.222 NA
BRANCH  11  12
ATOM     12  C   UNL d   1      33.060  18.151 -23.881  0.00  0.00     0.084 A 
ATOM     13  C   UNL d   1      33.177  18.737 -24.448  0.00  0.00     0.019 A 
ATOM     14  C   UNL d   1      33.239  19.529 -24.217  0.00  0.00     0.002 A 
ATOM     15  C   UNL d   1      33.182  19.718 -23.424  0.00  0.00     0.000 A 
ATOM     16  C   UNL d   1      33.066  19.146 -22.856  0.00  0.00     0.002 A 
ATOM     17  C   UNL d   1      33.241  20.503 -23.177  0.00  0.00     0.000 C 
ATOM     18  C   UNL d   1      33.004  18.353 -23.087  0.00  0.00     0.019 A 
ENDBRANCH  11  12
ENDBRANCH   2  11
BRANCH   1  19
ATOM     19  C   UNL d   1      32.850  15.693 -24.179  0.00  0.00     0.300 C 
ATOM     20  O   UNL d   1      33.120  15.454 -23.443  0.00  0.00    -0.264 OA
ATOM     21  N   UNL d   1      33.240  15.455 -24.867  0.00  0.00    -0.102 N 
ENDBRANCH   1  19
BRANCH   9  22
ATOM     22  O   UNL d   1      28.742  17.738 -24.605  0.00  0.00    -0.328 OA
ATOM     23  C   UNL d   1      28.341  17.969 -23.921  0.00  0.00     0.181 C 
ENDBRANCH   9  22
TORSDOF 4
ENDMDL
MODEL 2
REMARK VINA RESULT:       0.0      1.166      3.673
REMARK  4 active torsions:
REMARK  status: ('A' for Active; 'I' for Inactive)
REMARK    1  A    between atoms: C_7  and  C_1 
REMARK    2  A    between atoms: N_5  and  C_2 
REMARK    3  A    between atoms: C_12  and  N_5 
REMARK    4  A    between atoms: O_21  and  C_14 
ROOT
ATOM      1  C   UNL d   1      32.339  16.752 -23.327  0.00  0.00     0.101 A 
ATOM      2  C   UNL d   1      31.766  17.127 -23.807  0.00  0.00     0.187 A 
ATOM      3  C   UNL d   1      32.823  17.213 -22.844  0.00  0.00     0.010 A 
ATOM      4  O   UNL d   1      31.695  17.951 -23.790  0.00  0.00    -0.289 OA
ATOM      5  C   UNL d   1      32.183  18.407 -23.305  0.00  0.00     0.104 A 
ATOM      6  C   UNL d   1      32.756  18.032 -22.824  0.00  0.00     0.023 A 
ATOM      7  C   UNL d   1      32.113  19.231 -23.288  0.00  0.00     0.049 A 
ATOM      8  C   UNL d   1      33.241  18.493 -22.342  0.00  0.00     0.004 A 
ATOM      9  C   UNL d   1      32.601  19.690 -22.802  0.00  0.00     0.096 A 
ATOM     10  C   UNL d   1      33.174  19.314 -22.321  0.00  0.00     0.024 A 
ENDROOT
BRANCH   2  11
ATOM     11  N   UNL d   1      31.279  16.674 -24.291  0.00  0.00    -0.222 NA
BRANCH  11  12
ATOM     12  C   UNL d   1      30.465  16.860 -24.352  0.00  0.00     0.084 A 
ATOM     13  C   UNL d   1      29.956  16.686 -23.729  0.00  0.00     0.019 A 
ATOM     14  C   UNL d   1      29.151  16.870 -23.790  0.00  0.00     0.002 A 
ATOM     15  C   UNL d   1      28.874  17.224 -24.472  0.00  0.00     0.000 A 
ATOM     16  C   UNL d   1      29.370  17.400 -25.094  0.00  0.00     0.002 A 
ATOM     17  C   UNL d   1      28.074  17.414 -24.549  0.00  0.00     0.000 C 
ATOM     18  C   UNL d   1      30.175  17.216 -25.033  0.00  0.00     0.019 A 
ENDBRANCH  11  12
ENDBRANCH   2  11
BRANCH   1  19
ATOM     19  C   UNL d   1      32.419  15.927 -23.335  0.00  0.00     0.300 C 
ATOM     20  O   UNL d   1      32.194  15.481 -22.686  0.00  0.00    -0.264 OA
ATOM     21  N   UNL d   1      32.729  15.562 -24.008  0.00  0.00    -0.102 N 
ENDBRANCH   1  19
BRANCH   9  22
ATOM     22  O   UNL d   1      32.534  20.501 -22.783  0.00  0.00    -0.328 OA
ATOM     23  C   UNL d   1      33.174  20.965 -23.019  0.00  0.00     0.181 C 
ENDBRANCH   9  22
TORSDOF 4
ENDMDL
