MODEL 1
REMARK VINA RESULT:       8.2      0.000      0.000
REMARK  7 active torsions:
REMARK  status: ('A' for Active; 'I' for Inactive)
REMARK    1  A    between atoms: C_6  and  N_1 
REMARK    2  A    between atoms: C_7  and  C_2 
REMARK    3  A    between atoms: C_11  and  C_6 
REMARK    4  A    between atoms: N_8  and  C_12 
REMARK    5  A    between atoms: C_9  and  N_8 
REMARK    6  A    between atoms: C_17  and  C_9 
REMARK    7  A    between atoms: C_12  and  C_11 
ROOT
ATOM      1  N   UNL d   1      46.447 -18.030  43.569  0.00  0.00    -0.301 N 
ATOM      2  C   UNL d   1      46.554 -19.321  43.887  0.00  0.00     0.061 A 
ATOM      3  C   UNL d   1      46.476 -18.566  44.200  0.00  0.00     0.084 A 
ATOM      4  C   UNL d   1      46.508 -18.466  42.865  0.00  0.00     0.064 A 
ATOM      5  C   UNL d   1      46.574 -19.269  43.064  0.00  0.00     0.021 A 
ATOM      6  C   UNL d   1      46.511 -18.237  42.071  0.00  0.00     0.018 A 
ATOM      7  C   UNL d   1      46.643 -19.833  42.475  0.00  0.00     0.002 A 
ATOM      8  C   UNL d   1      46.647 -19.606  41.685  0.00  0.00     0.000 A 
ATOM      9  C   UNL d   1      46.581 -18.812  41.488  0.00  0.00     0.002 A 
ENDROOT
BRANCH   1  10
ATOM     10  C   UNL d   1      46.371 -17.211  43.623  0.00  0.00     0.124 C 
BRANCH  10  11
ATOM     11  C   UNL d   1      45.830 -16.882  44.151  0.00  0.00     0.232 C 
ATOM     12  O   UNL d   1      45.160 -17.319  44.380  0.00  0.00    -0.283 OA
BRANCH  11  13
ATOM     13  C   UNL d   1      45.947 -16.117  44.455  0.00  0.00     0.137 C 
BRANCH  13  14
ATOM     14  N   UNL d   1      45.344 -15.559  44.423  0.00  0.00    -0.262 NA
BRANCH  14  15
ATOM     15  C   UNL d   1      45.520 -14.757  44.456  0.00  0.00     0.143 C 
ATOM     16  C   UNL d   1      45.066 -14.248  44.921  0.00  0.00     0.032 C 
ATOM     17  C   UNL d   1      44.863 -14.844  44.953  0.00  0.00     0.032 C 
BRANCH  15  18
ATOM     18  C   UNL d   1      46.159 -14.454  44.019  0.00  0.00     0.229 C 
ATOM     19  O   UNL d   1      46.268 -13.637  43.962  0.00  0.00    -0.286 OA
ENDBRANCH  15  18
ENDBRANCH  14  15
ENDBRANCH  13  14
ENDBRANCH  11  13
ENDBRANCH  10  11
ENDBRANCH   1  10
BRANCH   2  20
ATOM     20  C   UNL d   1      46.598 -19.969  44.394  0.00  0.00     0.236 C 
ATOM     21  O   UNL d   1      46.006 -20.103  44.955  0.00  0.00    -0.283 OA
ENDBRANCH   2  20
TORSDOF 7
ENDMDL
