MODEL 1
REMARK VINA RESULT:      -2.7      0.000      0.000
REMARK  1 active torsions:
REMARK  status: ('A' for Active; 'I' for Inactive)
REMARK    1  A    between atoms: C_6  and  C_1 
ROOT
ATOM      1  C   UNL d   1      29.075  16.786 -24.297  0.00  0.00     0.168 A 
ATOM      2  C   UNL d   1      29.896  16.802 -24.227  0.00  0.00     0.045 A 
ATOM      3  N   UNL d   1      28.841  17.419 -24.771  0.00  0.00    -0.142 NA
ATOM      4  N   UNL d   1      29.522  17.831 -24.998  0.00  0.00    -0.148 NA
ATOM      5  C   UNL d   1      30.180  17.443 -24.655  0.00  0.00     0.105 A 
ATOM      6  C   UNL d   1      30.430  16.315 -23.827  0.00  0.00     0.003 A 
ATOM      7  C   UNL d   1      30.988  17.609 -24.694  0.00  0.00     0.021 A 
ATOM      8  C   UNL d   1      31.237  16.471 -23.858  0.00  0.00     0.000 A 
ATOM      9  C   UNL d   1      31.517  17.119 -24.293  0.00  0.00     0.002 A 
ATOM     10  C   UNL d   1      31.771  15.984 -23.458  0.00  0.00     0.000 C 
ENDROOT
BRANCH   1  11
ATOM     11  C   UNL d   1      28.574  16.232 -23.951  0.00  0.00     0.231 C 
ATOM     12  O   UNL d   1      28.395  15.527 -24.346  0.00  0.00    -0.643 OA
ATOM     13  O   UNL d   1      28.246  16.378 -23.206  0.00  0.00    -0.643 OA
ENDBRANCH   1  11
TORSDOF 1
ENDMDL
MODEL 2
REMARK VINA RESULT:      -2.7      2.022      2.885
REMARK  1 active torsions:
REMARK  status: ('A' for Active; 'I' for Inactive)
REMARK    1  A    between atoms: C_6  and  C_1 
ROOT
ATOM      1  C   UNL d   1      31.066  16.196 -23.635  0.00  0.00     0.168 A 
ATOM      2  C   UNL d   1      30.335  16.470 -23.898  0.00  0.00     0.045 A 
ATOM      3  N   UNL d   1      30.938  15.569 -23.115  0.00  0.00    -0.142 NA
ATOM      4  N   UNL d   1      30.120  15.453 -23.055  0.00  0.00    -0.148 NA
ATOM      5  C   UNL d   1      29.746  16.018 -23.546  0.00  0.00     0.105 A 
ATOM      6  C   UNL d   1      30.122  17.077 -24.417  0.00  0.00     0.003 A 
ATOM      7  C   UNL d   1      28.947  16.158 -23.700  0.00  0.00     0.021 A 
ATOM      8  C   UNL d   1      29.329  17.226 -24.578  0.00  0.00     0.000 A 
ATOM      9  C   UNL d   1      28.741  16.765 -24.219  0.00  0.00     0.002 A 
ATOM     10  C   UNL d   1      29.117  17.833 -25.097  0.00  0.00     0.000 C 
ENDROOT
BRANCH   1  11
ATOM     11  C   UNL d   1      31.800  16.497 -23.854  0.00  0.00     0.231 C 
ATOM     12  O   UNL d   1      32.149  17.107 -23.416  0.00  0.00    -0.643 OA
ATOM     13  O   UNL d   1      32.193  16.191 -24.514  0.00  0.00    -0.643 OA
ENDBRANCH   1  11
TORSDOF 1
ENDMDL
MODEL 3
REMARK VINA RESULT:      -2.7      1.239      1.754
REMARK  1 active torsions:
REMARK  status: ('A' for Active; 'I' for Inactive)
REMARK    1  A    between atoms: C_6  and  C_1 
ROOT
ATOM      1  C   UNL d   1      29.698  16.274 -23.949  0.00  0.00     0.168 A 
ATOM      2  C   UNL d   1      30.453  16.598 -24.002  0.00  0.00     0.045 A 
ATOM      3  N   UNL d   1      29.723  15.635 -23.428  0.00  0.00    -0.142 NA
ATOM      4  N   UNL d   1      30.502  15.563 -23.155  0.00  0.00    -0.148 NA
ATOM      5  C   UNL d   1      30.956  16.167 -23.516  0.00  0.00     0.105 A 
ATOM      6  C   UNL d   1      30.756  17.236 -24.432  0.00  0.00     0.003 A 
ATOM      7  C   UNL d   1      31.756  16.357 -23.449  0.00  0.00     0.021 A 
ATOM      8  C   UNL d   1      31.553  17.434 -24.372  0.00  0.00     0.000 A 
ATOM      9  C   UNL d   1      32.054  16.994 -23.880  0.00  0.00     0.002 A 
ATOM     10  C   UNL d   1      31.855  18.072 -24.802  0.00  0.00     0.000 C 
ENDROOT
BRANCH   1  11
ATOM     11  C   UNL d   1      29.030  16.542 -24.349  0.00  0.00     0.231 C 
ATOM     12  O   UNL d   1      28.538  17.113 -24.005  0.00  0.00    -0.643 OA
ATOM     13  O   UNL d   1      28.847  16.242 -25.097  0.00  0.00    -0.643 OA
ENDBRANCH   1  11
TORSDOF 1
ENDMDL
MODEL 4
REMARK VINA RESULT:      -2.6      6.429      7.012
REMARK  1 active torsions:
REMARK  status: ('A' for Active; 'I' for Inactive)
REMARK    1  A    between atoms: C_6  and  C_1 
ROOT
ATOM      1  C   UNL d   1      32.578  22.754 -20.952  0.00  0.00     0.168 A 
ATOM      2  C   UNL d   1      32.764  21.962 -21.081  0.00  0.00     0.045 A 
ATOM      3  N   UNL d   1      32.711  22.929 -20.158  0.00  0.00    -0.142 NA
ATOM      4  N   UNL d   1      32.982  22.239 -19.789  0.00  0.00    -0.148 NA
ATOM      5  C   UNL d   1      33.014  21.636 -20.370  0.00  0.00     0.105 A 
ATOM      6  C   UNL d   1      32.740  21.488 -21.757  0.00  0.00     0.003 A 
ATOM      7  C   UNL d   1      33.241  20.844 -20.317  0.00  0.00     0.021 A 
ATOM      8  C   UNL d   1      32.964  20.697 -21.716  0.00  0.00     0.000 A 
ATOM      9  C   UNL d   1      33.215  20.374 -20.995  0.00  0.00     0.002 A 
ATOM     10  C   UNL d   1      32.940  20.222 -22.392  0.00  0.00     0.000 C 
ENDROOT
BRANCH   1  11
ATOM     11  C   UNL d   1      32.305  23.283 -21.522  0.00  0.00     0.231 C 
ATOM     12  O   UNL d   1      31.494  23.426 -21.605  0.00  0.00    -0.643 OA
ATOM     13  O   UNL d   1      32.842  23.674 -22.014  0.00  0.00    -0.643 OA
ENDBRANCH   1  11
TORSDOF 1
ENDMDL
MODEL 5
REMARK VINA RESULT:      -2.6      2.271      3.023
REMARK  1 active torsions:
REMARK  status: ('A' for Active; 'I' for Inactive)
REMARK    1  A    between atoms: C_6  and  C_1 
ROOT
ATOM      1  C   UNL d   1      31.733  17.119 -23.915  0.00  0.00     0.168 A 
ATOM      2  C   UNL d   1      30.934  16.981 -24.064  0.00  0.00     0.045 A 
ATOM      3  N   UNL d   1      32.032  16.484 -23.482  0.00  0.00    -0.142 NA
ATOM      4  N   UNL d   1      31.413  15.947 -23.362  0.00  0.00    -0.148 NA
ATOM      5  C   UNL d   1      30.728  16.261 -23.728  0.00  0.00     0.105 A 
ATOM      6  C   UNL d   1      30.360  17.418 -24.466  0.00  0.00     0.003 A 
ATOM      7  C   UNL d   1      29.959  15.965 -23.782  0.00  0.00     0.021 A 
ATOM      8  C   UNL d   1      29.590  17.134 -24.527  0.00  0.00     0.000 A 
ATOM      9  C   UNL d   1      29.389  16.406 -24.184  0.00  0.00     0.002 A 
ATOM     10  C   UNL d   1      29.015  17.571 -24.928  0.00  0.00     0.000 C 
ENDROOT
BRANCH   1  11
ATOM     11  C   UNL d   1      32.160  17.780 -24.157  0.00  0.00     0.231 C 
ATOM     12  O   UNL d   1      32.512  17.799 -24.906  0.00  0.00    -0.643 OA
ATOM     13  O   UNL d   1      32.239  18.430 -23.651  0.00  0.00    -0.643 OA
ENDBRANCH   1  11
TORSDOF 1
ENDMDL
MODEL 6
REMARK VINA RESULT:      -2.3      2.491      3.079
REMARK  1 active torsions:
REMARK  status: ('A' for Active; 'I' for Inactive)
REMARK    1  A    between atoms: C_6  and  C_1 
ROOT
ATOM      1  C   UNL d   1      32.070  17.198 -24.058  0.00  0.00     0.168 A 
ATOM      2  C   UNL d   1      32.450  17.867 -23.765  0.00  0.00     0.045 A 
ATOM      3  N   UNL d   1      32.019  17.265 -24.879  0.00  0.00    -0.142 NA
ATOM      4  N   UNL d   1      32.371  17.982 -25.096  0.00  0.00    -0.148 NA
ATOM      5  C   UNL d   1      32.640  18.356 -24.396  0.00  0.00     0.105 A 
ATOM      6  C   UNL d   1      32.652  18.100 -22.998  0.00  0.00     0.003 A 
ATOM      7  C   UNL d   1      33.028  19.076 -24.281  0.00  0.00     0.021 A 
ATOM      8  C   UNL d   1      33.039  18.815 -22.871  0.00  0.00     0.000 A 
ATOM      9  C   UNL d   1      33.227  19.304 -23.514  0.00  0.00     0.002 A 
ATOM     10  C   UNL d   1      33.241  19.048 -22.104  0.00  0.00     0.000 C 
ENDROOT
BRANCH   1  11
ATOM     11  C   UNL d   1      31.788  16.567 -23.609  0.00  0.00     0.231 C 
ATOM     12  O   UNL d   1      32.264  15.903 -23.475  0.00  0.00    -0.643 OA
ATOM     13  O   UNL d   1      31.027  16.596 -23.288  0.00  0.00    -0.643 OA
ENDBRANCH   1  11
TORSDOF 1
ENDMDL
MODEL 7
REMARK VINA RESULT:      -2.3      6.730      7.244
REMARK  1 active torsions:
REMARK  status: ('A' for Active; 'I' for Inactive)
REMARK    1  A    between atoms: C_6  and  C_1 
ROOT
ATOM      1  C   UNL d   1      32.837  21.648 -21.463  0.00  0.00     0.168 A 
ATOM      2  C   UNL d   1      32.915  22.265 -20.923  0.00  0.00     0.045 A 
ATOM      3  N   UNL d   1      32.994  21.940 -22.218  0.00  0.00    -0.142 NA
ATOM      4  N   UNL d   1      33.170  22.746 -22.145  0.00  0.00    -0.148 NA
ATOM      5  C   UNL d   1      33.120  22.946 -21.333  0.00  0.00     0.105 A 
ATOM      6  C   UNL d   1      32.826  22.300 -20.102  0.00  0.00     0.003 A 
ATOM      7  C   UNL d   1      33.239  23.664 -20.943  0.00  0.00     0.021 A 
ATOM      8  C   UNL d   1      32.942  23.010 -19.702  0.00  0.00     0.000 A 
ATOM      9  C   UNL d   1      33.149  23.693 -20.124  0.00  0.00     0.002 A 
ATOM     10  C   UNL d   1      32.853  23.045 -18.881  0.00  0.00     0.000 C 
ENDROOT
BRANCH   1  11
ATOM     11  C   UNL d   1      32.637  20.870 -21.280  0.00  0.00     0.231 C 
ATOM     12  O   UNL d   1      31.848  20.623 -21.313  0.00  0.00    -0.643 OA
ATOM     13  O   UNL d   1      33.226  20.332 -21.063  0.00  0.00    -0.643 OA
ENDBRANCH   1  11
TORSDOF 1
ENDMDL
MODEL 8
REMARK VINA RESULT:      -2.1      5.258      5.870
REMARK  1 active torsions:
REMARK  status: ('A' for Active; 'I' for Inactive)
REMARK    1  A    between atoms: C_6  and  C_1 
ROOT
ATOM      1  C   UNL d   1      32.753  21.666 -21.534  0.00  0.00     0.168 A 
ATOM      2  C   UNL d   1      32.897  21.032 -22.040  0.00  0.00     0.045 A 
ATOM      3  N   UNL d   1      32.836  22.366 -21.961  0.00  0.00    -0.142 NA
ATOM      4  N   UNL d   1      33.033  22.165 -22.740  0.00  0.00    -0.148 NA
ATOM      5  C   UNL d   1      33.070  21.329 -22.786  0.00  0.00     0.105 A 
ATOM      6  C   UNL d   1      32.893  20.214 -21.922  0.00  0.00     0.003 A 
ATOM      7  C   UNL d   1      33.241  20.828 -23.419  0.00  0.00     0.021 A 
ATOM      8  C   UNL d   1      33.062  19.705 -22.546  0.00  0.00     0.000 A 
ATOM      9  C   UNL d   1      33.236  20.012 -23.296  0.00  0.00     0.002 A 
ATOM     10  C   UNL d   1      33.059  18.887 -22.428  0.00  0.00     0.000 C 
ENDROOT
BRANCH   1  11
ATOM     11  C   UNL d   1      32.559  21.610 -20.735  0.00  0.00     0.231 C 
ATOM     12  O   UNL d   1      33.154  21.614 -20.160  0.00  0.00    -0.643 OA
ATOM     13  O   UNL d   1      31.768  21.549 -20.505  0.00  0.00    -0.643 OA
ENDBRANCH   1  11
TORSDOF 1
ENDMDL
