MODEL 1
REMARK VINA RESULT:      -2.0      0.000      0.000
REMARK  3 active torsions:
REMARK  status: ('A' for Active; 'I' for Inactive)
REMARK    1  A    between atoms: C_4  and  C_1 
REMARK    2  A    between atoms: N_2  and  C_3 
REMARK    3  A    between atoms: C_5  and  N_2 
ROOT
ATOM      1  C   UNL d   1      32.222  16.980 -23.969  0.00  0.00     0.082 A 
ATOM      2  C   UNL d   1      31.501  16.575 -23.858  0.00  0.00     0.087 A 
ATOM      3  C   UNL d   1      32.932  16.622 -23.762  0.00  0.00     0.008 A 
ATOM      4  C   UNL d   1      31.509  15.814 -23.538  0.00  0.00     0.019 A 
ATOM      5  C   UNL d   1      32.933  15.852 -23.439  0.00  0.00     0.000 A 
ATOM      6  C   UNL d   1      32.218  15.456 -23.331  0.00  0.00     0.002 A 
ENDROOT
BRANCH   2   7
ATOM      7  N   UNL d   1      30.792  16.933 -24.065  0.00  0.00    -0.245 NA
BRANCH   7   8
ATOM      8  C   UNL d   1      30.129  16.481 -24.283  0.00  0.00     0.081 A 
ATOM      9  C   UNL d   1      29.404  16.595 -23.926  0.00  0.00     0.018 A 
ATOM     10  C   UNL d   1      28.748  16.143 -24.146  0.00  0.00     0.002 A 
ATOM     11  C   UNL d   1      29.333  17.163 -23.347  0.00  0.00     0.002 C 
ATOM     12  C   UNL d   1      28.028  16.256 -23.792  0.00  0.00     0.000 C 
ATOM     13  C   UNL d   1      28.842  15.567 -24.740  0.00  0.00     0.000 A 
ATOM     14  C   UNL d   1      29.567  15.453 -25.097  0.00  0.00     0.002 A 
ATOM     15  C   UNL d   1      30.232  15.909 -24.876  0.00  0.00     0.019 A 
ENDBRANCH   7   8
ENDBRANCH   2   7
BRANCH   1  16
ATOM     16  C   UNL d   1      32.215  17.741 -24.289  0.00  0.00     0.212 C 
ATOM     17  O   UNL d   1      32.130  18.396 -23.802  0.00  0.00    -0.644 OA
ATOM     18  O   UNL d   1      32.291  17.853 -25.096  0.00  0.00    -0.644 OA
ENDBRANCH   1  16
TORSDOF 3
ENDMDL
MODEL 2
REMARK VINA RESULT:      -1.8      1.561      3.591
REMARK  3 active torsions:
REMARK  status: ('A' for Active; 'I' for Inactive)
REMARK    1  A    between atoms: C_4  and  C_1 
REMARK    2  A    between atoms: N_2  and  C_3 
REMARK    3  A    between atoms: C_5  and  N_2 
ROOT
ATOM      1  C   UNL d   1      30.581  16.496 -24.453  0.00  0.00     0.082 A 
ATOM      2  C   UNL d   1      30.915  17.261 -24.459  0.00  0.00     0.087 A 
ATOM      3  C   UNL d   1      29.790  16.390 -24.646  0.00  0.00     0.008 A 
ATOM      4  C   UNL d   1      30.443  17.907 -24.662  0.00  0.00     0.019 A 
ATOM      5  C   UNL d   1      29.318  17.046 -24.850  0.00  0.00     0.000 A 
ATOM      6  C   UNL d   1      29.652  17.800 -24.855  0.00  0.00     0.002 A 
ENDROOT
BRANCH   2   7
ATOM      7  N   UNL d   1      31.706  17.367 -24.266  0.00  0.00    -0.245 NA
BRANCH   7   8
ATOM      8  C   UNL d   1      32.064  18.115 -24.316  0.00  0.00     0.081 A 
ATOM      9  C   UNL d   1      32.452  18.441 -23.676  0.00  0.00     0.018 A 
ATOM     10  C   UNL d   1      32.807  19.186 -23.730  0.00  0.00     0.002 A 
ATOM     11  C   UNL d   1      32.487  18.023 -22.979  0.00  0.00     0.002 C 
ATOM     12  C   UNL d   1      33.192  19.510 -23.095  0.00  0.00     0.000 C 
ATOM     13  C   UNL d   1      32.760  19.598 -24.453  0.00  0.00     0.000 A 
ATOM     14  C   UNL d   1      32.372  19.272 -25.092  0.00  0.00     0.002 A 
ATOM     15  C   UNL d   1      32.013  18.519 -25.039  0.00  0.00     0.019 A 
ENDBRANCH   7   8
ENDBRANCH   2   7
BRANCH   1  16
ATOM     16  C   UNL d   1      31.054  15.850 -24.251  0.00  0.00     0.212 C 
ATOM     17  O   UNL d   1      31.053  15.557 -23.484  0.00  0.00    -0.644 OA
ATOM     18  O   UNL d   1      31.530  15.492 -24.811  0.00  0.00    -0.644 OA
ENDBRANCH   1  16
TORSDOF 3
ENDMDL
MODEL 3
REMARK VINA RESULT:      -1.2      1.707      2.934
REMARK  3 active torsions:
REMARK  status: ('A' for Active; 'I' for Inactive)
REMARK    1  A    between atoms: C_4  and  C_1 
REMARK    2  A    between atoms: N_2  and  C_3 
REMARK    3  A    between atoms: C_5  and  N_2 
ROOT
ATOM      1  C   UNL d   1      32.924  19.052 -23.448  0.00  0.00     0.082 A 
ATOM      2  C   UNL d   1      32.734  18.376 -23.898  0.00  0.00     0.087 A 
ATOM      3  C   UNL d   1      33.175  19.739 -23.821  0.00  0.00     0.008 A 
ATOM      4  C   UNL d   1      32.801  18.405 -24.720  0.00  0.00     0.019 A 
ATOM      5  C   UNL d   1      33.241  19.762 -24.653  0.00  0.00     0.000 A 
ATOM      6  C   UNL d   1      33.052  19.092 -25.094  0.00  0.00     0.002 A 
ENDROOT
BRANCH   2   7
ATOM      7  N   UNL d   1      32.483  17.689 -23.525  0.00  0.00    -0.245 NA
BRANCH   7   8
ATOM      8  C   UNL d   1      32.440  16.968 -23.935  0.00  0.00     0.081 A 
ATOM      9  C   UNL d   1      31.727  16.588 -24.049  0.00  0.00     0.018 A 
ATOM     10  C   UNL d   1      31.690  15.870 -24.457  0.00  0.00     0.002 A 
ATOM     11  C   UNL d   1      31.048  16.925 -23.754  0.00  0.00     0.002 C 
ATOM     12  C   UNL d   1      30.982  15.493 -24.570  0.00  0.00     0.000 C 
ATOM     13  C   UNL d   1      32.397  15.541 -24.751  0.00  0.00     0.000 A 
ATOM     14  C   UNL d   1      33.110  15.921 -24.637  0.00  0.00     0.002 A 
ATOM     15  C   UNL d   1      33.149  16.647 -24.224  0.00  0.00     0.019 A 
ENDBRANCH   7   8
ENDBRANCH   2   7
BRANCH   1  16
ATOM     16  C   UNL d   1      32.857  19.023 -22.626  0.00  0.00     0.212 C 
ATOM     17  O   UNL d   1      33.241  18.438 -22.197  0.00  0.00    -0.644 OA
ATOM     18  O   UNL d   1      32.406  19.576 -22.226  0.00  0.00    -0.644 OA
ENDBRANCH   1  16
TORSDOF 3
ENDMDL
MODEL 4
REMARK VINA RESULT:      -1.2      5.798      7.133
REMARK  3 active torsions:
REMARK  status: ('A' for Active; 'I' for Inactive)
REMARK    1  A    between atoms: C_4  and  C_1 
REMARK    2  A    between atoms: N_2  and  C_3 
REMARK    3  A    between atoms: C_5  and  N_2 
ROOT
ATOM      1  C   UNL d   1      32.477  22.113 -20.645  0.00  0.00     0.082 A 
ATOM      2  C   UNL d   1      32.853  22.501 -21.281  0.00  0.00     0.087 A 
ATOM      3  C   UNL d   1      32.322  22.519 -19.949  0.00  0.00     0.008 A 
ATOM      4  C   UNL d   1      33.067  23.294 -21.202  0.00  0.00     0.019 A 
ATOM      5  C   UNL d   1      32.540  23.320 -19.874  0.00  0.00     0.000 A 
ATOM      6  C   UNL d   1      32.912  23.700 -20.505  0.00  0.00     0.002 A 
ENDROOT
BRANCH   2   7
ATOM      7  N   UNL d   1      33.008  22.096 -21.978  0.00  0.00    -0.245 NA
BRANCH   7   8
ATOM      8  C   UNL d   1      33.010  22.486 -22.711  0.00  0.00     0.081 A 
ATOM      9  C   UNL d   1      33.125  22.076 -23.408  0.00  0.00     0.018 A 
ATOM     10  C   UNL d   1      33.126  22.468 -24.136  0.00  0.00     0.002 A 
ATOM     11  C   UNL d   1      33.241  21.271 -23.379  0.00  0.00     0.002 C 
ATOM     12  C   UNL d   1      33.240  22.062 -24.827  0.00  0.00     0.000 C 
ATOM     13  C   UNL d   1      33.005  23.293 -24.144  0.00  0.00     0.000 A 
ATOM     14  C   UNL d   1      32.890  23.702 -23.448  0.00  0.00     0.002 A 
ATOM     15  C   UNL d   1      32.889  23.307 -22.711  0.00  0.00     0.019 A 
ENDBRANCH   7   8
ENDBRANCH   2   7
BRANCH   1  16
ATOM     16  C   UNL d   1      32.263  21.320 -20.725  0.00  0.00     0.212 C 
ATOM     17  O   UNL d   1      32.813  20.725 -20.597  0.00  0.00    -0.644 OA
ATOM     18  O   UNL d   1      31.499  21.114 -20.933  0.00  0.00    -0.644 OA
ENDBRANCH   1  16
TORSDOF 3
ENDMDL
MODEL 5
REMARK VINA RESULT:      -0.7      3.086      4.785
REMARK  3 active torsions:
REMARK  status: ('A' for Active; 'I' for Inactive)
REMARK    1  A    between atoms: C_4  and  C_1 
REMARK    2  A    between atoms: N_2  and  C_3 
REMARK    3  A    between atoms: C_5  and  N_2 
ROOT
ATOM      1  C   UNL d   1      32.782  18.439 -23.761  0.00  0.00     0.082 A 
ATOM      2  C   UNL d   1      33.034  18.917 -23.124  0.00  0.00     0.087 A 
ATOM      3  C   UNL d   1      32.742  17.624 -23.673  0.00  0.00     0.008 A 
ATOM      4  C   UNL d   1      33.241  18.562 -22.409  0.00  0.00     0.019 A 
ATOM      5  C   UNL d   1      32.952  17.271 -22.947  0.00  0.00     0.000 A 
ATOM      6  C   UNL d   1      33.200  17.747 -22.321  0.00  0.00     0.002 A 
ENDROOT
BRANCH   2   7
ATOM      7  N   UNL d   1      33.075  19.732 -23.212  0.00  0.00    -0.245 NA
BRANCH   7   8
ATOM      8  C   UNL d   1      33.069  20.237 -22.551  0.00  0.00     0.081 A 
ATOM      9  C   UNL d   1      33.152  21.044 -22.636  0.00  0.00     0.018 A 
ATOM     10  C   UNL d   1      33.146  21.542 -21.976  0.00  0.00     0.002 A 
ATOM     11  C   UNL d   1      33.241  21.357 -23.382  0.00  0.00     0.002 C 
ATOM     12  C   UNL d   1      33.229  22.344 -22.060  0.00  0.00     0.000 C 
ATOM     13  C   UNL d   1      33.054  21.202 -21.221  0.00  0.00     0.000 A 
ATOM     14  C   UNL d   1      32.972  20.395 -21.137  0.00  0.00     0.002 A 
ATOM     15  C   UNL d   1      32.977  19.890 -21.803  0.00  0.00     0.019 A 
ENDBRANCH   7   8
ENDBRANCH   2   7
BRANCH   1  16
ATOM     16  C   UNL d   1      32.575  18.795 -24.476  0.00  0.00     0.212 C 
ATOM     17  O   UNL d   1      31.796  19.003 -24.628  0.00  0.00    -0.644 OA
ATOM     18  O   UNL d   1      33.143  18.945 -25.046  0.00  0.00    -0.644 OA
ENDBRANCH   1  16
TORSDOF 3
ENDMDL
MODEL 6
REMARK VINA RESULT:      -0.3      5.010      6.245
REMARK  3 active torsions:
REMARK  status: ('A' for Active; 'I' for Inactive)
REMARK    1  A    between atoms: C_4  and  C_1 
REMARK    2  A    between atoms: N_2  and  C_3 
REMARK    3  A    between atoms: C_5  and  N_2 
ROOT
ATOM      1  C   UNL d   1      32.780  21.118 -21.456  0.00  0.00     0.082 A 
ATOM      2  C   UNL d   1      33.069  21.206 -22.234  0.00  0.00     0.087 A 
ATOM      3  C   UNL d   1      32.668  20.368 -21.140  0.00  0.00     0.008 A 
ATOM      4  C   UNL d   1      33.241  20.534 -22.680  0.00  0.00     0.019 A 
ATOM      5  C   UNL d   1      32.843  19.692 -21.597  0.00  0.00     0.000 A 
ATOM      6  C   UNL d   1      33.129  19.784 -22.365  0.00  0.00     0.002 A 
ENDROOT
BRANCH   2   7
ATOM      7  N   UNL d   1      33.181  21.956 -22.549  0.00  0.00    -0.245 NA
BRANCH   7   8
ATOM      8  C   UNL d   1      33.139  22.088 -23.368  0.00  0.00     0.081 A 
ATOM      9  C   UNL d   1      33.003  22.834 -23.669  0.00  0.00     0.018 A 
ATOM     10  C   UNL d   1      32.962  22.961 -24.485  0.00  0.00     0.002 A 
ATOM     11  C   UNL d   1      32.907  23.457 -23.155  0.00  0.00     0.002 C 
ATOM     12  C   UNL d   1      32.828  23.702 -24.784  0.00  0.00     0.000 C 
ATOM     13  C   UNL d   1      33.063  22.311 -24.995  0.00  0.00     0.000 A 
ATOM     14  C   UNL d   1      33.199  21.564 -24.695  0.00  0.00     0.002 A 
ATOM     15  C   UNL d   1      33.241  21.434 -23.870  0.00  0.00     0.019 A 
ENDBRANCH   7   8
ENDBRANCH   2   7
BRANCH   1  16
ATOM     16  C   UNL d   1      32.608  21.790 -21.009  0.00  0.00     0.212 C 
ATOM     17  O   UNL d   1      31.839  22.075 -20.963  0.00  0.00    -0.644 OA
ATOM     18  O   UNL d   1      33.201  22.183 -20.605  0.00  0.00    -0.644 OA
ENDBRANCH   1  16
TORSDOF 3
ENDMDL
MODEL 7
REMARK VINA RESULT:       0.3      5.211      6.563
REMARK  3 active torsions:
REMARK  status: ('A' for Active; 'I' for Inactive)
REMARK    1  A    between atoms: C_4  and  C_1 
REMARK    2  A    between atoms: N_2  and  C_3 
REMARK    3  A    between atoms: C_5  and  N_2 
ROOT
ATOM      1  C   UNL d   1      32.454  22.637 -20.398  0.00  0.00     0.082 A 
ATOM      2  C   UNL d   1      32.943  21.981 -20.566  0.00  0.00     0.087 A 
ATOM      3  C   UNL d   1      32.261  22.818 -19.620  0.00  0.00     0.008 A 
ATOM      4  C   UNL d   1      33.229  21.520 -19.945  0.00  0.00     0.019 A 
ATOM      5  C   UNL d   1      32.553  22.347 -18.997  0.00  0.00     0.000 A 
ATOM      6  C   UNL d   1      33.036  21.701 -19.168  0.00  0.00     0.002 A 
ENDROOT
BRANCH   2   7
ATOM      7  N   UNL d   1      33.136  21.800 -21.343  0.00  0.00    -0.245 NA
BRANCH   7   8
ATOM      8  C   UNL d   1      33.171  21.013 -21.605  0.00  0.00     0.081 A 
ATOM      9  C   UNL d   1      33.188  20.833 -22.401  0.00  0.00     0.018 A 
ATOM     10  C   UNL d   1      33.223  20.047 -22.658  0.00  0.00     0.002 A 
ATOM     11  C   UNL d   1      33.170  21.438 -22.944  0.00  0.00     0.002 C 
ATOM     12  C   UNL d   1      33.240  19.869 -23.447  0.00  0.00     0.000 C 
ATOM     13  C   UNL d   1      33.241  19.442 -22.086  0.00  0.00     0.000 A 
ATOM     14  C   UNL d   1      33.224  19.622 -21.290  0.00  0.00     0.002 A 
ATOM     15  C   UNL d   1      33.189  20.416 -21.029  0.00  0.00     0.019 A 
ENDBRANCH   7   8
ENDBRANCH   2   7
BRANCH   1  16
ATOM     16  C   UNL d   1      32.168  23.098 -21.019  0.00  0.00     0.212 C 
ATOM     17  O   UNL d   1      31.409  22.982 -21.310  0.00  0.00    -0.644 OA
ATOM     18  O   UNL d   1      32.636  23.680 -21.355  0.00  0.00    -0.644 OA
ENDBRANCH   1  16
TORSDOF 3
ENDMDL
MODEL 8
REMARK VINA RESULT:       0.9      7.018      8.125
REMARK  3 active torsions:
REMARK  status: ('A' for Active; 'I' for Inactive)
REMARK    1  A    between atoms: C_4  and  C_1 
REMARK    2  A    between atoms: N_2  and  C_3 
REMARK    3  A    between atoms: C_5  and  N_2 
ROOT
ATOM      1  C   UNL d   1      32.539  22.270 -20.946  0.00  0.00     0.082 A 
ATOM      2  C   UNL d   1      32.739  22.308 -20.136  0.00  0.00     0.087 A 
ATOM      3  C   UNL d   1      32.647  21.572 -21.364  0.00  0.00     0.008 A 
ATOM      4  C   UNL d   1      33.044  21.639 -19.763  0.00  0.00     0.019 A 
ATOM      5  C   UNL d   1      32.955  20.898 -20.981  0.00  0.00     0.000 A 
ATOM      6  C   UNL d   1      33.151  20.940 -20.181  0.00  0.00     0.002 A 
ENDROOT
BRANCH   2   7
ATOM      7  N   UNL d   1      32.632  23.007 -19.718  0.00  0.00    -0.245 NA
BRANCH   7   8
ATOM      8  C   UNL d   1      32.610  23.011 -18.887  0.00  0.00     0.081 A 
ATOM      9  C   UNL d   1      31.992  23.357 -18.483  0.00  0.00     0.018 A 
ATOM     10  C   UNL d   1      31.975  23.359 -17.656  0.00  0.00     0.002 A 
ATOM     11  C   UNL d   1      31.387  23.702 -18.904  0.00  0.00     0.002 C 
ATOM     12  C   UNL d   1      31.361  23.702 -17.254  0.00  0.00     0.000 C 
ATOM     13  C   UNL d   1      32.603  23.001 -17.244  0.00  0.00     0.000 A 
ATOM     14  C   UNL d   1      33.222  22.656 -17.648  0.00  0.00     0.002 A 
ATOM     15  C   UNL d   1      33.241  22.652 -18.484  0.00  0.00     0.019 A 
ENDBRANCH   7   8
ENDBRANCH   2   7
BRANCH   1  16
ATOM     16  C   UNL d   1      32.235  22.940 -21.320  0.00  0.00     0.212 C 
ATOM     17  O   UNL d   1      32.726  23.568 -21.516  0.00  0.00    -0.644 OA
ATOM     18  O   UNL d   1      31.438  22.989 -21.500  0.00  0.00    -0.644 OA
ENDBRANCH   1  16
TORSDOF 3
ENDMDL
