MODEL 1
REMARK VINA RESULT:      34.5      0.000      0.000
REMARK  2 active torsions:
REMARK  status: ('A' for Active; 'I' for Inactive)
REMARK       I    between atoms: C_7  and  N_1 
REMARK    1  A    between atoms: C_6  and  C_3 
REMARK    2  A    between atoms: C_8  and  C_4 
ROOT
ATOM      1  N   UNL d   1     -55.027-101.865 -36.722  0.00  0.00    -0.195 N 
ATOM      2  N   UNL d   1     -55.144-102.386 -37.334  0.00  0.00    -0.163 NA
ATOM      3  C   UNL d   1     -55.023-101.099 -37.028  0.00  0.00     0.091 A 
ATOM      4  C   UNL d   1     -55.214-101.941 -38.027  0.00  0.00     0.104 A 
ATOM      5  C   UNL d   1     -55.139-101.153 -37.832  0.00  0.00     0.040 A 
ATOM      6  C   UNL d   1     -54.924-102.066 -35.900  0.00  0.00     0.281 C 
ATOM      7  O   UNL d   1     -54.812-101.493 -35.350  0.00  0.00    -0.265 OA
ATOM      8  C   UNL d   1     -54.942-102.861 -35.686  0.00  0.00     0.068 C 
ENDROOT
BRANCH   3   9
ATOM      9  C   UNL d   1     -54.920-100.404 -36.588  0.00  0.00     0.057 A 
ATOM     10  C   UNL d   1     -54.822 -99.700 -36.968  0.00  0.00     0.197 A 
ATOM     11  O   UNL d   1     -54.824 -99.663 -37.777  0.00  0.00    -0.286 OA
ATOM     12  C   UNL d   1     -54.718 -99.000 -36.533  0.00  0.00     0.042 A 
ATOM     13  C   UNL d   1     -54.712 -99.016 -35.707  0.00  0.00     0.003 A 
ATOM     14  C   UNL d   1     -54.813 -99.742 -35.339  0.00  0.00     0.000 A 
ATOM     15  C   UNL d   1     -54.914-100.418 -35.764  0.00  0.00     0.005 A 
ENDBRANCH   3   9
BRANCH   4  16
ATOM     16  C   UNL d   1     -55.338-102.242 -38.785  0.00  0.00     0.039 A 
ATOM     17  C   UNL d   1     -54.712-102.577 -39.204  0.00  0.00     0.101 A 
ATOM     18  N   UNL d   1     -54.836-102.879 -39.962  0.00  0.00    -0.242 NA
ATOM     19  C   UNL d   1     -55.588-102.845 -40.300  0.00  0.00     0.099 A 
ATOM     20  C   UNL d   1     -56.215-102.510 -39.881  0.00  0.00     0.021 A 
ATOM     21  C   UNL d   1     -56.090-102.208 -39.122  0.00  0.00     0.005 A 
ENDBRANCH   4  16
TORSDOF 2
ENDMDL
