MODEL 1
REMARK VINA RESULT:      -8.7      0.000      0.000
REMARK  8 active torsions:
REMARK  status: ('A' for Active; 'I' for Inactive)
REMARK    1  A    between atoms: S_7  and  C_3 
REMARK    2  A    between atoms: C_8  and  C_4 
REMARK    3  A    between atoms: C_14  and  S_7 
REMARK    4  A    between atoms: C_17  and  C_8 
REMARK    5  A    between atoms: C_9  and  C_14 
REMARK       I    between atoms: N_12  and  C_9 
REMARK    6  A    between atoms: C_15  and  N_12 
REMARK    7  A    between atoms: O_22  and  C_16 
REMARK    8  A    between atoms: C_23  and  O_22 
ROOT
ATOM      1  N   UNL d   1      51.759  32.573  53.066  0.00  0.00    -0.149 N 
ATOM      2  C   UNL d   1      52.511  32.326  53.230  0.00  0.00     0.303 A 
ATOM      3  C   UNL d   1      51.575  33.377  53.048  0.00  0.00     0.220 A 
ATOM      4  C   UNL d   1      53.089  32.887  53.378  0.00  0.00     0.161 A 
ATOM      5  N   UNL d   1      52.928  33.684  53.365  0.00  0.00    -0.141 NA
ATOM      6  N   UNL d   1      52.176  33.931  53.201  0.00  0.00    -0.121 NA
ATOM      7  O   UNL d   1      52.693  31.514  53.247  0.00  0.00    -0.263 OA
ATOM      8  N   UNL d   1      51.143  32.024  52.909  0.00  0.00    -0.037 N 
ENDROOT
BRANCH   3   9
ATOM      9  S   UNL d   1      50.817  33.634  52.883  0.00  0.00    -0.041 SA
BRANCH   9  10
ATOM     10  C   UNL d   1      50.619  34.434  52.994  0.00  0.00     0.101 C 
BRANCH  10  11
ATOM     11  C   UNL d   1      49.882  34.698  52.762  0.00  0.00     0.286 C 
ATOM     12  N   UNL d   1      49.512  35.298  53.190  0.00  0.00    -0.208 NA
ATOM     13  O   UNL d   1      49.477  34.392  52.110  0.00  0.00    -0.265 OA
BRANCH  12  14
ATOM     14  C   UNL d   1      48.775  35.573  52.970  0.00  0.00     0.085 A 
ATOM     15  C   UNL d   1      48.521  35.556  52.178  0.00  0.00     0.021 A 
ATOM     16  C   UNL d   1      47.772  35.838  51.971  0.00  0.00     0.026 A 
ATOM     17  C   UNL d   1      47.262  36.138  52.529  0.00  0.00     0.100 A 
ATOM     18  C   UNL d   1      47.516  36.155  53.322  0.00  0.00     0.026 A 
ATOM     19  C   UNL d   1      48.239  35.886  53.537  0.00  0.00     0.021 A 
BRANCH  17  20
ATOM     20  O   UNL d   1      46.540  36.408  52.315  0.00  0.00    -0.305 OA
BRANCH  20  21
ATOM     21  C   UNL d   1      45.883  35.907  52.267  0.00  0.00     0.123 C 
ATOM     22  C   UNL d   1      45.142  36.181  52.028  0.00  0.00     0.029 C 
ENDBRANCH  20  21
ENDBRANCH  17  20
ENDBRANCH  12  14
ENDBRANCH  10  11
ENDBRANCH   9  10
ENDBRANCH   3   9
BRANCH   4  23
ATOM     23  C   UNL d   1      53.872  32.630  53.549  0.00  0.00     0.026 C 
BRANCH  23  24
ATOM     24  C   UNL d   1      54.275  32.970  54.167  0.00  0.00     0.002 A 
ATOM     25  C   UNL d   1      54.080  32.816  54.948  0.00  0.00     0.000 A 
ATOM     26  C   UNL d   1      54.482  33.155  55.559  0.00  0.00     0.000 A 
ATOM     27  C   UNL d   1      55.117  33.681  55.395  0.00  0.00     0.000 A 
ATOM     28  C   UNL d   1      55.324  33.846  54.610  0.00  0.00     0.000 A 
ATOM     29  C   UNL d   1      54.910  33.496  54.003  0.00  0.00     0.000 A 
ENDBRANCH  23  24
ENDBRANCH   4  23
TORSDOF 8
ENDMDL
MODEL 2
REMARK VINA RESULT:      -8.6      1.284      2.096
REMARK  8 active torsions:
REMARK  status: ('A' for Active; 'I' for Inactive)
REMARK    1  A    between atoms: S_7  and  C_3 
REMARK    2  A    between atoms: C_8  and  C_4 
REMARK    3  A    between atoms: C_14  and  S_7 
REMARK    4  A    between atoms: C_17  and  C_8 
REMARK    5  A    between atoms: C_9  and  C_14 
REMARK       I    between atoms: N_12  and  C_9 
REMARK    6  A    between atoms: C_15  and  N_12 
REMARK    7  A    between atoms: O_22  and  C_16 
REMARK    8  A    between atoms: C_23  and  O_22 
ROOT
ATOM      1  N   UNL d   1      52.693  33.831  53.427  0.00  0.00    -0.149 N 
ATOM      2  C   UNL d   1      53.267  33.267  53.502  0.00  0.00     0.303 A 
ATOM      3  C   UNL d   1      51.972  33.652  53.070  0.00  0.00     0.220 A 
ATOM      4  C   UNL d   1      53.121  32.514  53.217  0.00  0.00     0.161 A 
ATOM      5  N   UNL d   1      52.417  32.317  52.862  0.00  0.00    -0.141 NA
ATOM      6  N   UNL d   1      51.843  32.880  52.787  0.00  0.00    -0.121 NA
ATOM      7  O   UNL d   1      53.994  33.452  53.863  0.00  0.00    -0.263 OA
ATOM      8  N   UNL d   1      52.810  34.614  53.709  0.00  0.00    -0.037 N 
ENDROOT
BRANCH   3   9
ATOM      9  S   UNL d   1      51.386  34.217  52.991  0.00  0.00    -0.041 SA
BRANCH   9  10
ATOM     10  C   UNL d   1      50.693  34.037  52.570  0.00  0.00     0.101 C 
BRANCH  10  11
ATOM     11  C   UNL d   1      50.056  34.547  52.613  0.00  0.00     0.286 C 
ATOM     12  N   UNL d   1      49.431  34.464  52.081  0.00  0.00    -0.208 NA
ATOM     13  O   UNL d   1      50.001  35.153  53.172  0.00  0.00    -0.265 OA
BRANCH  12  14
ATOM     14  C   UNL d   1      48.788  34.965  52.112  0.00  0.00     0.085 A 
ATOM     15  C   UNL d   1      48.590  35.380  52.807  0.00  0.00     0.021 A 
ATOM     16  C   UNL d   1      47.936  35.884  52.823  0.00  0.00     0.026 A 
ATOM     17  C   UNL d   1      47.467  35.993  52.167  0.00  0.00     0.100 A 
ATOM     18  C   UNL d   1      47.665  35.579  51.472  0.00  0.00     0.026 A 
ATOM     19  C   UNL d   1      48.296  35.087  51.442  0.00  0.00     0.021 A 
BRANCH  17  20
ATOM     20  O   UNL d   1      46.836  36.485  52.198  0.00  0.00    -0.305 OA
BRANCH  20  21
ATOM     21  C   UNL d   1      46.112  36.247  52.519  0.00  0.00     0.123 C 
ATOM     22  C   UNL d   1      45.431  36.708  52.446  0.00  0.00     0.029 C 
ENDBRANCH  20  21
ENDBRANCH  17  20
ENDBRANCH  12  14
ENDBRANCH  10  11
ENDBRANCH   9  10
ENDBRANCH   3   9
BRANCH   4  23
ATOM     23  C   UNL d   1      53.720  31.926  53.295  0.00  0.00     0.026 C 
BRANCH  23  24
ATOM     24  C   UNL d   1      53.501  31.152  53.412  0.00  0.00     0.002 A 
ATOM     25  C   UNL d   1      53.258  30.672  52.794  0.00  0.00     0.000 A 
ATOM     26  C   UNL d   1      53.043  29.904  52.915  0.00  0.00     0.000 A 
ATOM     27  C   UNL d   1      53.067  29.586  53.692  0.00  0.00     0.000 A 
ATOM     28  C   UNL d   1      53.311  30.060  54.326  0.00  0.00     0.000 A 
ATOM     29  C   UNL d   1      53.525  30.833  54.190  0.00  0.00     0.000 A 
ENDBRANCH  23  24
ENDBRANCH   4  23
TORSDOF 8
ENDMDL
MODEL 3
REMARK VINA RESULT:      -7.8      1.422      6.838
REMARK  8 active torsions:
REMARK  status: ('A' for Active; 'I' for Inactive)
REMARK    1  A    between atoms: S_7  and  C_3 
REMARK    2  A    between atoms: C_8  and  C_4 
REMARK    3  A    between atoms: C_14  and  S_7 
REMARK    4  A    between atoms: C_17  and  C_8 
REMARK    5  A    between atoms: C_9  and  C_14 
REMARK       I    between atoms: N_12  and  C_9 
REMARK    6  A    between atoms: C_15  and  N_12 
REMARK    7  A    between atoms: O_22  and  C_16 
REMARK    8  A    between atoms: C_23  and  O_22 
ROOT
ATOM      1  N   UNL d   1      47.882  35.173  51.379  0.00  0.00    -0.149 N 
ATOM      2  C   UNL d   1      47.152  35.518  51.423  0.00  0.00     0.303 A 
ATOM      3  C   UNL d   1      48.402  35.207  52.017  0.00  0.00     0.220 A 
ATOM      4  C   UNL d   1      46.937  35.902  52.114  0.00  0.00     0.161 A 
ATOM      5  N   UNL d   1      47.435  35.947  52.754  0.00  0.00    -0.141 NA
ATOM      6  N   UNL d   1      48.165  35.602  52.710  0.00  0.00    -0.121 NA
ATOM      7  O   UNL d   1      46.630  35.481  50.776  0.00  0.00    -0.263 OA
ATOM      8  N   UNL d   1      48.134  34.771  50.685  0.00  0.00    -0.037 N 
ENDROOT
BRANCH   3   9
ATOM      9  S   UNL d   1      49.142  34.861  51.980  0.00  0.00    -0.041 SA
BRANCH   9  10
ATOM     10  C   UNL d   1      49.563  34.710  52.681  0.00  0.00     0.101 C 
BRANCH  10  11
ATOM     11  C   UNL d   1      50.322  34.413  52.634  0.00  0.00     0.286 C 
ATOM     12  N   UNL d   1      50.697  34.144  53.317  0.00  0.00    -0.208 NA
ATOM     13  O   UNL d   1      50.745  34.366  51.925  0.00  0.00    -0.265 OA
BRANCH  12  14
ATOM     14  C   UNL d   1      51.456  33.844  53.286  0.00  0.00     0.085 A 
ATOM     15  C   UNL d   1      51.600  33.030  53.185  0.00  0.00     0.021 A 
ATOM     16  C   UNL d   1      52.374  32.742  53.155  0.00  0.00     0.026 A 
ATOM     17  C   UNL d   1      53.016  33.237  53.223  0.00  0.00     0.100 A 
ATOM     18  C   UNL d   1      52.871  34.051  53.324  0.00  0.00     0.026 A 
ATOM     19  C   UNL d   1      52.127  34.345  53.354  0.00  0.00     0.021 A 
BRANCH  17  20
ATOM     20  O   UNL d   1      53.759  32.944  53.192  0.00  0.00    -0.305 OA
BRANCH  20  21
ATOM     21  C   UNL d   1      54.273  32.986  53.839  0.00  0.00     0.123 C 
ATOM     22  C   UNL d   1      55.081  32.841  53.763  0.00  0.00     0.029 C 
ENDBRANCH  20  21
ENDBRANCH  17  20
ENDBRANCH  12  14
ENDBRANCH  10  11
ENDBRANCH   9  10
ENDBRANCH   3   9
BRANCH   4  23
ATOM     23  C   UNL d   1      46.177  36.261  52.159  0.00  0.00     0.026 C 
BRANCH  23  24
ATOM     24  C   UNL d   1      45.741  36.180  52.841  0.00  0.00     0.002 A 
ATOM     25  C   UNL d   1      45.807  36.709  53.463  0.00  0.00     0.000 A 
ATOM     26  C   UNL d   1      45.373  36.626  54.137  0.00  0.00     0.000 A 
ATOM     27  C   UNL d   1      44.839  35.980  54.207  0.00  0.00     0.000 A 
ATOM     28  C   UNL d   1      44.762  35.438  53.586  0.00  0.00     0.000 A 
ATOM     29  C   UNL d   1      45.207  35.535  52.911  0.00  0.00     0.000 A 
ENDBRANCH  23  24
ENDBRANCH   4  23
TORSDOF 8
ENDMDL
MODEL 4
REMARK VINA RESULT:      -6.4     10.808     11.835
REMARK  8 active torsions:
REMARK  status: ('A' for Active; 'I' for Inactive)
REMARK    1  A    between atoms: S_7  and  C_3 
REMARK    2  A    between atoms: C_8  and  C_4 
REMARK    3  A    between atoms: C_14  and  S_7 
REMARK    4  A    between atoms: C_17  and  C_8 
REMARK    5  A    between atoms: C_9  and  C_14 
REMARK       I    between atoms: N_12  and  C_9 
REMARK    6  A    between atoms: C_15  and  N_12 
REMARK    7  A    between atoms: O_22  and  C_16 
REMARK    8  A    between atoms: C_23  and  O_22 
ROOT
ATOM      1  N   UNL d   1      44.901  23.254  55.586  0.00  0.00    -0.149 N 
ATOM      2  C   UNL d   1      44.925  22.696  55.002  0.00  0.00     0.303 A 
ATOM      3  C   UNL d   1      44.760  24.046  55.406  0.00  0.00     0.220 A 
ATOM      4  C   UNL d   1      44.809  22.930  54.225  0.00  0.00     0.161 A 
ATOM      5  N   UNL d   1      44.669  23.706  54.027  0.00  0.00    -0.141 NA
ATOM      6  N   UNL d   1      44.644  24.264  54.611  0.00  0.00    -0.121 NA
ATOM      7  O   UNL d   1      45.068  21.897  55.188  0.00  0.00    -0.263 OA
ATOM      8  N   UNL d   1      45.017  23.047  56.392  0.00  0.00    -0.037 N 
ENDROOT
BRANCH   3   9
ATOM      9  S   UNL d   1      44.734  24.616  55.991  0.00  0.00    -0.041 SA
BRANCH   9  10
ATOM     10  C   UNL d   1      44.962  25.396  55.818  0.00  0.00     0.101 C 
BRANCH  10  11
ATOM     11  C   UNL d   1      44.893  25.969  56.397  0.00  0.00     0.286 C 
ATOM     12  N   UNL d   1      45.420  26.604  56.405  0.00  0.00    -0.208 NA
ATOM     13  O   UNL d   1      44.314  25.948  56.985  0.00  0.00    -0.265 OA
BRANCH  12  14
ATOM     14  C   UNL d   1      45.364  27.184  56.977  0.00  0.00     0.085 A 
ATOM     15  C   UNL d   1      45.610  27.050  57.761  0.00  0.00     0.021 A 
ATOM     16  C   UNL d   1      45.547  27.647  58.328  0.00  0.00     0.026 A 
ATOM     17  C   UNL d   1      45.245  28.380  58.143  0.00  0.00     0.100 A 
ATOM     18  C   UNL d   1      44.999  28.514  57.359  0.00  0.00     0.026 A 
ATOM     19  C   UNL d   1      45.054  27.944  56.798  0.00  0.00     0.021 A 
BRANCH  17  20
ATOM     20  O   UNL d   1      45.190  28.948  58.703  0.00  0.00    -0.305 OA
BRANCH  20  21
ATOM     21  C   UNL d   1      45.082  29.745  58.508  0.00  0.00     0.123 C 
ATOM     22  C   UNL d   1      45.110  30.341  59.078  0.00  0.00     0.029 C 
ENDBRANCH  20  21
ENDBRANCH  17  20
ENDBRANCH  12  14
ENDBRANCH  10  11
ENDBRANCH   9  10
ENDBRANCH   3   9
BRANCH   4  23
ATOM     23  C   UNL d   1      44.834  22.349  53.617  0.00  0.00     0.026 C 
BRANCH  23  24
ATOM     24  C   UNL d   1      45.113  22.557  52.882  0.00  0.00     0.002 A 
ATOM     25  C   UNL d   1      44.622  22.869  52.305  0.00  0.00     0.000 A 
ATOM     26  C   UNL d   1      44.902  23.075  51.578  0.00  0.00     0.000 A 
ATOM     27  C   UNL d   1      45.718  22.967  51.403  0.00  0.00     0.000 A 
ATOM     28  C   UNL d   1      46.225  22.652  51.977  0.00  0.00     0.000 A 
ATOM     29  C   UNL d   1      45.929  22.449  52.707  0.00  0.00     0.000 A 
ENDBRANCH  23  24
ENDBRANCH   4  23
TORSDOF 8
ENDMDL
