MODEL 1
REMARK VINA RESULT:      82.3      0.000      0.000
REMARK  5 active torsions:
REMARK  status: ('A' for Active; 'I' for Inactive)
REMARK    1  A    between atoms: N_5  and  S_1 
REMARK    2  A    between atoms: C_7  and  S_1 
REMARK       I    between atoms: C_4  and  N_2 
REMARK    3  A    between atoms: C_3  and  N_11 
REMARK    4  A    between atoms: C_6  and  C_4 
REMARK    5  A    between atoms: N_11  and  C_19 
ROOT
ATOM      1  C   UNL d   1      61.321  47.464  50.142  0.00  0.00     0.104 A 
ATOM      2  C   UNL d   1      60.758  47.899  49.700  0.00  0.00     0.014 A 
ATOM      3  C   UNL d   1      61.536  47.730  50.917  0.00  0.00     0.014 A 
ATOM      4  C   UNL d   1      60.636  48.841  50.795  0.00  0.00     0.084 A 
ATOM      5  C   UNL d   1      60.413  48.592  50.029  0.00  0.00     0.020 A 
ATOM      6  C   UNL d   1      61.198  48.409  51.239  0.00  0.00     0.020 A 
ENDROOT
BRANCH   4   7
ATOM      7  N   UNL d   1      60.294  49.529  51.122  0.00  0.00    -0.217 NA
BRANCH   7   8
ATOM      8  C   UNL d   1      60.283  49.623  51.893  0.00  0.00     0.224 C 
ATOM      9  N   UNL d   1      59.106  49.700  52.510  0.00  0.00    -0.178 NA
ATOM     10  C   UNL d   1      58.437  49.652  52.108  0.00  0.00     0.287 C 
ATOM     11  O   UNL d   1      57.739  49.698  52.476  0.00  0.00    -0.265 OA
ATOM     12  S   UNL d   1      60.955  49.672  52.312  0.00  0.00    -0.037 SA
BRANCH  10  13
ATOM     13  C   UNL d   1      58.464  49.556  51.318  0.00  0.00     0.087 A 
ATOM     14  S   UNL d   1      57.887  49.298  50.859  0.00  0.00    -0.082 SA
ATOM     15  C   UNL d   1      58.158  49.291  50.113  0.00  0.00     0.036 A 
ATOM     16  C   UNL d   1      58.881  49.539  50.122  0.00  0.00     0.008 A 
ATOM     17  C   UNL d   1      59.083  49.707  50.860  0.00  0.00     0.012 A 
ENDBRANCH  10  13
ENDBRANCH   7   8
ENDBRANCH   4   7
BRANCH   1  18
ATOM     18  S   UNL d   1      61.666  46.770  49.813  0.00  0.00     0.271 S 
ATOM     19  O   UNL d   1      60.987  46.346  49.995  0.00  0.00    -0.200 OA
ATOM     20  O   UNL d   1      62.363  47.205  49.626  0.00  0.00    -0.200 OA
BRANCH  18  21
ATOM     21  N   UNL d   1      62.003  46.093  49.492  0.00  0.00    -0.229 N 
ATOM     22  C   UNL d   1      61.507  45.412  49.315  0.00  0.00     0.092 A 
ATOM     23  C   UNL d   1      61.845  44.732  48.993  0.00  0.00     0.020 A 
ATOM     24  C   UNL d   1      62.687  44.719  48.840  0.00  0.00     0.003 A 
ATOM     25  C   UNL d   1      63.151  45.373  49.012  0.00  0.00     0.020 A 
ATOM     26  C   UNL d   1      62.808  46.062  49.339  0.00  0.00     0.092 A 
ENDBRANCH  18  21
ENDBRANCH   1  18
TORSDOF 5
ENDMDL
