MODEL 1
REMARK VINA RESULT:      49.2      0.000      0.000
REMARK  4 active torsions:
REMARK  status: ('A' for Active; 'I' for Inactive)
REMARK    1  A    between atoms: N_10  and  C_3 
REMARK    2  A    between atoms: C_11  and  C_5 
REMARK    3  A    between atoms: C_13  and  N_10 
REMARK    4  A    between atoms: C_15  and  C_13 
ROOT
ATOM      1  N   UNL d   1      13.708  13.741  -3.344  0.00  0.00    -0.195 N 
ATOM      2  C   UNL d   1      13.694  14.171  -4.065  0.00  0.00     0.167 A 
ATOM      3  C   UNL d   1      13.469  12.949  -3.336  0.00  0.00     0.167 A 
ATOM      4  N   UNL d   1      14.195  14.889  -2.668  0.00  0.00    -0.163 NA
ATOM      5  C   UNL d   1      13.927  14.944  -4.074  0.00  0.00     0.055 A 
ATOM      6  N   UNL d   1      13.440  13.794  -4.751  0.00  0.00    -0.227 NA
ATOM      7  C   UNL d   1      13.221  12.591  -4.021  0.00  0.00     0.054 A 
ATOM      8  C   UNL d   1      14.180  15.313  -3.377  0.00  0.00     0.104 A 
ATOM      9  C   UNL d   1      13.204  13.014  -4.746  0.00  0.00     0.086 A 
ATOM     10  C   UNL d   1      12.960  11.840  -4.184  0.00  0.00     0.005 A 
ATOM     11  C   UNL d   1      14.415  16.096  -3.395  0.00  0.00     0.023 C 
ATOM     12  C   UNL d   1      12.932  12.514  -5.335  0.00  0.00     0.019 A 
ATOM     13  C   UNL d   1      12.780  11.779  -4.979  0.00  0.00     0.002 A 
ENDROOT
BRANCH   3  14
ATOM     14  N   UNL d   1      13.482  12.511  -2.611  0.00  0.00    -0.224 NA
BRANCH  14  15
ATOM     15  C   UNL d   1      13.768  11.787  -2.280  0.00  0.00     0.120 C 
BRANCH  15  16
ATOM     16  C   UNL d   1      14.144  11.789  -1.535  0.00  0.00     0.101 A 
ATOM     17  N   UNL d   1      14.991  11.786  -1.490  0.00  0.00    -0.242 NA
ATOM     18  C   UNL d   1      15.373  11.788  -0.740  0.00  0.00     0.099 A 
ATOM     19  C   UNL d   1      14.910  11.791  -0.033  0.00  0.00     0.021 A 
ATOM     20  C   UNL d   1      14.064  11.793  -0.078  0.00  0.00     0.003 A 
ATOM     21  C   UNL d   1      13.686  11.792  -0.835  0.00  0.00     0.021 A 
ENDBRANCH  15  16
ENDBRANCH  14  15
ENDBRANCH   3  14
BRANCH   5  22
ATOM     22  C   UNL d   1      13.913  15.365  -4.779  0.00  0.00     0.004 A 
ATOM     23  C   UNL d   1      13.217  15.700  -5.045  0.00  0.00     0.000 A 
ATOM     24  C   UNL d   1      13.202  16.126  -5.758  0.00  0.00     0.000 A 
ATOM     25  C   UNL d   1      13.884  16.207  -6.190  0.00  0.00     0.000 A 
ATOM     26  C   UNL d   1      14.588  15.870  -5.924  0.00  0.00     0.000 A 
ATOM     27  C   UNL d   1      14.599  15.452  -5.222  0.00  0.00     0.000 A 
ENDBRANCH   5  22
TORSDOF 4
ENDMDL
MODEL 2
REMARK VINA RESULT:      51.8      1.739      3.535
REMARK  4 active torsions:
REMARK  status: ('A' for Active; 'I' for Inactive)
REMARK    1  A    between atoms: N_10  and  C_3 
REMARK    2  A    between atoms: C_11  and  C_5 
REMARK    3  A    between atoms: C_13  and  N_10 
REMARK    4  A    between atoms: C_15  and  C_13 
ROOT
ATOM      1  N   UNL d   1      13.962  14.043  -2.390  0.00  0.00    -0.195 N 
ATOM      2  C   UNL d   1      13.845  13.425  -2.946  0.00  0.00     0.167 A 
ATOM      3  C   UNL d   1      14.280  13.869  -1.646  0.00  0.00     0.167 A 
ATOM      4  N   UNL d   1      13.449  14.980  -3.324  0.00  0.00    -0.163 NA
ATOM      5  C   UNL d   1      13.535  13.594  -3.672  0.00  0.00     0.055 A 
ATOM      6  N   UNL d   1      14.049  12.656  -2.738  0.00  0.00    -0.227 NA
ATOM      7  C   UNL d   1      14.476  13.105  -1.456  0.00  0.00     0.054 A 
ATOM      8  C   UNL d   1      13.333  14.372  -3.871  0.00  0.00     0.104 A 
ATOM      9  C   UNL d   1      14.362  12.481  -2.006  0.00  0.00     0.086 A 
ATOM     10  C   UNL d   1      14.790  12.770  -0.787  0.00  0.00     0.005 A 
ATOM     11  C   UNL d   1      13.020  14.534  -4.608  0.00  0.00     0.023 C 
ATOM     12  C   UNL d   1      14.608  11.780  -1.661  0.00  0.00     0.019 A 
ATOM     13  C   UNL d   1      14.876  11.965  -0.897  0.00  0.00     0.002 A 
ENDROOT
BRANCH   3  14
ATOM     14  N   UNL d   1      14.400  14.490  -1.083  0.00  0.00    -0.224 NA
BRANCH  14  15
ATOM     15  C   UNL d   1      14.975  14.787  -0.539  0.00  0.00     0.120 C 
BRANCH  15  16
ATOM     16  C   UNL d   1      15.249  15.572  -0.610  0.00  0.00     0.101 A 
ATOM     17  N   UNL d   1      14.747  16.164  -0.953  0.00  0.00    -0.242 NA
ATOM     18  C   UNL d   1      15.021  16.958  -1.026  0.00  0.00     0.099 A 
ATOM     19  C   UNL d   1      15.795  17.161  -0.757  0.00  0.00     0.021 A 
ATOM     20  C   UNL d   1      16.296  16.570  -0.415  0.00  0.00     0.003 A 
ATOM     21  C   UNL d   1      16.015  15.774  -0.344  0.00  0.00     0.021 A 
ENDBRANCH  15  16
ENDBRANCH  14  15
ENDBRANCH   3  14
BRANCH   5  22
ATOM     22  C   UNL d   1      13.421  12.989  -4.215  0.00  0.00     0.004 A 
ATOM     23  C   UNL d   1      12.885  12.391  -4.061  0.00  0.00     0.000 A 
ATOM     24  C   UNL d   1      12.769  11.780  -4.612  0.00  0.00     0.000 A 
ATOM     25  C   UNL d   1      13.191  11.779  -5.304  0.00  0.00     0.000 A 
ATOM     26  C   UNL d   1      13.732  12.381  -5.464  0.00  0.00     0.000 A 
ATOM     27  C   UNL d   1      13.844  12.981  -4.919  0.00  0.00     0.000 A 
ENDBRANCH   5  22
TORSDOF 4
ENDMDL
