MODEL 1
REMARK VINA RESULT:      77.5      0.000      0.000
REMARK  3 active torsions:
REMARK  status: ('A' for Active; 'I' for Inactive)
REMARK    1  A    between atoms: C_10  and  N_1 
REMARK       I    between atoms: N_3  and  C_4 
REMARK    2  A    between atoms: C_4  and  C_10 
REMARK    3  A    between atoms: O_17  and  C_13 
ROOT
ATOM      1  N   UNL d   1      58.933  49.677  50.869  0.00  0.00    -0.268 N 
ATOM      2  C   UNL d   1      58.504  49.683  50.158  0.00  0.00     0.265 A 
ATOM      3  C   UNL d   1      57.679  49.690  50.176  0.00  0.00     0.059 A 
ATOM      4  C   UNL d   1      57.279  49.692  50.897  0.00  0.00     0.028 A 
ATOM      5  C   UNL d   1      57.696  49.687  51.611  0.00  0.00     0.021 A 
ATOM      6  C   UNL d   1      58.531  49.679  51.593  0.00  0.00     0.083 A 
ATOM      7  O   UNL d   1      58.904  49.681  49.437  0.00  0.00    -0.267 OA
ATOM      8  C   UNL d   1      56.456  49.699  50.912  0.00  0.00     0.094 A 
ATOM      9  C   UNL d   1      57.259  49.696  49.466  0.00  0.00     0.005 A 
ATOM     10  C   UNL d   1      56.436  49.703  49.481  0.00  0.00     0.002 A 
ATOM     11  C   UNL d   1      56.036  49.705  50.202  0.00  0.00     0.024 A 
ENDROOT
BRANCH   1  12
ATOM     12  C   UNL d   1      59.756  49.670  50.854  0.00  0.00     0.144 C 
BRANCH  12  13
ATOM     13  C   UNL d   1      60.162  48.950  50.866  0.00  0.00     0.283 C 
ATOM     14  N   UNL d   1      60.822  48.833  50.387  0.00  0.00    -0.272 N 
ATOM     15  C   UNL d   1      61.218  48.118  50.405  0.00  0.00     0.067 A 
ATOM     16  C   UNL d   1      61.080  49.448  49.887  0.00  0.00     0.083 A 
ATOM     17  C   UNL d   1      61.881  48.005  49.921  0.00  0.00     0.016 A 
ATOM     18  C   UNL d   1      60.962  47.519  50.895  0.00  0.00     0.018 A 
ATOM     19  C   UNL d   1      62.283  47.289  49.935  0.00  0.00     0.001 A 
ATOM     20  C   UNL d   1      62.146  48.611  49.421  0.00  0.00     0.003 A 
ATOM     21  C   UNL d   1      62.028  46.682  50.428  0.00  0.00     0.000 A 
ATOM     22  C   UNL d   1      61.362  46.796  50.914  0.00  0.00     0.002 A 
ATOM     23  C   UNL d   1      61.747  49.326  49.405  0.00  0.00     0.019 A 
ATOM     24  O   UNL d   1      59.901  48.343  51.365  0.00  0.00    -0.265 OA
ENDBRANCH  12  13
ENDBRANCH   1  12
BRANCH   8  25
ATOM     25  O   UNL d   1      56.052  49.701  51.630  0.00  0.00    -0.328 OA
ATOM     26  C   UNL d   1      56.052  49.031  52.104  0.00  0.00     0.181 C 
ENDBRANCH   8  25
TORSDOF 3
ENDMDL
