MODEL 1
REMARK VINA RESULT:      69.3      0.000      0.000
REMARK  5 active torsions:
REMARK  status: ('A' for Active; 'I' for Inactive)
REMARK    1  A    between atoms: N_2  and  S_1 
REMARK    2  A    between atoms: C_9  and  S_1 
REMARK    3  A    between atoms: C_4  and  N_11 
REMARK    4  A    between atoms: C_8  and  C_16 
REMARK       I    between atoms: N_10  and  C_8 
REMARK    5  A    between atoms: N_11  and  N_10 
ROOT
ATOM      1  C   UNL d   1      46.152 -18.849  41.532  0.00  0.00     0.104 A 
ATOM      2  C   UNL d   1      46.087 -19.075  39.904  0.00  0.00     0.059 A 
ATOM      3  C   UNL d   1      45.622 -18.408  41.078  0.00  0.00     0.013 A 
ATOM      4  C   UNL d   1      46.647 -19.402  41.171  0.00  0.00     0.013 A 
ATOM      5  C   UNL d   1      46.611 -19.512  40.354  0.00  0.00     0.006 A 
ATOM      6  C   UNL d   1      45.592 -18.523  40.265  0.00  0.00     0.006 A 
ENDROOT
BRANCH   2   7
ATOM      7  C   UNL d   1      46.057 -19.190  39.091  0.00  0.00     0.297 C 
ATOM      8  N   UNL d   1      45.736 -18.561  38.676  0.00  0.00    -0.104 NA
ATOM      9  O   UNL d   1      46.362 -19.930  38.860  0.00  0.00    -0.264 OA
BRANCH   8  10
ATOM     10  N   UNL d   1      45.481 -17.896  39.081  0.00  0.00    -0.118 NA
BRANCH  10  11
ATOM     11  C   UNL d   1      45.167 -17.246  38.667  0.00  0.00     0.215 A 
ATOM     12  N   UNL d   1      45.576 -16.762  38.147  0.00  0.00    -0.219 NA
ATOM     13  C   UNL d   1      45.066 -16.189  37.859  0.00  0.00     0.090 A 
ATOM     14  C   UNL d   1      45.164 -15.568  37.332  0.00  0.00     0.018 A 
ATOM     15  C   UNL d   1      44.324 -16.324  38.210  0.00  0.00     0.050 A 
ATOM     16  C   UNL d   1      44.526 -15.077  37.150  0.00  0.00     0.002 A 
ATOM     17  C   UNL d   1      45.905 -15.437  36.983  0.00  0.00     0.002 C 
ATOM     18  C   UNL d   1      43.794 -15.212  37.499  0.00  0.00     0.001 A 
ATOM     19  C   UNL d   1      43.680 -15.837  38.034  0.00  0.00     0.008 A 
ATOM     20  S   UNL d   1      44.392 -16.975  38.706  0.00  0.00    -0.045 SA
ENDBRANCH  10  11
ENDBRANCH   8  10
ENDBRANCH   2   7
BRANCH   1  21
ATOM     21  S   UNL d   1      46.194 -18.745  42.351  0.00  0.00     0.271 S 
ATOM     22  O   UNL d   1      46.482 -19.515  42.424  0.00  0.00    -0.200 OA
ATOM     23  O   UNL d   1      45.906 -17.977  42.280  0.00  0.00    -0.200 OA
BRANCH  21  24
ATOM     24  N   UNL d   1      46.239 -18.651  43.169  0.00  0.00    -0.229 N 
ATOM     25  C   UNL d   1      46.418 -19.299  43.633  0.00  0.00     0.092 A 
ATOM     26  C   UNL d   1      46.464 -19.205  44.451  0.00  0.00     0.018 A 
ATOM     27  C   UNL d   1      46.645 -19.849  44.955  0.00  0.00     0.002 C 
ATOM     28  C   UNL d   1      46.329 -18.462  44.790  0.00  0.00     0.003 A 
ATOM     29  C   UNL d   1      46.149 -17.816  44.311  0.00  0.00     0.018 A 
ATOM     30  C   UNL d   1      46.104 -17.911  43.493  0.00  0.00     0.092 A 
ATOM     31  C   UNL d   1      46.015 -17.072  44.665  0.00  0.00     0.002 C 
ENDBRANCH  21  24
ENDBRANCH   1  21
TORSDOF 5
ENDMDL
MODEL 2
REMARK VINA RESULT:      70.4      3.428      4.718
REMARK  5 active torsions:
REMARK  status: ('A' for Active; 'I' for Inactive)
REMARK    1  A    between atoms: N_2  and  S_1 
REMARK    2  A    between atoms: C_9  and  S_1 
REMARK    3  A    between atoms: C_4  and  N_11 
REMARK    4  A    between atoms: C_8  and  C_16 
REMARK       I    between atoms: N_10  and  C_8 
REMARK    5  A    between atoms: N_11  and  N_10 
ROOT
ATOM      1  C   UNL d   1      45.960 -15.858  43.836  0.00  0.00     0.104 A 
ATOM      2  C   UNL d   1      45.855 -14.238  44.100  0.00  0.00     0.059 A 
ATOM      3  C   UNL d   1      46.647 -15.419  43.967  0.00  0.00     0.013 A 
ATOM      4  C   UNL d   1      45.224 -15.486  43.837  0.00  0.00     0.013 A 
ATOM      5  C   UNL d   1      45.175 -14.673  43.969  0.00  0.00     0.006 A 
ATOM      6  C   UNL d   1      46.591 -14.610  44.099  0.00  0.00     0.006 A 
ENDROOT
BRANCH   2   7
ATOM      7  C   UNL d   1      45.799 -13.429  44.231  0.00  0.00     0.297 C 
ATOM      8  N   UNL d   1      45.367 -13.027  43.664  0.00  0.00    -0.104 NA
ATOM      9  O   UNL d   1      46.198 -13.188  44.921  0.00  0.00    -0.264 OA
BRANCH   8  10
ATOM     10  N   UNL d   1      45.038 -13.440  43.037  0.00  0.00    -0.118 NA
BRANCH  10  11
ATOM     11  C   UNL d   1      45.063 -13.126  42.267  0.00  0.00     0.215 A 
ATOM     12  N   UNL d   1      44.416 -12.915  41.810  0.00  0.00    -0.219 NA
ATOM     13  C   UNL d   1      44.680 -12.629  41.089  0.00  0.00     0.090 A 
ATOM     14  C   UNL d   1      44.292 -12.344  40.426  0.00  0.00     0.018 A 
ATOM     15  C   UNL d   1      45.511 -12.664  41.102  0.00  0.00     0.050 A 
ATOM     16  C   UNL d   1      44.725 -12.091  39.771  0.00  0.00     0.002 A 
ATOM     17  C   UNL d   1      43.463 -12.311  40.416  0.00  0.00     0.002 C 
ATOM     18  C   UNL d   1      45.547 -12.126  39.786  0.00  0.00     0.001 A 
ATOM     19  C   UNL d   1      45.954 -12.413  40.451  0.00  0.00     0.008 A 
ATOM     20  S   UNL d   1      45.741 -12.970  41.829  0.00  0.00    -0.045 SA
ENDBRANCH  10  11
ENDBRANCH   8  10
ENDBRANCH   2   7
BRANCH   1  21
ATOM     21  S   UNL d   1      46.000 -16.673  43.702  0.00  0.00     0.271 S 
ATOM     22  O   UNL d   1      45.680 -16.555  42.951  0.00  0.00    -0.200 OA
ATOM     23  O   UNL d   1      46.319 -16.793  44.451  0.00  0.00    -0.200 OA
BRANCH  21  24
ATOM     24  N   UNL d   1      46.036 -17.484  43.559  0.00  0.00    -0.229 N 
ATOM     25  C   UNL d   1      46.055 -17.750  42.786  0.00  0.00     0.092 A 
ATOM     26  C   UNL d   1      46.091 -18.562  42.644  0.00  0.00     0.018 A 
ATOM     27  C   UNL d   1      46.112 -18.866  41.864  0.00  0.00     0.002 C 
ATOM     28  C   UNL d   1      46.107 -19.093  43.277  0.00  0.00     0.003 A 
ATOM     29  C   UNL d   1      46.087 -18.812  44.053  0.00  0.00     0.018 A 
ATOM     30  C   UNL d   1      46.051 -18.000  44.195  0.00  0.00     0.092 A 
ATOM     31  C   UNL d   1      46.103 -19.359  44.684  0.00  0.00     0.002 C 
ENDBRANCH  21  24
ENDBRANCH   1  21
TORSDOF 5
ENDMDL
