MODEL 1
REMARK VINA RESULT:      50.8      0.000      0.000
REMARK  8 active torsions:
REMARK  status: ('A' for Active; 'I' for Inactive)
REMARK    1  A    between atoms: C_16  and  N_1 
REMARK    2  A    between atoms: S_7  and  C_2 
REMARK       I    between atoms: C_6  and  N_12 
REMARK    3  A    between atoms: C_9  and  C_6 
REMARK    4  A    between atoms: C_13  and  S_7 
REMARK    5  A    between atoms: C_8  and  C_13 
REMARK    6  A    between atoms: N_12  and  C_22 
REMARK    7  A    between atoms: C_22  and  C_16 
REMARK    8  A    between atoms: O_24  and  C_18 
ROOT
ATOM      1  N   UNL d   1     -50.550  25.728  33.431  0.00  0.00    -0.302 N 
ATOM      2  C   UNL d   1     -51.674  25.006  33.350  0.00  0.00     0.049 A 
ATOM      3  C   UNL d   1     -51.380  25.776  33.400  0.00  0.00     0.087 A 
ATOM      4  C   UNL d   1     -51.031  24.476  33.350  0.00  0.00     0.024 A 
ATOM      5  C   UNL d   1     -50.334  24.929  33.401  0.00  0.00     0.065 A 
ATOM      6  C   UNL d   1     -50.979  23.657  33.311  0.00  0.00     0.002 A 
ATOM      7  C   UNL d   1     -49.593  24.551  33.412  0.00  0.00     0.018 A 
ATOM      8  C   UNL d   1     -50.250  23.282  33.323  0.00  0.00     0.000 A 
ATOM      9  C   UNL d   1     -49.553  23.736  33.374  0.00  0.00     0.002 A 
ENDROOT
BRANCH   1  10
ATOM     10  C   UNL d   1     -50.032  26.369  33.484  0.00  0.00     0.101 C 
BRANCH  10  11
ATOM     11  C   UNL d   1     -50.114  26.919  34.093  0.00  0.00     0.121 C 
BRANCH  11  12
ATOM     12  N   UNL d   1     -49.563  27.527  34.181  0.00  0.00    -0.205 NA
ATOM     13  C   UNL d   1     -49.290  27.731  34.929  0.00  0.00     0.279 C 
ATOM     14  O   UNL d   1     -49.565  27.329  35.596  0.00  0.00    -0.265 OA
BRANCH  13  15
ATOM     15  C   UNL d   1     -48.739  28.339  35.017  0.00  0.00     0.058 A 
ATOM     16  C   UNL d   1     -48.617  28.884  34.394  0.00  0.00     0.007 A 
ATOM     17  C   UNL d   1     -48.067  29.492  34.480  0.00  0.00     0.024 A 
ATOM     18  C   UNL d   1     -47.640  29.552  35.190  0.00  0.00     0.094 A 
ATOM     19  C   UNL d   1     -47.762  29.014  35.802  0.00  0.00     0.024 A 
ATOM     20  C   UNL d   1     -48.308  28.414  35.712  0.00  0.00     0.007 A 
BRANCH  18  21
ATOM     21  O   UNL d   1     -47.078  30.166  35.290  0.00  0.00    -0.328 OA
ATOM     22  C   UNL d   1     -47.166  30.743  35.879  0.00  0.00     0.181 C 
ENDBRANCH  18  21
ENDBRANCH  13  15
ENDBRANCH  11  12
ENDBRANCH  10  11
ENDBRANCH   1  10
BRANCH   2  23
ATOM     23  S   UNL d   1     -52.469  24.789  33.307  0.00  0.00    -0.080 SA
BRANCH  23  24
ATOM     24  C   UNL d   1     -52.719  24.068  33.630  0.00  0.00     0.100 C 
BRANCH  24  25
ATOM     25  C   UNL d   1     -53.516  23.929  33.774  0.00  0.00     0.303 C 
ATOM     26  O   UNL d   1     -53.758  23.194  34.059  0.00  0.00    -0.263 OA
ATOM     27  N   UNL d   1     -54.073  24.520  33.633  0.00  0.00    -0.102 N 
ENDBRANCH  24  25
ENDBRANCH  23  24
ENDBRANCH   2  23
TORSDOF 8
ENDMDL
