MODEL 1
REMARK VINA RESULT:      -7.7      0.000      0.000
REMARK  2 active torsions:
REMARK  status: ('A' for Active; 'I' for Inactive)
REMARK    1  A    between atoms: C_6  and  C_3 
REMARK    2  A    between atoms: C_9  and  C_6 
ROOT
ATOM      1  N   UNL d   1      53.540  31.984  54.525  0.00  0.00    -0.225 NA
ATOM      2  N   UNL d   1      54.202  32.302  53.405  0.00  0.00    -0.225 NA
ATOM      3  C   UNL d   1      53.625  31.811  53.725  0.00  0.00     0.163 A 
ATOM      4  C   UNL d   1      54.056  32.574  54.701  0.00  0.00     0.101 A 
ATOM      5  C   UNL d   1      54.472  32.774  53.998  0.00  0.00     0.101 A 
ATOM      6  C   UNL d   1      54.220  32.969  55.393  0.00  0.00     0.021 A 
ATOM      7  C   UNL d   1      55.034  33.360  54.017  0.00  0.00     0.021 A 
ATOM      8  C   UNL d   1      54.795  33.572  55.422  0.00  0.00     0.002 A 
ATOM      9  C   UNL d   1      55.211  33.772  54.719  0.00  0.00     0.002 A 
ENDROOT
BRANCH   3  10
ATOM     10  C   UNL d   1      53.201  31.237  53.310  0.00  0.00     0.039 C 
BRANCH  10  11
ATOM     11  C   UNL d   1      53.357  30.440  53.420  0.00  0.00     0.003 C 
ATOM     12  C   UNL d   1      52.877  29.865  53.074  0.00  0.00     0.000 C 
ENDBRANCH  10  11
ENDBRANCH   3  10
TORSDOF 2
ENDMDL
MODEL 2
REMARK VINA RESULT:      -7.4      2.296      2.618
REMARK  2 active torsions:
REMARK  status: ('A' for Active; 'I' for Inactive)
REMARK    1  A    between atoms: C_6  and  C_3 
REMARK    2  A    between atoms: C_9  and  C_6 
ROOT
ATOM      1  N   UNL d   1      52.726  34.423  54.024  0.00  0.00    -0.225 NA
ATOM      2  N   UNL d   1      52.793  33.343  53.235  0.00  0.00    -0.225 NA
ATOM      3  C   UNL d   1      52.394  34.049  53.370  0.00  0.00     0.163 A 
ATOM      4  C   UNL d   1      53.323  33.956  54.293  0.00  0.00     0.101 A 
ATOM      5  C   UNL d   1      53.365  33.278  53.797  0.00  0.00     0.101 A 
ATOM      6  C   UNL d   1      53.843  34.035  54.913  0.00  0.00     0.021 A 
ATOM      7  C   UNL d   1      53.925  32.708  53.943  0.00  0.00     0.021 A 
ATOM      8  C   UNL d   1      54.420  33.456  55.071  0.00  0.00     0.002 A 
ATOM      9  C   UNL d   1      54.463  32.778  54.575  0.00  0.00     0.002 A 
ENDROOT
BRANCH   3  10
ATOM     10  C   UNL d   1      51.763  34.337  52.923  0.00  0.00     0.039 C 
BRANCH  10  11
ATOM     11  C   UNL d   1      51.019  33.997  52.982  0.00  0.00     0.003 C 
ATOM     12  C   UNL d   1      50.376  34.317  52.575  0.00  0.00     0.000 C 
ENDBRANCH  10  11
ENDBRANCH   3  10
TORSDOF 2
ENDMDL
MODEL 3
REMARK VINA RESULT:      -7.4      0.635      3.118
REMARK  2 active torsions:
REMARK  status: ('A' for Active; 'I' for Inactive)
REMARK    1  A    between atoms: C_6  and  C_3 
REMARK    2  A    between atoms: C_9  and  C_6 
ROOT
ATOM      1  N   UNL d   1      53.377  32.575  53.431  0.00  0.00    -0.225 NA
ATOM      2  N   UNL d   1      54.222  31.780  54.099  0.00  0.00    -0.225 NA
ATOM      3  C   UNL d   1      54.031  32.562  53.930  0.00  0.00     0.163 A 
ATOM      4  C   UNL d   1      53.163  31.813  53.291  0.00  0.00     0.101 A 
ATOM      5  C   UNL d   1      53.694  31.313  53.711  0.00  0.00     0.101 A 
ATOM      6  C   UNL d   1      52.567  31.484  52.847  0.00  0.00     0.021 A 
ATOM      7  C   UNL d   1      53.606  30.507  53.668  0.00  0.00     0.021 A 
ATOM      8  C   UNL d   1      52.469  30.658  52.796  0.00  0.00     0.002 A 
ATOM      9  C   UNL d   1      53.000  30.159  53.216  0.00  0.00     0.002 A 
ENDROOT
BRANCH   3  10
ATOM     10  C   UNL d   1      54.431  33.225  54.215  0.00  0.00     0.039 C 
BRANCH  10  11
ATOM     11  C   UNL d   1      54.632  33.285  55.008  0.00  0.00     0.003 C 
ATOM     12  C   UNL d   1      55.112  33.900  55.275  0.00  0.00     0.000 C 
ENDBRANCH  10  11
ENDBRANCH   3  10
TORSDOF 2
ENDMDL
MODEL 4
REMARK VINA RESULT:      -7.4      1.882      2.188
REMARK  2 active torsions:
REMARK  status: ('A' for Active; 'I' for Inactive)
REMARK    1  A    between atoms: C_6  and  C_3 
REMARK    2  A    between atoms: C_9  and  C_6 
ROOT
ATOM      1  N   UNL d   1      53.381  32.659  53.645  0.00  0.00    -0.225 NA
ATOM      2  N   UNL d   1      52.459  32.337  52.729  0.00  0.00    -0.225 NA
ATOM      3  C   UNL d   1      53.075  32.046  53.189  0.00  0.00     0.163 A 
ATOM      4  C   UNL d   1      52.961  33.323  53.472  0.00  0.00     0.101 A 
ATOM      5  C   UNL d   1      52.382  33.120  52.897  0.00  0.00     0.101 A 
ATOM      6  C   UNL d   1      53.008  34.087  53.745  0.00  0.00     0.021 A 
ATOM      7  C   UNL d   1      51.875  33.691  52.619  0.00  0.00     0.021 A 
ATOM      8  C   UNL d   1      52.493  34.679  53.466  0.00  0.00     0.002 A 
ATOM      9  C   UNL d   1      51.914  34.477  52.890  0.00  0.00     0.002 A 
ENDROOT
BRANCH   3  10
ATOM     10  C   UNL d   1      53.344  31.266  53.193  0.00  0.00     0.039 C 
BRANCH  10  11
ATOM     11  C   UNL d   1      52.815  30.640  53.157  0.00  0.00     0.003 C 
ATOM     12  C   UNL d   1      53.068  29.866  53.289  0.00  0.00     0.000 C 
ENDBRANCH  10  11
ENDBRANCH   3  10
TORSDOF 2
ENDMDL
MODEL 5
REMARK VINA RESULT:      -7.1      1.522      3.153
REMARK  2 active torsions:
REMARK  status: ('A' for Active; 'I' for Inactive)
REMARK    1  A    between atoms: C_6  and  C_3 
REMARK    2  A    between atoms: C_9  and  C_6 
ROOT
ATOM      1  N   UNL d   1      52.603  32.735  52.948  0.00  0.00    -0.225 NA
ATOM      2  N   UNL d   1      53.670  32.745  53.757  0.00  0.00    -0.225 NA
ATOM      3  C   UNL d   1      53.123  33.218  53.365  0.00  0.00     0.163 A 
ATOM      4  C   UNL d   1      52.822  31.973  53.079  0.00  0.00     0.101 A 
ATOM      5  C   UNL d   1      53.493  31.979  53.587  0.00  0.00     0.101 A 
ATOM      6  C   UNL d   1      52.521  31.264  52.818  0.00  0.00     0.021 A 
ATOM      7  C   UNL d   1      53.833  31.277  53.812  0.00  0.00     0.021 A 
ATOM      8  C   UNL d   1      52.863  30.539  53.043  0.00  0.00     0.002 A 
ATOM      9  C   UNL d   1      53.533  30.545  53.551  0.00  0.00     0.002 A 
ENDROOT
BRANCH   3  10
ATOM     10  C   UNL d   1      53.100  34.042  53.385  0.00  0.00     0.039 C 
BRANCH  10  11
ATOM     11  C   UNL d   1      52.912  34.439  54.078  0.00  0.00     0.003 C 
ATOM     12  C   UNL d   1      52.915  35.263  54.106  0.00  0.00     0.000 C 
ENDBRANCH  10  11
ENDBRANCH   3  10
TORSDOF 2
ENDMDL
MODEL 6
REMARK VINA RESULT:      -7.0      1.395      3.100
REMARK  2 active torsions:
REMARK  status: ('A' for Active; 'I' for Inactive)
REMARK    1  A    between atoms: C_6  and  C_3 
REMARK    2  A    between atoms: C_9  and  C_6 
ROOT
ATOM      1  N   UNL d   1      53.820  32.337  53.849  0.00  0.00    -0.225 NA
ATOM      2  N   UNL d   1      52.812  32.468  52.977  0.00  0.00    -0.225 NA
ATOM      3  C   UNL d   1      53.353  32.878  53.441  0.00  0.00     0.163 A 
ATOM      4  C   UNL d   1      53.573  31.600  53.644  0.00  0.00     0.101 A 
ATOM      5  C   UNL d   1      52.940  31.682  53.096  0.00  0.00     0.101 A 
ATOM      6  C   UNL d   1      53.820  30.858  53.866  0.00  0.00     0.021 A 
ATOM      7  C   UNL d   1      52.582  31.019  52.793  0.00  0.00     0.021 A 
ATOM      8  C   UNL d   1      53.460  30.172  53.561  0.00  0.00     0.002 A 
ATOM      9  C   UNL d   1      52.827  30.254  53.013  0.00  0.00     0.002 A 
ENDROOT
BRANCH   3  10
ATOM     10  C   UNL d   1      53.418  33.700  53.488  0.00  0.00     0.039 C 
BRANCH  10  11
ATOM     11  C   UNL d   1      52.789  34.155  53.751  0.00  0.00     0.003 C 
ATOM     12  C   UNL d   1      52.795  34.975  53.659  0.00  0.00     0.000 C 
ENDBRANCH  10  11
ENDBRANCH   3  10
TORSDOF 2
ENDMDL
MODEL 7
REMARK VINA RESULT:      -7.0      2.269      3.312
REMARK  2 active torsions:
REMARK  status: ('A' for Active; 'I' for Inactive)
REMARK    1  A    between atoms: C_6  and  C_3 
REMARK    2  A    between atoms: C_9  and  C_6 
ROOT
ATOM      1  N   UNL d   1      52.835  32.950  53.851  0.00  0.00    -0.225 NA
ATOM      2  N   UNL d   1      53.183  34.215  53.588  0.00  0.00    -0.225 NA
ATOM      3  C   UNL d   1      53.444  33.501  53.901  0.00  0.00     0.163 A 
ATOM      4  C   UNL d   1      52.204  33.315  53.511  0.00  0.00     0.101 A 
ATOM      5  C   UNL d   1      52.423  34.110  53.345  0.00  0.00     0.101 A 
ATOM      6  C   UNL d   1      51.458  33.054  53.321  0.00  0.00     0.021 A 
ATOM      7  C   UNL d   1      51.886  34.610  52.997  0.00  0.00     0.021 A 
ATOM      8  C   UNL d   1      50.900  33.560  52.964  0.00  0.00     0.002 A 
ATOM      9  C   UNL d   1      51.119  34.355  52.799  0.00  0.00     0.002 A 
ENDROOT
BRANCH   3  10
ATOM     10  C   UNL d   1      54.193  33.361  54.216  0.00  0.00     0.039 C 
BRANCH  10  11
ATOM     11  C   UNL d   1      54.385  33.613  54.972  0.00  0.00     0.003 C 
ATOM     12  C   UNL d   1      55.169  33.627  55.226  0.00  0.00     0.000 C 
ENDBRANCH  10  11
ENDBRANCH   3  10
TORSDOF 2
ENDMDL
MODEL 8
REMARK VINA RESULT:      -6.9      1.321      2.065
REMARK  2 active torsions:
REMARK  status: ('A' for Active; 'I' for Inactive)
REMARK    1  A    between atoms: C_6  and  C_3 
REMARK    2  A    between atoms: C_9  and  C_6 
ROOT
ATOM      1  N   UNL d   1      52.624  31.017  53.065  0.00  0.00    -0.225 NA
ATOM      2  N   UNL d   1      53.746  31.242  53.761  0.00  0.00    -0.225 NA
ATOM      3  C   UNL d   1      53.241  30.659  53.477  0.00  0.00     0.163 A 
ATOM      4  C   UNL d   1      52.744  31.812  53.092  0.00  0.00     0.101 A 
ATOM      5  C   UNL d   1      53.448  31.953  53.529  0.00  0.00     0.101 A 
ATOM      6  C   UNL d   1      52.325  32.439  52.788  0.00  0.00     0.021 A 
ATOM      7  C   UNL d   1      53.704  32.716  53.644  0.00  0.00     0.021 A 
ATOM      8  C   UNL d   1      52.579  33.224  52.901  0.00  0.00     0.002 A 
ATOM      9  C   UNL d   1      53.283  33.366  53.338  0.00  0.00     0.002 A 
ENDROOT
BRANCH   3  10
ATOM     10  C   UNL d   1      53.336  29.847  53.587  0.00  0.00     0.039 C 
BRANCH  10  11
ATOM     11  C   UNL d   1      53.254  29.513  54.331  0.00  0.00     0.003 C 
ATOM     12  C   UNL d   1      53.450  28.722  54.462  0.00  0.00     0.000 C 
ENDBRANCH  10  11
ENDBRANCH   3  10
TORSDOF 2
ENDMDL
