MODEL 1
REMARK VINA RESULT:      19.3      0.000      0.000
REMARK  4 active torsions:
REMARK  status: ('A' for Active; 'I' for Inactive)
REMARK       I    between atoms: C_2  and  N_1 
REMARK    1  A    between atoms: C_4  and  C_2 
REMARK    2  A    between atoms: S_8  and  C_3 
REMARK    3  A    between atoms: O_12  and  C_7 
REMARK    4  A    between atoms: C_15  and  O_12 
ROOT
ATOM      1  C   UNL d   1      13.707  12.504  -3.061  0.00  0.00     0.079 A 
ATOM      2  C   UNL d   1      13.522  13.221  -3.439  0.00  0.00     0.105 A 
ATOM      3  C   UNL d   1      13.425  11.789  -3.356  0.00  0.00     0.007 A 
ATOM      4  C   UNL d   1      13.050  13.203  -4.116  0.00  0.00     0.025 A 
ATOM      5  C   UNL d   1      12.955  11.779  -4.029  0.00  0.00     0.000 A 
ATOM      6  C   UNL d   1      12.770  12.481  -4.405  0.00  0.00     0.002 A 
ENDROOT
BRANCH   1   7
ATOM      7  C   UNL d   1      14.180  12.510  -2.383  0.00  0.00     0.268 C 
ATOM      8  N   UNL d   1      13.873  12.255  -1.663  0.00  0.00    -0.251 N 
ATOM      9  C   UNL d   1      14.275  12.229  -0.941  0.00  0.00     0.178 A 
ATOM     10  C   UNL d   1      13.100  11.978  -1.540  0.00  0.00     0.106 A 
ATOM     11  N   UNL d   1      13.755  11.939  -0.379  0.00  0.00    -0.219 NA
ATOM     12  C   UNL d   1      13.033  11.783  -0.738  0.00  0.00     0.120 A 
ATOM     13  O   UNL d   1      14.961  12.774  -2.431  0.00  0.00    -0.267 OA
BRANCH   9  14
ATOM     14  S   UNL d   1      15.054  12.456  -0.823  0.00  0.00    -0.076 SA
ATOM     15  C   UNL d   1      15.277  12.842  -0.126  0.00  0.00     0.077 C 
ENDBRANCH   9  14
ENDBRANCH   1   7
BRANCH   2  16
ATOM     16  O   UNL d   1      13.807  13.933  -3.142  0.00  0.00    -0.305 OA
BRANCH  16  17
ATOM     17  C   UNL d   1      13.882  14.583  -3.644  0.00  0.00     0.123 C 
ATOM     18  C   UNL d   1      14.133  15.297  -3.345  0.00  0.00     0.029 C 
ENDBRANCH  16  17
ENDBRANCH   2  16
TORSDOF 4
ENDMDL
