MODEL 1
REMARK VINA RESULT:      -5.6      0.000      0.000
REMARK  2 active torsions:
REMARK  status: ('A' for Active; 'I' for Inactive)
REMARK    1  A    between atoms: C_7  and  C_1 
REMARK    2  A    between atoms: O_15  and  C_11 
ROOT
ATOM      1  C   UNL d   1     -41.696-122.846 -50.842  0.00  0.00     0.103 A 
ATOM      2  C   UNL d   1     -41.504-122.069 -51.044  0.00  0.00     0.067 A 
ATOM      3  O   UNL d   1     -41.695-123.416 -51.410  0.00  0.00    -0.307 OA
ATOM      4  C   UNL d   1     -41.312-121.863 -51.815  0.00  0.00     0.200 A 
ATOM      5  C   UNL d   1     -41.315-122.470 -52.400  0.00  0.00     0.062 A 
ATOM      6  C   UNL d   1     -41.507-123.246 -52.198  0.00  0.00     0.103 A 
ATOM      7  O   UNL d   1     -41.124-121.079 -51.993  0.00  0.00    -0.286 OA
ATOM      8  C   UNL d   1     -41.123-122.264 -53.175  0.00  0.00     0.005 A 
ATOM      9  C   UNL d   1     -41.506-123.817 -52.771  0.00  0.00     0.025 A 
ATOM     10  C   UNL d   1     -41.130-122.863 -53.735  0.00  0.00     0.000 A 
ATOM     11  C   UNL d   1     -41.321-123.640 -53.532  0.00  0.00     0.002 A 
ENDROOT
BRANCH   1  12
ATOM     12  C   UNL d   1     -41.881-123.022 -50.074  0.00  0.00     0.023 A 
ATOM     13  C   UNL d   1     -41.300-123.300 -49.549  0.00  0.00     0.004 A 
ATOM     14  C   UNL d   1     -41.467-123.484 -48.765  0.00  0.00     0.024 A 
ATOM     15  C   UNL d   1     -42.265-123.381 -48.502  0.00  0.00     0.094 A 
ATOM     16  C   UNL d   1     -42.846-123.103 -49.028  0.00  0.00     0.024 A 
ATOM     17  C   UNL d   1     -42.668-122.926 -49.795  0.00  0.00     0.004 A 
BRANCH  15  18
ATOM     18  O   UNL d   1     -42.463-123.569 -47.684  0.00  0.00    -0.328 OA
ATOM     19  C   UNL d   1     -42.055-123.164 -47.077  0.00  0.00     0.181 C 
ENDBRANCH  15  18
ENDBRANCH   1  12
TORSDOF 2
ENDMDL
MODEL 2
REMARK VINA RESULT:      -5.3      1.514      2.523
REMARK  2 active torsions:
REMARK  status: ('A' for Active; 'I' for Inactive)
REMARK    1  A    between atoms: C_7  and  C_1 
REMARK    2  A    between atoms: O_15  and  C_11 
ROOT
ATOM      1  C   UNL d   1     -41.601-122.602 -52.856  0.00  0.00     0.103 A 
ATOM      2  C   UNL d   1     -41.318-123.211 -53.336  0.00  0.00     0.067 A 
ATOM      3  O   UNL d   1     -41.985-121.979 -53.191  0.00  0.00    -0.307 OA
ATOM      4  C   UNL d   1     -41.419-123.196 -54.150  0.00  0.00     0.200 A 
ATOM      5  C   UNL d   1     -41.823-122.538 -54.487  0.00  0.00     0.062 A 
ATOM      6  C   UNL d   1     -42.106-121.930 -54.008  0.00  0.00     0.103 A 
ATOM      7  O   UNL d   1     -41.127-123.817 -54.608  0.00  0.00    -0.286 OA
ATOM      8  C   UNL d   1     -41.926-122.522 -55.305  0.00  0.00     0.005 A 
ATOM      9  C   UNL d   1     -42.493-121.305 -54.346  0.00  0.00     0.025 A 
ATOM     10  C   UNL d   1     -42.321-121.877 -55.621  0.00  0.00     0.000 A 
ATOM     11  C   UNL d   1     -42.604-121.268 -55.142  0.00  0.00     0.002 A 
ENDROOT
BRANCH   1  12
ATOM     12  C   UNL d   1     -41.487-122.641 -52.056  0.00  0.00     0.023 A 
ATOM     13  C   UNL d   1     -41.327-121.956 -51.614  0.00  0.00     0.004 A 
ATOM     14  C   UNL d   1     -41.208-121.973 -50.801  0.00  0.00     0.024 A 
ATOM     15  C   UNL d   1     -41.254-122.726 -50.417  0.00  0.00     0.094 A 
ATOM     16  C   UNL d   1     -41.414-123.411 -50.859  0.00  0.00     0.024 A 
ATOM     17  C   UNL d   1     -41.529-123.379 -51.657  0.00  0.00     0.004 A 
BRANCH  15  18
ATOM     18  O   UNL d   1     -41.133-122.768 -49.564  0.00  0.00    -0.328 OA
ATOM     19  C   UNL d   1     -41.748-123.083 -49.094  0.00  0.00     0.181 C 
ENDBRANCH  15  18
ENDBRANCH   1  12
TORSDOF 2
ENDMDL
MODEL 3
REMARK VINA RESULT:      -4.9      1.472      4.318
REMARK  2 active torsions:
REMARK  status: ('A' for Active; 'I' for Inactive)
REMARK    1  A    between atoms: C_7  and  C_1 
REMARK    2  A    between atoms: O_15  and  C_11 
ROOT
ATOM      1  C   UNL d   1     -41.490-122.351 -52.441  0.00  0.00     0.103 A 
ATOM      2  C   UNL d   1     -41.356-121.652 -52.025  0.00  0.00     0.067 A 
ATOM      3  O   UNL d   1     -41.524-123.050 -52.044  0.00  0.00    -0.307 OA
ATOM      4  C   UNL d   1     -41.256-121.652 -51.210  0.00  0.00     0.200 A 
ATOM      5  C   UNL d   1     -41.294-122.390 -50.806  0.00  0.00     0.062 A 
ATOM      6  C   UNL d   1     -41.429-123.090 -51.223  0.00  0.00     0.103 A 
ATOM      7  O   UNL d   1     -41.123-120.939 -50.816  0.00  0.00    -0.286 OA
ATOM      8  C   UNL d   1     -41.194-122.393 -49.987  0.00  0.00     0.005 A 
ATOM      9  C   UNL d   1     -41.463-123.791 -50.821  0.00  0.00     0.025 A 
ATOM     10  C   UNL d   1     -41.234-123.117 -49.606  0.00  0.00     0.000 A 
ATOM     11  C   UNL d   1     -41.368-123.816 -50.023  0.00  0.00     0.002 A 
ENDROOT
BRANCH   1  12
ATOM     12  C   UNL d   1     -41.585-122.323 -53.244  0.00  0.00     0.023 A 
ATOM     13  C   UNL d   1     -41.124-122.800 -53.745  0.00  0.00     0.004 A 
ATOM     14  C   UNL d   1     -41.205-122.787 -54.563  0.00  0.00     0.024 A 
ATOM     15  C   UNL d   1     -41.782-122.262 -54.889  0.00  0.00     0.094 A 
ATOM     16  C   UNL d   1     -42.243-121.784 -54.388  0.00  0.00     0.024 A 
ATOM     17  C   UNL d   1     -42.154-121.808 -53.587  0.00  0.00     0.004 A 
BRANCH  15  18
ATOM     18  O   UNL d   1     -41.884-122.231 -55.745  0.00  0.00    -0.328 OA
ATOM     19  C   UNL d   1     -42.638-122.032 -56.046  0.00  0.00     0.181 C 
ENDBRANCH  15  18
ENDBRANCH   1  12
TORSDOF 2
ENDMDL
