MODEL 1
REMARK VINA RESULT:      -7.1      0.000      0.000
REMARK  6 active torsions:
REMARK  status: ('A' for Active; 'I' for Inactive)
REMARK    1  A    between atoms: N_2  and  S_1 
REMARK    2  A    between atoms: C_3  and  S_1 
REMARK    3  A    between atoms: C_7  and  N_2 
REMARK    4  A    between atoms: C_10  and  C_7 
REMARK    5  A    between atoms: O_14  and  C_11 
REMARK    6  A    between atoms: C_17  and  O_14 
ROOT
ATOM      1  S   UNL d   1      51.927  34.042  53.006  0.00  0.00     0.285 S 
ATOM      2  O   UNL d   1      52.103  34.847  52.954  0.00  0.00    -0.198 OA
ATOM      3  O   UNL d   1      51.751  33.238  53.059  0.00  0.00    -0.198 OA
ENDROOT
BRANCH   1   4
ATOM      4  N   UNL d   1      52.659  33.906  53.363  0.00  0.00    -0.155 NA
BRANCH   4   5
ATOM      5  C   UNL d   1      52.711  33.828  54.182  0.00  0.00     0.131 C 
BRANCH   5   6
ATOM      6  C   UNL d   1      53.446  33.717  54.540  0.00  0.00     0.101 A 
ATOM      7  N   UNL d   1      53.880  34.366  54.800  0.00  0.00    -0.242 NA
ATOM      8  C   UNL d   1      54.615  34.254  55.159  0.00  0.00     0.099 A 
ATOM      9  C   UNL d   1      54.915  33.493  55.257  0.00  0.00     0.021 A 
ATOM     10  C   UNL d   1      54.479  32.837  54.996  0.00  0.00     0.003 A 
ATOM     11  C   UNL d   1      53.744  32.949  54.637  0.00  0.00     0.021 A 
ENDBRANCH   5   6
ENDBRANCH   4   5
ENDBRANCH   1   4
BRANCH   1  12
ATOM     12  C   UNL d   1      51.196  34.179  52.650  0.00  0.00     0.105 A 
ATOM     13  C   UNL d   1      50.547  34.392  53.109  0.00  0.00     0.015 A 
ATOM     14  C   UNL d   1      49.816  34.528  52.752  0.00  0.00     0.025 A 
ATOM     15  C   UNL d   1      49.733  34.452  51.937  0.00  0.00     0.100 A 
ATOM     16  C   UNL d   1      50.383  34.238  51.478  0.00  0.00     0.025 A 
ATOM     17  C   UNL d   1      51.121  34.100  51.838  0.00  0.00     0.015 A 
BRANCH  15  18
ATOM     18  O   UNL d   1      49.002  34.588  51.581  0.00  0.00    -0.305 OA
BRANCH  18  19
ATOM     19  C   UNL d   1      48.520  35.199  51.849  0.00  0.00     0.123 C 
ATOM     20  C   UNL d   1      47.802  35.354  51.474  0.00  0.00     0.029 C 
ENDBRANCH  18  19
ENDBRANCH  15  18
ENDBRANCH   1  12
TORSDOF 6
ENDMDL
MODEL 2
REMARK VINA RESULT:      -7.0      1.509      4.965
REMARK  6 active torsions:
REMARK  status: ('A' for Active; 'I' for Inactive)
REMARK    1  A    between atoms: N_2  and  S_1 
REMARK    2  A    between atoms: C_3  and  S_1 
REMARK    3  A    between atoms: C_7  and  N_2 
REMARK    4  A    between atoms: C_10  and  C_7 
REMARK    5  A    between atoms: O_14  and  C_11 
REMARK    6  A    between atoms: C_17  and  O_14 
ROOT
ATOM      1  S   UNL d   1      51.010  34.111  52.669  0.00  0.00     0.285 S 
ATOM      2  O   UNL d   1      51.392  34.467  52.030  0.00  0.00    -0.198 OA
ATOM      3  O   UNL d   1      50.627  33.756  53.307  0.00  0.00    -0.198 OA
ENDROOT
BRANCH   1   4
ATOM      4  N   UNL d   1      50.279  34.279  52.324  0.00  0.00    -0.155 NA
BRANCH   4   5
ATOM      5  C   UNL d   1      49.717  34.715  52.740  0.00  0.00     0.131 C 
BRANCH   5   6
ATOM      6  C   UNL d   1      49.035  34.980  52.359  0.00  0.00     0.101 A 
ATOM      7  N   UNL d   1      48.837  34.686  51.615  0.00  0.00    -0.242 NA
ATOM      8  C   UNL d   1      48.155  34.951  51.235  0.00  0.00     0.099 A 
ATOM      9  C   UNL d   1      47.670  35.509  51.597  0.00  0.00     0.021 A 
ATOM     10  C   UNL d   1      47.867  35.807  52.347  0.00  0.00     0.003 A 
ATOM     11  C   UNL d   1      48.549  35.542  52.728  0.00  0.00     0.021 A 
ENDBRANCH   5   6
ENDBRANCH   4   5
ENDBRANCH   1   4
BRANCH   1  12
ATOM     12  C   UNL d   1      51.740  33.943  53.013  0.00  0.00     0.105 A 
ATOM     13  C   UNL d   1      52.219  34.556  53.283  0.00  0.00     0.015 A 
ATOM     14  C   UNL d   1      52.950  34.388  53.627  0.00  0.00     0.025 A 
ATOM     15  C   UNL d   1      53.201  33.608  53.703  0.00  0.00     0.100 A 
ATOM     16  C   UNL d   1      52.721  32.995  53.433  0.00  0.00     0.025 A 
ATOM     17  C   UNL d   1      51.984  33.164  53.085  0.00  0.00     0.015 A 
BRANCH  15  18
ATOM     18  O   UNL d   1      53.932  33.440  54.047  0.00  0.00    -0.305 OA
BRANCH  18  19
ATOM     19  C   UNL d   1      54.007  33.422  54.866  0.00  0.00     0.123 C 
ATOM     20  C   UNL d   1      54.747  33.308  55.211  0.00  0.00     0.029 C 
ENDBRANCH  18  19
ENDBRANCH  15  18
ENDBRANCH   1  12
TORSDOF 6
ENDMDL
MODEL 3
REMARK VINA RESULT:      -5.1     10.328     11.108
REMARK  6 active torsions:
REMARK  status: ('A' for Active; 'I' for Inactive)
REMARK    1  A    between atoms: N_2  and  S_1 
REMARK    2  A    between atoms: C_3  and  S_1 
REMARK    3  A    between atoms: C_7  and  N_2 
REMARK    4  A    between atoms: C_10  and  C_7 
REMARK    5  A    between atoms: O_14  and  C_11 
REMARK    6  A    between atoms: C_17  and  O_14 
ROOT
ATOM      1  S   UNL d   1      45.183  26.837  56.797  0.00  0.00     0.285 S 
ATOM      2  O   UNL d   1      45.879  27.085  56.432  0.00  0.00    -0.198 OA
ATOM      3  O   UNL d   1      44.486  26.588  57.162  0.00  0.00    -0.198 OA
ENDROOT
BRANCH   1   4
ATOM      4  N   UNL d   1      45.232  26.115  56.400  0.00  0.00    -0.155 NA
BRANCH   4   5
ATOM      5  C   UNL d   1      44.545  25.723  56.169  0.00  0.00     0.131 C 
BRANCH   5   6
ATOM      6  C   UNL d   1      44.593  25.050  55.694  0.00  0.00     0.101 A 
ATOM      7  N   UNL d   1      44.319  25.074  54.917  0.00  0.00    -0.242 NA
ATOM      8  C   UNL d   1      44.367  24.402  54.442  0.00  0.00     0.099 A 
ATOM      9  C   UNL d   1      44.688  23.705  54.743  0.00  0.00     0.021 A 
ATOM     10  C   UNL d   1      44.964  23.678  55.525  0.00  0.00     0.003 A 
ATOM     11  C   UNL d   1      44.916  24.351  56.001  0.00  0.00     0.021 A 
ENDBRANCH   5   6
ENDBRANCH   4   5
ENDBRANCH   1   4
BRANCH   1  12
ATOM     12  C   UNL d   1      45.133  27.558  57.194  0.00  0.00     0.105 A 
ATOM     13  C   UNL d   1      44.889  28.233  56.793  0.00  0.00     0.015 A 
ATOM     14  C   UNL d   1      44.840  28.955  57.190  0.00  0.00     0.025 A 
ATOM     15  C   UNL d   1      45.035  29.001  57.988  0.00  0.00     0.100 A 
ATOM     16  C   UNL d   1      45.279  28.324  58.390  0.00  0.00     0.025 A 
ATOM     17  C   UNL d   1      45.329  27.596  57.989  0.00  0.00     0.015 A 
BRANCH  15  18
ATOM     18  O   UNL d   1      44.985  29.722  58.385  0.00  0.00    -0.305 OA
BRANCH  18  19
ATOM     19  C   UNL d   1      44.831  30.413  57.967  0.00  0.00     0.123 C 
ATOM     20  C   UNL d   1      44.784  31.135  58.364  0.00  0.00     0.029 C 
ENDBRANCH  18  19
ENDBRANCH  15  18
ENDBRANCH   1  12
TORSDOF 6
ENDMDL
MODEL 4
REMARK VINA RESULT:      -4.6     10.511     11.095
REMARK  6 active torsions:
REMARK  status: ('A' for Active; 'I' for Inactive)
REMARK    1  A    between atoms: N_2  and  S_1 
REMARK    2  A    between atoms: C_3  and  S_1 
REMARK    3  A    between atoms: C_7  and  N_2 
REMARK    4  A    between atoms: C_10  and  C_7 
REMARK    5  A    between atoms: O_14  and  C_11 
REMARK    6  A    between atoms: C_17  and  O_14 
ROOT
ATOM      1  S   UNL d   1      44.515  28.680  58.892  0.00  0.00     0.285 S 
ATOM      2  O   UNL d   1      44.620  29.264  58.319  0.00  0.00    -0.198 OA
ATOM      3  O   UNL d   1      44.409  28.096  59.465  0.00  0.00    -0.198 OA
ENDROOT
BRANCH   1   4
ATOM      4  N   UNL d   1      44.326  29.259  59.447  0.00  0.00    -0.155 NA
BRANCH   4   5
ATOM      5  C   UNL d   1      44.906  29.548  59.956  0.00  0.00     0.131 C 
BRANCH   5   6
ATOM      6  C   UNL d   1      44.709  30.099  60.538  0.00  0.00     0.101 A 
ATOM      7  N   UNL d   1      44.708  29.877  61.331  0.00  0.00    -0.242 NA
ATOM      8  C   UNL d   1      44.511  30.427  61.914  0.00  0.00     0.099 A 
ATOM      9  C   UNL d   1      44.314  31.199  61.703  0.00  0.00     0.021 A 
ATOM     10  C   UNL d   1      44.314  31.425  60.904  0.00  0.00     0.003 A 
ATOM     11  C   UNL d   1      44.511  30.875  60.322  0.00  0.00     0.021 A 
ENDBRANCH   5   6
ENDBRANCH   4   5
ENDBRANCH   1   4
BRANCH   1  12
ATOM     12  C   UNL d   1      44.703  28.100  58.336  0.00  0.00     0.105 A 
ATOM     13  C   UNL d   1      44.970  27.362  58.584  0.00  0.00     0.015 A 
ATOM     14  C   UNL d   1      45.158  26.783  58.028  0.00  0.00     0.025 A 
ATOM     15  C   UNL d   1      45.081  26.940  57.224  0.00  0.00     0.100 A 
ATOM     16  C   UNL d   1      44.814  27.679  56.976  0.00  0.00     0.025 A 
ATOM     17  C   UNL d   1      44.624  28.265  57.537  0.00  0.00     0.015 A 
BRANCH  15  18
ATOM     18  O   UNL d   1      45.270  26.361  56.669  0.00  0.00    -0.305 OA
BRANCH  18  19
ATOM     19  C   UNL d   1      44.680  25.874  56.364  0.00  0.00     0.123 C 
ATOM     20  C   UNL d   1      44.878  25.251  55.861  0.00  0.00     0.029 C 
ENDBRANCH  18  19
ENDBRANCH  15  18
ENDBRANCH   1  12
TORSDOF 6
ENDMDL
MODEL 5
REMARK VINA RESULT:      -4.6     10.592     11.360
REMARK  6 active torsions:
REMARK  status: ('A' for Active; 'I' for Inactive)
REMARK    1  A    between atoms: N_2  and  S_1 
REMARK    2  A    between atoms: C_3  and  S_1 
REMARK    3  A    between atoms: C_7  and  N_2 
REMARK    4  A    between atoms: C_10  and  C_7 
REMARK    5  A    between atoms: O_14  and  C_11 
REMARK    6  A    between atoms: C_17  and  O_14 
ROOT
ATOM      1  S   UNL d   1      45.070  27.521  58.173  0.00  0.00     0.285 S 
ATOM      2  O   UNL d   1      45.663  27.439  57.605  0.00  0.00    -0.198 OA
ATOM      3  O   UNL d   1      44.477  27.603  58.740  0.00  0.00    -0.198 OA
ENDROOT
BRANCH   1   4
ATOM      4  N   UNL d   1      45.226  28.330  58.219  0.00  0.00    -0.155 NA
BRANCH   4   5
ATOM      5  C   UNL d   1      44.604  28.870  58.239  0.00  0.00     0.131 C 
BRANCH   5   6
ATOM      6  C   UNL d   1      44.756  29.678  58.174  0.00  0.00     0.101 A 
ATOM      7  N   UNL d   1      44.595  30.072  57.469  0.00  0.00    -0.242 NA
ATOM      8  C   UNL d   1      44.747  30.880  57.404  0.00  0.00     0.099 A 
ATOM      9  C   UNL d   1      45.060  31.294  58.044  0.00  0.00     0.021 A 
ATOM     10  C   UNL d   1      45.222  30.900  58.756  0.00  0.00     0.003 A 
ATOM     11  C   UNL d   1      45.071  30.091  58.821  0.00  0.00     0.021 A 
ENDBRANCH   5   6
ENDBRANCH   4   5
ENDBRANCH   1   4
BRANCH   1  12
ATOM     12  C   UNL d   1      44.914  26.712  58.126  0.00  0.00     0.105 A 
ATOM     13  C   UNL d   1      44.690  26.376  57.409  0.00  0.00     0.015 A 
ATOM     14  C   UNL d   1      44.534  25.567  57.363  0.00  0.00     0.025 A 
ATOM     15  C   UNL d   1      44.602  25.094  58.033  0.00  0.00     0.100 A 
ATOM     16  C   UNL d   1      44.827  25.431  58.751  0.00  0.00     0.025 A 
ATOM     17  C   UNL d   1      44.984  26.248  58.798  0.00  0.00     0.015 A 
BRANCH  15  18
ATOM     18  O   UNL d   1      44.447  24.286  57.987  0.00  0.00    -0.305 OA
BRANCH  18  19
ATOM     19  C   UNL d   1      44.532  23.890  57.271  0.00  0.00     0.123 C 
ATOM     20  C   UNL d   1      44.421  23.073  57.234  0.00  0.00     0.029 C 
ENDBRANCH  18  19
ENDBRANCH  15  18
ENDBRANCH   1  12
TORSDOF 6
ENDMDL
MODEL 6
REMARK VINA RESULT:      -4.5     11.040     11.764
REMARK  6 active torsions:
REMARK  status: ('A' for Active; 'I' for Inactive)
REMARK    1  A    between atoms: N_2  and  S_1 
REMARK    2  A    between atoms: C_3  and  S_1 
REMARK    3  A    between atoms: C_7  and  N_2 
REMARK    4  A    between atoms: C_10  and  C_7 
REMARK    5  A    between atoms: O_14  and  C_11 
REMARK    6  A    between atoms: C_17  and  O_14 
ROOT
ATOM      1  S   UNL d   1      44.587  26.047  56.700  0.00  0.00     0.285 S 
ATOM      2  O   UNL d   1      44.762  25.814  57.471  0.00  0.00    -0.198 OA
ATOM      3  O   UNL d   1      44.412  26.280  55.928  0.00  0.00    -0.198 OA
ENDROOT
BRANCH   1   4
ATOM      4  N   UNL d   1      44.512  26.828  56.953  0.00  0.00    -0.155 NA
BRANCH   4   5
ATOM      5  C   UNL d   1      45.176  27.313  56.999  0.00  0.00     0.131 C 
BRANCH   5   6
ATOM      6  C   UNL d   1      45.108  28.082  57.290  0.00  0.00     0.101 A 
ATOM      7  N   UNL d   1      45.242  28.234  58.088  0.00  0.00    -0.242 NA
ATOM      8  C   UNL d   1      45.174  29.003  58.379  0.00  0.00     0.099 A 
ATOM      9  C   UNL d   1      44.971  29.620  57.872  0.00  0.00     0.021 A 
ATOM     10  C   UNL d   1      44.834  29.470  57.067  0.00  0.00     0.003 A 
ATOM     11  C   UNL d   1      44.903  28.701  56.776  0.00  0.00     0.021 A 
ENDBRANCH   5   6
ENDBRANCH   4   5
ENDBRANCH   1   4
BRANCH   1  12
ATOM     12  C   UNL d   1      44.662  25.265  56.447  0.00  0.00     0.105 A 
ATOM     13  C   UNL d   1      44.883  25.103  55.671  0.00  0.00     0.015 A 
ATOM     14  C   UNL d   1      44.958  24.321  55.418  0.00  0.00     0.025 A 
ATOM     15  C   UNL d   1      44.813  23.702  55.941  0.00  0.00     0.100 A 
ATOM     16  C   UNL d   1      44.592  23.865  56.718  0.00  0.00     0.025 A 
ATOM     17  C   UNL d   1      44.516  24.654  56.973  0.00  0.00     0.015 A 
BRANCH  15  18
ATOM     18  O   UNL d   1      44.888  22.920  55.688  0.00  0.00    -0.305 OA
BRANCH  18  19
ATOM     19  C   UNL d   1      45.559  22.487  55.883  0.00  0.00     0.123 C 
ATOM     20  C   UNL d   1      45.643  21.711  55.615  0.00  0.00     0.029 C 
ENDBRANCH  18  19
ENDBRANCH  15  18
ENDBRANCH   1  12
TORSDOF 6
ENDMDL
MODEL 7
REMARK VINA RESULT:      -4.2     10.959     11.698
REMARK  6 active torsions:
REMARK  status: ('A' for Active; 'I' for Inactive)
REMARK    1  A    between atoms: N_2  and  S_1 
REMARK    2  A    between atoms: C_3  and  S_1 
REMARK    3  A    between atoms: C_7  and  N_2 
REMARK    4  A    between atoms: C_10  and  C_7 
REMARK    5  A    between atoms: O_14  and  C_11 
REMARK    6  A    between atoms: C_17  and  O_14 
ROOT
ATOM      1  S   UNL d   1      44.331  29.368  60.195  0.00  0.00     0.285 S 
ATOM      2  O   UNL d   1      44.347  30.004  59.671  0.00  0.00    -0.198 OA
ATOM      3  O   UNL d   1      44.314  28.731  60.720  0.00  0.00    -0.198 OA
ENDROOT
BRANCH   1   4
ATOM      4  N   UNL d   1      44.335  28.843  59.559  0.00  0.00    -0.155 NA
BRANCH   4   5
ATOM      5  C   UNL d   1      44.857  28.958  58.932  0.00  0.00     0.131 C 
BRANCH   5   6
ATOM      6  C   UNL d   1      44.994  28.350  58.391  0.00  0.00     0.101 A 
ATOM      7  N   UNL d   1      45.664  27.877  58.465  0.00  0.00    -0.242 NA
ATOM      8  C   UNL d   1      45.802  27.270  57.924  0.00  0.00     0.099 A 
ATOM      9  C   UNL d   1      45.269  27.135  57.310  0.00  0.00     0.021 A 
ATOM     10  C   UNL d   1      44.593  27.610  57.234  0.00  0.00     0.003 A 
ATOM     11  C   UNL d   1      44.455  28.218  57.774  0.00  0.00     0.021 A 
ENDBRANCH   5   6
ENDBRANCH   4   5
ENDBRANCH   1   4
BRANCH   1  12
ATOM     12  C   UNL d   1      44.327  29.893  60.832  0.00  0.00     0.105 A 
ATOM     13  C   UNL d   1      44.328  30.704  60.697  0.00  0.00     0.015 A 
ATOM     14  C   UNL d   1      44.324  31.229  61.333  0.00  0.00     0.025 A 
ATOM     15  C   UNL d   1      44.318  30.943  62.105  0.00  0.00     0.100 A 
ATOM     16  C   UNL d   1      44.317  30.130  62.240  0.00  0.00     0.025 A 
ATOM     17  C   UNL d   1      44.321  29.600  61.597  0.00  0.00     0.015 A 
BRANCH  15  18
ATOM     18  O   UNL d   1      44.314  31.468  62.741  0.00  0.00    -0.305 OA
BRANCH  18  19
ATOM     19  C   UNL d   1      44.427  31.188  63.506  0.00  0.00     0.123 C 
ATOM     20  C   UNL d   1      44.456  31.717  64.139  0.00  0.00     0.029 C 
ENDBRANCH  18  19
ENDBRANCH  15  18
ENDBRANCH   1  12
TORSDOF 6
ENDMDL
