MODEL 1
REMARK VINA RESULT:      73.9      0.000      0.000
REMARK  8 active torsions:
REMARK  status: ('A' for Active; 'I' for Inactive)
REMARK    1  A    between atoms: S_10  and  C_2 
REMARK    2  A    between atoms: C_7  and  C_4 
REMARK    3  A    between atoms: C_17  and  S_10 
REMARK    4  A    between atoms: C_14  and  C_17 
REMARK    5  A    between atoms: O_18  and  C_14 
REMARK    6  A    between atoms: O_19  and  C_15 
REMARK    7  A    between atoms: C_22  and  O_18 
REMARK    8  A    between atoms: C_23  and  O_19 
ROOT
ATOM      1  C   UNL d   1      59.349  49.394  50.619  0.00  0.00     0.093 A 
ATOM      2  C   UNL d   1      58.568  49.565  50.854  0.00  0.00     0.124 A 
ATOM      3  N   UNL d   1      58.377  49.593  51.657  0.00  0.00    -0.200 NA
ATOM      4  C   UNL d   1      59.929  49.254  51.190  0.00  0.00     0.028 A 
ATOM      5  C   UNL d   1      59.736  49.282  51.989  0.00  0.00     0.127 A 
ATOM      6  C   UNL d   1      58.956  49.452  52.224  0.00  0.00     0.289 A 
ATOM      7  C   UNL d   1      59.542  49.366  49.824  0.00  0.00     0.103 C 
ATOM      8  C   UNL d   1      60.316  49.141  52.559  0.00  0.00     0.106 C 
ATOM      9  N   UNL d   1      59.729  49.339  49.035  0.00  0.00    -0.191 NA
ATOM     10  N   UNL d   1      60.884  49.003  53.121  0.00  0.00    -0.191 NA
ATOM     11  O   UNL d   1      58.799  49.471  53.107  0.00  0.00    -0.264 OA
ENDROOT
BRANCH   2  12
ATOM     12  S   UNL d   1      58.002  49.704  50.212  0.00  0.00    -0.061 SA
BRANCH  12  13
ATOM     13  C   UNL d   1      57.132  49.675  50.240  0.00  0.00     0.105 C 
BRANCH  13  14
ATOM     14  C   UNL d   1      56.733  48.903  50.269  0.00  0.00     0.307 C 
ATOM     15  O   UNL d   1      56.495  48.717  50.702  0.00  0.00    -0.258 OA
BRANCH  14  16
ATOM     16  O   UNL d   1      56.759  48.450  49.507  0.00  0.00    -0.271 OA
BRANCH  16  17
ATOM     17  C   UNL d   1      56.211  47.734  49.465  0.00  0.00     0.126 C 
ATOM     18  C   UNL d   1      56.542  47.090  50.062  0.00  0.00     0.029 C 
ENDBRANCH  16  17
ENDBRANCH  14  16
ENDBRANCH  13  14
ENDBRANCH  12  13
ENDBRANCH   2  12
BRANCH   4  19
ATOM     19  C   UNL d   1      60.698  49.085  50.959  0.00  0.00     0.024 A 
ATOM     20  C   UNL d   1      60.910  48.315  50.766  0.00  0.00     0.100 A 
ATOM     21  C   UNL d   1      61.684  48.145  50.534  0.00  0.00     0.025 A 
ATOM     22  C   UNL d   1      62.246  48.747  50.494  0.00  0.00     0.002 A 
ATOM     23  C   UNL d   1      62.032  49.522  50.687  0.00  0.00     0.000 A 
ATOM     24  C   UNL d   1      61.257  49.691  50.920  0.00  0.00     0.002 A 
BRANCH  20  25
ATOM     25  O   UNL d   1      60.496  47.753  50.775  0.00  0.00    -0.305 OA
BRANCH  25  26
ATOM     26  C   UNL d   1      60.834  47.103  51.108  0.00  0.00     0.123 C 
ATOM     27  C   UNL d   1      60.990  46.380  50.545  0.00  0.00     0.029 C 
ENDBRANCH  25  26
ENDBRANCH  20  25
ENDBRANCH   4  19
TORSDOF 8
ENDMDL
