MODEL 1
REMARK VINA RESULT:      -6.7      0.000      0.000
REMARK  5 active torsions:
REMARK  status: ('A' for Active; 'I' for Inactive)
REMARK    1  A    between atoms: C_12  and  N_1 
REMARK    2  A    between atoms: S_9  and  C_2 
REMARK       I    between atoms: N_7  and  C_10 
REMARK    3  A    between atoms: C_19  and  N_8 
REMARK    4  A    between atoms: C_14  and  S_9 
REMARK    5  A    between atoms: C_10  and  C_14 
ROOT
ATOM      1  N   UNL d   1     -49.549  13.652  22.542  0.00  0.00    -0.254 N 
ATOM      2  C   UNL d   1     -48.832  14.004  22.748  0.00  0.00     0.182 A 
ATOM      3  C   UNL d   1     -50.260  14.032  22.718  0.00  0.00     0.274 A 
ATOM      4  C   UNL d   1     -50.253  14.759  23.098  0.00  0.00     0.104 A 
ATOM      5  N   UNL d   1     -48.826  14.735  23.131  0.00  0.00    -0.222 NA
ATOM      6  C   UNL d   1     -49.536  15.111  23.305  0.00  0.00     0.095 A 
ATOM      7  S   UNL d   1     -50.859  15.261  23.341  0.00  0.00    -0.080 SA
ATOM      8  O   UNL d   1     -50.977  13.680  22.511  0.00  0.00    -0.266 OA
ATOM      9  C   UNL d   1     -49.700  15.830  23.675  0.00  0.00     0.027 A 
ATOM     10  C   UNL d   1     -50.511  15.922  23.698  0.00  0.00     0.037 A 
ENDROOT
BRANCH   2  11
ATOM     11  S   UNL d   1     -48.110  13.624  22.573  0.00  0.00    -0.044 SA
BRANCH  11  12
ATOM     12  C   UNL d   1     -47.454  13.750  23.059  0.00  0.00     0.099 C 
BRANCH  12  13
ATOM     13  C   UNL d   1     -46.693  13.730  22.738  0.00  0.00     0.272 C 
ATOM     14  N   UNL d   1     -46.204  13.081  22.879  0.00  0.00    -0.269 N 
ATOM     15  C   UNL d   1     -46.475  12.452  23.339  0.00  0.00     0.102 A 
ATOM     16  C   UNL d   1     -45.444  13.061  22.559  0.00  0.00     0.102 A 
ATOM     17  C   UNL d   1     -45.982  11.810  23.474  0.00  0.00     0.100 A 
ATOM     18  N   UNL d   1     -45.228  11.787  23.159  0.00  0.00    -0.301 N 
ATOM     19  C   UNL d   1     -44.957  12.415  22.698  0.00  0.00     0.100 A 
ATOM     20  O   UNL d   1     -46.423  14.359  22.278  0.00  0.00    -0.266 OA
BRANCH  18  21
ATOM     21  C   UNL d   1     -44.738  11.137  23.299  0.00  0.00     0.064 A 
ATOM     22  C   UNL d   1     -43.920  11.211  23.213  0.00  0.00     0.018 A 
ATOM     23  C   UNL d   1     -43.431  10.562  23.353  0.00  0.00     0.002 A 
ATOM     24  C   UNL d   1     -43.759   9.839  23.580  0.00  0.00     0.000 A 
ATOM     25  C   UNL d   1     -44.577   9.765  23.667  0.00  0.00     0.002 A 
ATOM     26  C   UNL d   1     -45.066  10.414  23.526  0.00  0.00     0.018 A 
ENDBRANCH  18  21
ENDBRANCH  12  13
ENDBRANCH  11  12
ENDBRANCH   2  11
BRANCH   1  27
ATOM     27  C   UNL d   1     -49.559  12.928  22.163  0.00  0.00     0.069 A 
ATOM     28  C   UNL d   1     -49.456  12.885  21.345  0.00  0.00     0.018 A 
ATOM     29  C   UNL d   1     -49.466  12.152  20.966  0.00  0.00     0.002 A 
ATOM     30  C   UNL d   1     -49.579  11.461  21.404  0.00  0.00     0.000 A 
ATOM     31  C   UNL d   1     -49.682  11.504  22.222  0.00  0.00     0.002 A 
ATOM     32  C   UNL d   1     -49.671  12.237  22.601  0.00  0.00     0.018 A 
ENDBRANCH   1  27
TORSDOF 5
ENDMDL
MODEL 2
REMARK VINA RESULT:      -4.5      5.028      7.980
REMARK  5 active torsions:
REMARK  status: ('A' for Active; 'I' for Inactive)
REMARK    1  A    between atoms: C_12  and  N_1 
REMARK    2  A    between atoms: S_9  and  C_2 
REMARK       I    between atoms: N_7  and  C_10 
REMARK    3  A    between atoms: C_19  and  N_8 
REMARK    4  A    between atoms: C_14  and  S_9 
REMARK    5  A    between atoms: C_10  and  C_14 
ROOT
ATOM      1  N   UNL d   1     -40.179  14.631  20.252  0.00  0.00    -0.254 N 
ATOM      2  C   UNL d   1     -40.878  14.207  20.145  0.00  0.00     0.182 A 
ATOM      3  C   UNL d   1     -39.786  14.950  19.599  0.00  0.00     0.274 A 
ATOM      4  C   UNL d   1     -40.093  14.843  18.845  0.00  0.00     0.104 A 
ATOM      5  N   UNL d   1     -41.185  14.101  19.385  0.00  0.00    -0.222 NA
ATOM      6  C   UNL d   1     -40.792  14.419  18.738  0.00  0.00     0.095 A 
ATOM      7  S   UNL d   1     -39.831  15.090  18.104  0.00  0.00    -0.080 SA
ATOM      8  O   UNL d   1     -39.087  15.374  19.706  0.00  0.00    -0.266 OA
ATOM      9  C   UNL d   1     -40.962  14.404  17.931  0.00  0.00     0.027 A 
ATOM     10  C   UNL d   1     -40.374  14.815  17.542  0.00  0.00     0.037 A 
ENDROOT
BRANCH   2  11
ATOM     11  S   UNL d   1     -41.280  13.882  20.801  0.00  0.00    -0.044 SA
BRANCH  11  12
ATOM     12  C   UNL d   1     -42.083  13.702  20.739  0.00  0.00     0.099 C 
BRANCH  12  13
ATOM     13  C   UNL d   1     -42.394  13.057  21.150  0.00  0.00     0.272 C 
ATOM     14  N   UNL d   1     -43.161  13.091  21.452  0.00  0.00    -0.269 N 
ATOM     15  C   UNL d   1     -43.617  13.770  21.344  0.00  0.00     0.102 A 
ATOM     16  C   UNL d   1     -43.470  12.445  21.863  0.00  0.00     0.102 A 
ATOM     17  C   UNL d   1     -44.379  13.795  21.648  0.00  0.00     0.100 A 
ATOM     18  N   UNL d   1     -44.690  13.158  22.055  0.00  0.00    -0.301 N 
ATOM     19  C   UNL d   1     -44.233  12.479  22.164  0.00  0.00     0.100 A 
ATOM     20  O   UNL d   1     -41.937  12.378  21.259  0.00  0.00    -0.266 OA
BRANCH  18  21
ATOM     21  C   UNL d   1     -45.457  13.192  22.357  0.00  0.00     0.064 A 
ATOM     22  C   UNL d   1     -45.841  13.919  22.427  0.00  0.00     0.018 A 
ATOM     23  C   UNL d   1     -46.608  13.953  22.729  0.00  0.00     0.002 A 
ATOM     24  C   UNL d   1     -46.990  13.260  22.962  0.00  0.00     0.000 A 
ATOM     25  C   UNL d   1     -46.606  12.532  22.893  0.00  0.00     0.002 A 
ATOM     26  C   UNL d   1     -45.839  12.499  22.591  0.00  0.00     0.018 A 
ENDBRANCH  18  21
ENDBRANCH  12  13
ENDBRANCH  11  12
ENDBRANCH   2  11
BRANCH   1  27
ATOM     27  C   UNL d   1     -39.872  14.738  21.002  0.00  0.00     0.069 A 
ATOM     28  C   UNL d   1     -40.057  15.416  21.434  0.00  0.00     0.018 A 
ATOM     29  C   UNL d   1     -39.746  15.521  22.192  0.00  0.00     0.002 A 
ATOM     30  C   UNL d   1     -39.250  14.946  22.517  0.00  0.00     0.000 A 
ATOM     31  C   UNL d   1     -39.065  14.268  22.085  0.00  0.00     0.002 A 
ATOM     32  C   UNL d   1     -39.376  14.164  21.327  0.00  0.00     0.018 A 
ENDBRANCH   1  27
TORSDOF 5
ENDMDL
MODEL 3
REMARK VINA RESULT:      -4.0      1.553      2.093
REMARK  5 active torsions:
REMARK  status: ('A' for Active; 'I' for Inactive)
REMARK    1  A    between atoms: C_12  and  N_1 
REMARK    2  A    between atoms: S_9  and  C_2 
REMARK       I    between atoms: N_7  and  C_10 
REMARK    3  A    between atoms: C_19  and  N_8 
REMARK    4  A    between atoms: C_14  and  S_9 
REMARK    5  A    between atoms: C_10  and  C_14 
ROOT
ATOM      1  N   UNL d   1     -49.143  13.232  22.959  0.00  0.00    -0.254 N 
ATOM      2  C   UNL d   1     -48.358  13.483  23.004  0.00  0.00     0.182 A 
ATOM      3  C   UNL d   1     -49.751  13.787  22.905  0.00  0.00     0.274 A 
ATOM      4  C   UNL d   1     -49.574  14.589  22.896  0.00  0.00     0.104 A 
ATOM      5  N   UNL d   1     -48.182  14.290  22.995  0.00  0.00    -0.222 NA
ATOM      6  C   UNL d   1     -48.789  14.840  22.941  0.00  0.00     0.095 A 
ATOM      7  S   UNL d   1     -50.050  15.259  22.847  0.00  0.00    -0.080 SA
ATOM      8  O   UNL d   1     -50.535  13.536  22.859  0.00  0.00    -0.266 OA
ATOM      9  C   UNL d   1     -48.782  15.665  22.920  0.00  0.00     0.027 A 
ATOM     10  C   UNL d   1     -49.555  15.922  22.863  0.00  0.00     0.037 A 
ENDROOT
BRANCH   2  11
ATOM     11  S   UNL d   1     -47.739  12.926  23.059  0.00  0.00    -0.044 SA
BRANCH  11  12
ATOM     12  C   UNL d   1     -46.955  13.182  23.020  0.00  0.00     0.099 C 
BRANCH  12  13
ATOM     13  C   UNL d   1     -46.339  12.641  23.116  0.00  0.00     0.272 C 
ATOM     14  N   UNL d   1     -45.620  12.762  22.730  0.00  0.00    -0.269 N 
ATOM     15  C   UNL d   1     -45.517  13.424  22.249  0.00  0.00     0.102 A 
ATOM     16  C   UNL d   1     -45.005  12.220  22.827  0.00  0.00     0.102 A 
ATOM     17  C   UNL d   1     -44.798  13.536  21.868  0.00  0.00     0.100 A 
ATOM     18  N   UNL d   1     -44.186  13.003  21.961  0.00  0.00    -0.301 N 
ATOM     19  C   UNL d   1     -44.289  12.340  22.443  0.00  0.00     0.100 A 
ATOM     20  O   UNL d   1     -46.443  11.979  23.598  0.00  0.00    -0.266 OA
BRANCH  18  21
ATOM     21  C   UNL d   1     -43.467  13.123  21.575  0.00  0.00     0.064 A 
ATOM     22  C   UNL d   1     -43.225  13.889  21.382  0.00  0.00     0.018 A 
ATOM     23  C   UNL d   1     -42.506  14.010  20.996  0.00  0.00     0.002 A 
ATOM     24  C   UNL d   1     -42.028  13.365  20.804  0.00  0.00     0.000 A 
ATOM     25  C   UNL d   1     -42.269  12.599  20.997  0.00  0.00     0.002 A 
ATOM     26  C   UNL d   1     -42.988  12.479  21.383  0.00  0.00     0.018 A 
ENDBRANCH  18  21
ENDBRANCH  12  13
ENDBRANCH  11  12
ENDBRANCH   2  11
BRANCH   1  27
ATOM     27  C   UNL d   1     -49.321  12.434  22.968  0.00  0.00     0.069 A 
ATOM     28  C   UNL d   1     -49.344  12.006  22.263  0.00  0.00     0.018 A 
ATOM     29  C   UNL d   1     -49.524  11.200  22.276  0.00  0.00     0.002 A 
ATOM     30  C   UNL d   1     -49.682  10.824  22.993  0.00  0.00     0.000 A 
ATOM     31  C   UNL d   1     -49.660  11.252  23.698  0.00  0.00     0.002 A 
ATOM     32  C   UNL d   1     -49.479  12.058  23.685  0.00  0.00     0.018 A 
ENDBRANCH   1  27
TORSDOF 5
ENDMDL
MODEL 4
REMARK VINA RESULT:      -3.8      2.308      2.919
REMARK  5 active torsions:
REMARK  status: ('A' for Active; 'I' for Inactive)
REMARK    1  A    between atoms: C_12  and  N_1 
REMARK    2  A    between atoms: S_9  and  C_2 
REMARK       I    between atoms: N_7  and  C_10 
REMARK    3  A    between atoms: C_19  and  N_8 
REMARK    4  A    between atoms: C_14  and  S_9 
REMARK    5  A    between atoms: C_10  and  C_14 
ROOT
ATOM      1  N   UNL d   1     -48.070  13.133  22.774  0.00  0.00    -0.254 N 
ATOM      2  C   UNL d   1     -47.301  13.417  22.681  0.00  0.00     0.182 A 
ATOM      3  C   UNL d   1     -48.706  13.660  22.778  0.00  0.00     0.274 A 
ATOM      4  C   UNL d   1     -48.571  14.465  22.689  0.00  0.00     0.104 A 
ATOM      5  N   UNL d   1     -47.167  14.226  22.592  0.00  0.00    -0.222 NA
ATOM      6  C   UNL d   1     -47.802  14.748  22.596  0.00  0.00     0.095 A 
ATOM      7  S   UNL d   1     -49.081  15.111  22.670  0.00  0.00    -0.080 SA
ATOM      8  O   UNL d   1     -49.475  13.377  22.871  0.00  0.00    -0.266 OA
ATOM      9  C   UNL d   1     -47.837  15.569  22.520  0.00  0.00     0.027 A 
ATOM     10  C   UNL d   1     -48.622  15.792  22.565  0.00  0.00     0.037 A 
ENDROOT
BRANCH   2  11
ATOM     11  S   UNL d   1     -46.655  12.889  22.677  0.00  0.00    -0.044 SA
BRANCH  11  12
ATOM     12  C   UNL d   1     -45.906  13.162  22.462  0.00  0.00     0.099 C 
BRANCH  12  13
ATOM     13  C   UNL d   1     -45.257  12.653  22.490  0.00  0.00     0.272 C 
ATOM     14  N   UNL d   1     -44.547  12.869  22.130  0.00  0.00    -0.269 N 
ATOM     15  C   UNL d   1     -44.485  13.596  21.743  0.00  0.00     0.102 A 
ATOM     16  C   UNL d   1     -43.898  12.359  22.158  0.00  0.00     0.102 A 
ATOM     17  C   UNL d   1     -43.775  13.803  21.387  0.00  0.00     0.100 A 
ATOM     18  N   UNL d   1     -43.131  13.301  21.413  0.00  0.00    -0.301 N 
ATOM     19  C   UNL d   1     -43.192  12.575  21.800  0.00  0.00     0.100 A 
ATOM     20  O   UNL d   1     -45.319  11.926  22.877  0.00  0.00    -0.266 OA
BRANCH  18  21
ATOM     21  C   UNL d   1     -42.420  13.518  21.053  0.00  0.00     0.064 A 
ATOM     22  C   UNL d   1     -41.812  13.846  21.504  0.00  0.00     0.018 A 
ATOM     23  C   UNL d   1     -41.102  14.062  21.144  0.00  0.00     0.002 A 
ATOM     24  C   UNL d   1     -41.000  13.951  20.333  0.00  0.00     0.000 A 
ATOM     25  C   UNL d   1     -41.608  13.623  19.881  0.00  0.00     0.002 A 
ATOM     26  C   UNL d   1     -42.318  13.406  20.241  0.00  0.00     0.018 A 
ENDBRANCH  18  21
ENDBRANCH  12  13
ENDBRANCH  11  12
ENDBRANCH   2  11
BRANCH   1  27
ATOM     27  C   UNL d   1     -48.206  12.332  22.863  0.00  0.00     0.069 A 
ATOM     28  C   UNL d   1     -48.181  11.987  23.612  0.00  0.00     0.018 A 
ATOM     29  C   UNL d   1     -48.319  11.177  23.698  0.00  0.00     0.002 A 
ATOM     30  C   UNL d   1     -48.483  10.714  23.034  0.00  0.00     0.000 A 
ATOM     31  C   UNL d   1     -48.508  11.059  22.286  0.00  0.00     0.002 A 
ATOM     32  C   UNL d   1     -48.370  11.868  22.201  0.00  0.00     0.018 A 
ENDBRANCH   1  27
TORSDOF 5
ENDMDL
