MODEL 1
REMARK VINA RESULT:      -7.9      0.000      0.000
REMARK  1 active torsions:
REMARK  status: ('A' for Active; 'I' for Inactive)
REMARK    1  A    between atoms: C_6  and  C_1 
ROOT
ATOM      1  C   UNL d   1     -46.492  13.238  22.727  0.00  0.00     0.128 A 
ATOM      2  C   UNL d   1     -46.544  13.986  23.071  0.00  0.00     0.306 A 
ATOM      3  C   UNL d   1     -47.140  12.927  22.307  0.00  0.00     0.013 A 
ATOM      4  O   UNL d   1     -47.243  14.428  22.996  0.00  0.00    -0.273 OA
ATOM      5  C   UNL d   1     -47.832  13.371  22.237  0.00  0.00     0.023 A 
ATOM      6  C   UNL d   1     -47.883  14.119  22.580  0.00  0.00     0.103 A 
ATOM      7  O   UNL d   1     -45.904  14.294  23.487  0.00  0.00    -0.259 OA
ATOM      8  C   UNL d   1     -48.473  13.064  21.821  0.00  0.00     0.002 A 
ATOM      9  C   UNL d   1     -48.576  14.560  22.508  0.00  0.00     0.025 A 
ATOM     10  C   UNL d   1     -49.164  13.504  21.749  0.00  0.00     0.000 A 
ATOM     11  C   UNL d   1     -49.215  14.252  22.092  0.00  0.00     0.002 A 
ATOM     12  C   UNL d   1     -49.805  13.197  21.333  0.00  0.00     0.000 C 
ENDROOT
BRANCH   1  13
ATOM     13  C   UNL d   1     -45.796  12.797  22.801  0.00  0.00     0.216 C 
ATOM     14  O   UNL d   1     -45.733  12.224  23.391  0.00  0.00    -0.644 OA
ATOM     15  O   UNL d   1     -45.168  12.931  22.288  0.00  0.00    -0.644 OA
ENDBRANCH   1  13
TORSDOF 1
ENDMDL
MODEL 2
REMARK VINA RESULT:      -7.7      2.375      3.672
REMARK  1 active torsions:
REMARK  status: ('A' for Active; 'I' for Inactive)
REMARK    1  A    between atoms: C_6  and  C_1 
ROOT
ATOM      1  C   UNL d   1     -49.484  12.222  23.212  0.00  0.00     0.128 A 
ATOM      2  C   UNL d   1     -49.258  11.492  23.522  0.00  0.00     0.306 A 
ATOM      3  C   UNL d   1     -48.908  12.797  23.036  0.00  0.00     0.013 A 
ATOM      4  O   UNL d   1     -48.454  11.332  23.658  0.00  0.00    -0.273 OA
ATOM      5  C   UNL d   1     -48.111  12.631  23.173  0.00  0.00     0.023 A 
ATOM      6  C   UNL d   1     -47.885  11.901  23.483  0.00  0.00     0.103 A 
ATOM      7  O   UNL d   1     -49.827  10.923  23.696  0.00  0.00    -0.259 OA
ATOM      8  C   UNL d   1     -47.541  13.199  22.999  0.00  0.00     0.002 A 
ATOM      9  C   UNL d   1     -47.089  11.739  23.619  0.00  0.00     0.025 A 
ATOM     10  C   UNL d   1     -46.746  13.038  23.135  0.00  0.00     0.000 A 
ATOM     11  C   UNL d   1     -46.520  12.307  23.444  0.00  0.00     0.002 A 
ATOM     12  C   UNL d   1     -46.176  13.606  22.961  0.00  0.00     0.000 C 
ENDROOT
BRANCH   1  13
ATOM     13  C   UNL d   1     -50.284  12.382  23.077  0.00  0.00     0.216 C 
ATOM     14  O   UNL d   1     -50.608  12.257  22.329  0.00  0.00    -0.644 OA
ATOM     15  O   UNL d   1     -50.756  12.667  23.688  0.00  0.00    -0.644 OA
ENDBRANCH   1  13
TORSDOF 1
ENDMDL
MODEL 3
REMARK VINA RESULT:      -7.7      1.403      1.935
REMARK  1 active torsions:
REMARK  status: ('A' for Active; 'I' for Inactive)
REMARK    1  A    between atoms: C_6  and  C_1 
ROOT
ATOM      1  C   UNL d   1     -46.743  12.924  23.058  0.00  0.00     0.128 A 
ATOM      2  C   UNL d   1     -46.588  12.235  23.484  0.00  0.00     0.306 A 
ATOM      3  C   UNL d   1     -47.525  13.113  22.842  0.00  0.00     0.013 A 
ATOM      4  O   UNL d   1     -47.213  11.732  23.698  0.00  0.00    -0.273 OA
ATOM      5  C   UNL d   1     -48.141  12.608  23.058  0.00  0.00     0.023 A 
ATOM      6  C   UNL d   1     -47.986  11.920  23.484  0.00  0.00     0.103 A 
ATOM      7  O   UNL d   1     -45.815  12.047  23.698  0.00  0.00    -0.259 OA
ATOM      8  C   UNL d   1     -48.914  12.795  22.845  0.00  0.00     0.002 A 
ATOM      9  C   UNL d   1     -48.603  11.418  23.698  0.00  0.00     0.025 A 
ATOM     10  C   UNL d   1     -49.531  12.295  23.058  0.00  0.00     0.000 A 
ATOM     11  C   UNL d   1     -49.376  11.606  23.485  0.00  0.00     0.002 A 
ATOM     12  C   UNL d   1     -50.304  12.482  22.845  0.00  0.00     0.000 C 
ENDROOT
BRANCH   1  13
ATOM     13  C   UNL d   1     -46.122  13.426  22.844  0.00  0.00     0.216 C 
ATOM     14  O   UNL d   1     -45.937  14.075  23.318  0.00  0.00    -0.644 OA
ATOM     15  O   UNL d   1     -45.688  13.278  22.161  0.00  0.00    -0.644 OA
ENDBRANCH   1  13
TORSDOF 1
ENDMDL
MODEL 4
REMARK VINA RESULT:      -7.7      1.937      3.408
REMARK  1 active torsions:
REMARK  status: ('A' for Active; 'I' for Inactive)
REMARK    1  A    between atoms: C_6  and  C_1 
ROOT
ATOM      1  C   UNL d   1     -49.210  14.742  23.036  0.00  0.00     0.128 A 
ATOM      2  C   UNL d   1     -49.529  14.010  23.244  0.00  0.00     0.306 A 
ATOM      3  C   UNL d   1     -48.401  14.807  22.850  0.00  0.00     0.013 A 
ATOM      4  O   UNL d   1     -49.040  13.338  23.267  0.00  0.00    -0.273 OA
ATOM      5  C   UNL d   1     -47.922  14.136  22.875  0.00  0.00     0.023 A 
ATOM      6  C   UNL d   1     -48.240  13.403  23.082  0.00  0.00     0.103 A 
ATOM      7  O   UNL d   1     -50.328  13.945  23.428  0.00  0.00    -0.259 OA
ATOM      8  C   UNL d   1     -47.122  14.199  22.691  0.00  0.00     0.002 A 
ATOM      9  C   UNL d   1     -47.759  12.735  23.106  0.00  0.00     0.025 A 
ATOM     10  C   UNL d   1     -46.641  13.533  22.714  0.00  0.00     0.000 A 
ATOM     11  C   UNL d   1     -46.959  12.801  22.922  0.00  0.00     0.002 A 
ATOM     12  C   UNL d   1     -45.841  13.597  22.530  0.00  0.00     0.000 C 
ENDROOT
BRANCH   1  13
ATOM     13  C   UNL d   1     -49.696  15.411  23.013  0.00  0.00     0.216 C 
ATOM     14  O   UNL d   1     -49.792  15.873  23.689  0.00  0.00    -0.644 OA
ATOM     15  O   UNL d   1     -50.083  15.615  22.316  0.00  0.00    -0.644 OA
ENDBRANCH   1  13
TORSDOF 1
ENDMDL
MODEL 5
REMARK VINA RESULT:      -7.3      1.242      1.986
REMARK  1 active torsions:
REMARK  status: ('A' for Active; 'I' for Inactive)
REMARK    1  A    between atoms: C_6  and  C_1 
ROOT
ATOM      1  C   UNL d   1     -47.168  12.107  23.414  0.00  0.00     0.128 A 
ATOM      2  C   UNL d   1     -46.391  12.384  23.443  0.00  0.00     0.306 A 
ATOM      3  C   UNL d   1     -47.786  12.621  23.194  0.00  0.00     0.013 A 
ATOM      4  O   UNL d   1     -46.228  13.176  23.253  0.00  0.00    -0.273 OA
ATOM      5  C   UNL d   1     -47.615  13.406  23.006  0.00  0.00     0.023 A 
ATOM      6  C   UNL d   1     -46.839  13.683  23.035  0.00  0.00     0.103 A 
ATOM      7  O   UNL d   1     -45.780  11.877  23.661  0.00  0.00    -0.259 OA
ATOM      8  C   UNL d   1     -48.226  13.914  22.788  0.00  0.00     0.002 A 
ATOM      9  C   UNL d   1     -46.672  14.468  22.847  0.00  0.00     0.025 A 
ATOM     10  C   UNL d   1     -48.060  14.698  22.600  0.00  0.00     0.000 A 
ATOM     11  C   UNL d   1     -47.284  14.974  22.629  0.00  0.00     0.002 A 
ATOM     12  C   UNL d   1     -48.671  15.206  22.382  0.00  0.00     0.000 C 
ENDROOT
BRANCH   1  13
ATOM     13  C   UNL d   1     -47.332  11.319  23.604  0.00  0.00     0.216 C 
ATOM     14  O   UNL d   1     -46.713  10.782  23.698  0.00  0.00    -0.644 OA
ATOM     15  O   UNL d   1     -48.111  11.072  23.698  0.00  0.00    -0.644 OA
ENDBRANCH   1  13
TORSDOF 1
ENDMDL
MODEL 6
REMARK VINA RESULT:      -7.0      1.537      1.881
REMARK  1 active torsions:
REMARK  status: ('A' for Active; 'I' for Inactive)
REMARK    1  A    between atoms: C_6  and  C_1 
ROOT
ATOM      1  C   UNL d   1     -47.673  13.737  22.869  0.00  0.00     0.128 A 
ATOM      2  C   UNL d   1     -48.089  14.444  22.779  0.00  0.00     0.306 A 
ATOM      3  C   UNL d   1     -48.077  13.038  23.072  0.00  0.00     0.013 A 
ATOM      4  O   UNL d   1     -48.912  14.456  22.893  0.00  0.00    -0.273 OA
ATOM      5  C   UNL d   1     -48.894  13.057  23.183  0.00  0.00     0.023 A 
ATOM      6  C   UNL d   1     -49.310  13.764  23.094  0.00  0.00     0.103 A 
ATOM      7  O   UNL d   1     -47.690  15.135  22.578  0.00  0.00    -0.259 OA
ATOM      8  C   UNL d   1     -49.295  12.366  23.385  0.00  0.00     0.002 A 
ATOM      9  C   UNL d   1     -50.127  13.780  23.206  0.00  0.00     0.025 A 
ATOM     10  C   UNL d   1     -50.109  12.382  23.497  0.00  0.00     0.000 A 
ATOM     11  C   UNL d   1     -50.525  13.089  23.407  0.00  0.00     0.002 A 
ATOM     12  C   UNL d   1     -50.510  11.691  23.698  0.00  0.00     0.000 C 
ENDROOT
BRANCH   1  13
ATOM     13  C   UNL d   1     -46.854  13.724  22.756  0.00  0.00     0.216 C 
ATOM     14  O   UNL d   1     -46.543  13.496  22.026  0.00  0.00    -0.644 OA
ATOM     15  O   UNL d   1     -46.349  13.937  23.370  0.00  0.00    -0.644 OA
ENDBRANCH   1  13
TORSDOF 1
ENDMDL
MODEL 7
REMARK VINA RESULT:      -6.6      1.962      2.582
REMARK  1 active torsions:
REMARK  status: ('A' for Active; 'I' for Inactive)
REMARK    1  A    between atoms: C_6  and  C_1 
ROOT
ATOM      1  C   UNL d   1     -48.650  12.278  22.962  0.00  0.00     0.128 A 
ATOM      2  C   UNL d   1     -48.954  12.139  22.208  0.00  0.00     0.306 A 
ATOM      3  C   UNL d   1     -48.785  13.008  23.339  0.00  0.00     0.013 A 
ATOM      4  O   UNL d   1     -49.395  12.731  21.826  0.00  0.00    -0.273 OA
ATOM      5  C   UNL d   1     -49.225  13.590  22.953  0.00  0.00     0.023 A 
ATOM      6  C   UNL d   1     -49.529  13.452  22.199  0.00  0.00     0.103 A 
ATOM      7  O   UNL d   1     -48.820  11.418  21.835  0.00  0.00    -0.259 OA
ATOM      8  C   UNL d   1     -49.359  14.313  23.326  0.00  0.00     0.002 A 
ATOM      9  C   UNL d   1     -49.967  14.036  21.817  0.00  0.00     0.025 A 
ATOM     10  C   UNL d   1     -49.796  14.896  22.944  0.00  0.00     0.000 A 
ATOM     11  C   UNL d   1     -50.100  14.757  22.190  0.00  0.00     0.002 A 
ATOM     12  C   UNL d   1     -49.931  15.618  23.317  0.00  0.00     0.000 C 
ENDROOT
BRANCH   1  13
ATOM     13  C   UNL d   1     -48.210  11.690  23.344  0.00  0.00     0.216 C 
ATOM     14  O   UNL d   1     -48.596  11.053  23.698  0.00  0.00    -0.644 OA
ATOM     15  O   UNL d   1     -47.390  11.741  23.370  0.00  0.00    -0.644 OA
ENDBRANCH   1  13
TORSDOF 1
ENDMDL
MODEL 8
REMARK VINA RESULT:      -5.8      1.471      2.771
REMARK  1 active torsions:
REMARK  status: ('A' for Active; 'I' for Inactive)
REMARK    1  A    between atoms: C_6  and  C_1 
ROOT
ATOM      1  C   UNL d   1     -46.979  14.014  22.833  0.00  0.00     0.128 A 
ATOM      2  C   UNL d   1     -47.793  13.880  22.862  0.00  0.00     0.306 A 
ATOM      3  C   UNL d   1     -46.448  13.393  22.996  0.00  0.00     0.013 A 
ATOM      4  O   UNL d   1     -48.080  13.124  23.054  0.00  0.00    -0.273 OA
ATOM      5  C   UNL d   1     -46.741  12.646  23.186  0.00  0.00     0.023 A 
ATOM      6  C   UNL d   1     -47.555  12.512  23.215  0.00  0.00     0.103 A 
ATOM      7  O   UNL d   1     -48.318  14.493  22.701  0.00  0.00    -0.259 OA
ATOM      8  C   UNL d   1     -46.216  12.032  23.347  0.00  0.00     0.002 A 
ATOM      9  C   UNL d   1     -47.843  11.764  23.405  0.00  0.00     0.025 A 
ATOM     10  C   UNL d   1     -46.504  11.285  23.537  0.00  0.00     0.000 A 
ATOM     11  C   UNL d   1     -47.318  11.151  23.566  0.00  0.00     0.002 A 
ATOM     12  C   UNL d   1     -45.980  10.671  23.698  0.00  0.00     0.000 C 
ENDROOT
BRANCH   1  13
ATOM     13  C   UNL d   1     -46.692  14.765  22.642  0.00  0.00     0.216 C 
ATOM     14  O   UNL d   1     -47.219  15.388  22.517  0.00  0.00    -0.644 OA
ATOM     15  O   UNL d   1     -45.882  14.892  22.575  0.00  0.00    -0.644 OA
ENDBRANCH   1  13
TORSDOF 1
ENDMDL
MODEL 9
REMARK VINA RESULT:      -5.7      7.083      8.109
REMARK  1 active torsions:
REMARK  status: ('A' for Active; 'I' for Inactive)
REMARK    1  A    between atoms: C_6  and  C_1 
ROOT
ATOM      1  C   UNL d   1     -40.759  15.333  20.169  0.00  0.00     0.128 A 
ATOM      2  C   UNL d   1     -40.693  14.510  20.160  0.00  0.00     0.306 A 
ATOM      3  C   UNL d   1     -40.661  15.766  19.464  0.00  0.00     0.013 A 
ATOM      4  O   UNL d   1     -40.529  14.117  19.447  0.00  0.00    -0.273 OA
ATOM      5  C   UNL d   1     -40.499  15.368  18.760  0.00  0.00     0.023 A 
ATOM      6  C   UNL d   1     -40.433  14.546  18.751  0.00  0.00     0.103 A 
ATOM      7  O   UNL d   1     -40.788  14.081  20.856  0.00  0.00    -0.259 OA
ATOM      8  C   UNL d   1     -40.403  15.796  18.063  0.00  0.00     0.002 A 
ATOM      9  C   UNL d   1     -40.271  14.152  18.046  0.00  0.00     0.025 A 
ATOM     10  C   UNL d   1     -40.241  15.403  17.359  0.00  0.00     0.000 A 
ATOM     11  C   UNL d   1     -40.175  14.581  17.350  0.00  0.00     0.002 A 
ATOM     12  C   UNL d   1     -40.145  15.831  16.662  0.00  0.00     0.000 C 
ENDROOT
BRANCH   1  13
ATOM     13  C   UNL d   1     -40.921  15.726  20.878  0.00  0.00     0.216 C 
ATOM     14  O   UNL d   1     -40.305  15.922  21.390  0.00  0.00    -0.644 OA
ATOM     15  O   UNL d   1     -41.696  15.921  21.073  0.00  0.00    -0.644 OA
ENDBRANCH   1  13
TORSDOF 1
ENDMDL
