MODEL 1
REMARK VINA RESULT:      46.5      0.000      0.000
REMARK  3 active torsions:
REMARK  status: ('A' for Active; 'I' for Inactive)
REMARK    1  A    between atoms: C_12  and  C_4 
REMARK       I    between atoms: C_6  and  N_11 
REMARK    2  A    between atoms: C_7  and  C_6 
REMARK    3  A    between atoms: N_11  and  C_18 
ROOT
ATOM      1  C   UNL d   1     -50.810  25.881  33.460  0.00  0.00     0.019 A 
ATOM      2  C   UNL d   1     -51.090  26.634  33.650  0.00  0.00     0.003 A 
ATOM      3  C   UNL d   1     -50.016  25.767  33.306  0.00  0.00     0.003 A 
ATOM      4  C   UNL d   1     -49.773  27.158  33.529  0.00  0.00     0.085 A 
ATOM      5  C   UNL d   1     -49.497  26.406  33.340  0.00  0.00     0.019 A 
ATOM      6  C   UNL d   1     -50.575  27.267  33.684  0.00  0.00     0.019 A 
ENDROOT
BRANCH   1   7
ATOM      7  C   UNL d   1     -51.330  25.236  33.425  0.00  0.00     0.101 A 
ATOM      8  N   UNL d   1     -52.138  25.314  33.429  0.00  0.00    -0.221 NA
ATOM      9  C   UNL d   1     -52.472  24.563  33.388  0.00  0.00     0.179 A 
ATOM     10  N   UNL d   1     -51.868  24.012  33.358  0.00  0.00    -0.282 N 
ATOM     11  S   UNL d   1     -53.191  24.155  33.366  0.00  0.00    -0.048 SA
ATOM     12  C   UNL d   1     -51.154  24.432  33.381  0.00  0.00     0.101 A 
ATOM     13  C   UNL d   1     -52.202  23.260  33.317  0.00  0.00     0.089 A 
ATOM     14  C   UNL d   1     -53.022  23.355  33.322  0.00  0.00     0.057 A 
ENDBRANCH   1   7
BRANCH   4  15
ATOM     15  N   UNL d   1     -49.253  27.803  33.564  0.00  0.00    -0.208 NA
ATOM     16  C   UNL d   1     -48.891  28.003  34.281  0.00  0.00     0.279 C 
ATOM     17  O   UNL d   1     -48.376  28.639  34.319  0.00  0.00    -0.265 OA
BRANCH  16  18
ATOM     18  C   UNL d   1     -49.053  27.558  34.954  0.00  0.00     0.058 A 
ATOM     19  C   UNL d   1     -49.259  27.942  35.659  0.00  0.00     0.005 A 
ATOM     20  C   UNL d   1     -49.217  27.114  35.636  0.00  0.00     0.005 A 
ENDBRANCH  16  18
ENDBRANCH   4  15
TORSDOF 3
ENDMDL
MODEL 2
REMARK VINA RESULT:      49.3      0.746      1.105
REMARK  3 active torsions:
REMARK  status: ('A' for Active; 'I' for Inactive)
REMARK    1  A    between atoms: C_12  and  C_4 
REMARK       I    between atoms: C_6  and  N_11 
REMARK    2  A    between atoms: C_7  and  C_6 
REMARK    3  A    between atoms: N_11  and  C_18 
ROOT
ATOM      1  C   UNL d   1     -50.854  25.638  33.728  0.00  0.00     0.019 A 
ATOM      2  C   UNL d   1     -51.029  26.327  34.148  0.00  0.00     0.003 A 
ATOM      3  C   UNL d   1     -50.109  25.529  33.413  0.00  0.00     0.003 A 
ATOM      4  C   UNL d   1     -49.705  26.797  33.937  0.00  0.00     0.085 A 
ATOM      5  C   UNL d   1     -49.533  26.110  33.518  0.00  0.00     0.019 A 
ATOM      6  C   UNL d   1     -50.459  26.901  34.251  0.00  0.00     0.019 A 
ENDROOT
BRANCH   1   7
ATOM      7  C   UNL d   1     -51.432  25.053  33.621  0.00  0.00     0.101 A 
ATOM      8  N   UNL d   1     -52.229  25.207  33.621  0.00  0.00    -0.221 NA
ATOM      9  C   UNL d   1     -52.631  24.498  33.501  0.00  0.00     0.179 A 
ATOM     10  N   UNL d   1     -52.081  23.898  33.426  0.00  0.00    -0.282 N 
ATOM     11  S   UNL d   1     -53.384  24.166  33.428  0.00  0.00    -0.048 SA
ATOM     12  C   UNL d   1     -51.331  24.243  33.501  0.00  0.00     0.101 A 
ATOM     13  C   UNL d   1     -52.483  23.189  33.307  0.00  0.00     0.089 A 
ATOM     14  C   UNL d   1     -53.291  23.361  33.309  0.00  0.00     0.057 A 
ENDBRANCH   1   7
BRANCH   4  15
ATOM     15  N   UNL d   1     -49.127  27.383  34.043  0.00  0.00    -0.208 NA
ATOM     16  C   UNL d   1     -49.302  28.172  33.869  0.00  0.00     0.279 C 
ATOM     17  O   UNL d   1     -48.732  28.753  33.973  0.00  0.00    -0.265 OA
BRANCH  16  18
ATOM     18  C   UNL d   1     -50.051  28.369  33.591  0.00  0.00     0.058 A 
ATOM     19  C   UNL d   1     -50.195  29.136  33.311  0.00  0.00     0.005 A 
ATOM     20  C   UNL d   1     -50.805  28.573  33.309  0.00  0.00     0.005 A 
ENDBRANCH  16  18
ENDBRANCH   4  15
TORSDOF 3
ENDMDL
