MODEL 1
REMARK VINA RESULT:      -8.1      0.000      0.000
REMARK  5 active torsions:
REMARK  status: ('A' for Active; 'I' for Inactive)
REMARK    1  A    between atoms: C_3  and  C_1 
REMARK    2  A    between atoms: N_2  and  C_7 
REMARK       I    between atoms: N_4  and  C_3 
REMARK    3  A    between atoms: C_9  and  N_4 
REMARK    4  A    between atoms: O_19  and  C_6 
REMARK    5  A    between atoms: O_20  and  C_10 
ROOT
ATOM      1  C   UNL d   1      51.905  33.557  52.706  0.00  0.00     0.281 C 
ATOM      2  N   UNL d   1      51.250  33.973  52.986  0.00  0.00    -0.206 NA
ATOM      3  O   UNL d   1      51.934  33.323  51.941  0.00  0.00    -0.265 OA
ENDROOT
BRANCH   1   4
ATOM      4  C   UNL d   1      52.530  33.385  53.227  0.00  0.00     0.080 A 
ATOM      5  C   UNL d   1      52.878  33.976  53.671  0.00  0.00     0.007 A 
ATOM      6  C   UNL d   1      53.508  33.783  54.191  0.00  0.00     0.000 A 
ATOM      7  C   UNL d   1      53.852  34.385  54.634  0.00  0.00     0.000 A 
ATOM      8  C   UNL d   1      53.757  32.997  54.239  0.00  0.00     0.002 A 
ATOM      9  C   UNL d   1      54.483  34.183  55.153  0.00  0.00     0.000 A 
ATOM     10  C   UNL d   1      54.722  33.427  55.199  0.00  0.00     0.000 A 
ATOM     11  C   UNL d   1      54.376  32.825  54.754  0.00  0.00     0.000 A 
ATOM     12  C   UNL d   1      53.393  32.420  53.784  0.00  0.00     0.024 A 
ATOM     13  C   UNL d   1      52.772  32.626  53.274  0.00  0.00     0.099 A 
BRANCH  13  14
ATOM     14  O   UNL d   1      52.389  32.051  52.803  0.00  0.00    -0.328 OA
ATOM     15  C   UNL d   1      52.598  31.247  52.887  0.00  0.00     0.181 C 
ENDBRANCH  13  14
ENDBRANCH   1   4
BRANCH   2  16
ATOM     16  C   UNL d   1      50.636  34.151  52.506  0.00  0.00     0.107 A 
ATOM     17  C   UNL d   1      49.970  34.506  52.827  0.00  0.00     0.113 A 
ATOM     18  C   UNL d   1      49.327  34.695  52.342  0.00  0.00     0.049 A 
ATOM     19  C   UNL d   1      49.345  34.531  51.530  0.00  0.00     0.129 A 
ATOM     20  C   UNL d   1      50.014  34.176  51.210  0.00  0.00     0.025 A 
ATOM     21  C   UNL d   1      50.655  33.985  51.687  0.00  0.00     0.023 A 
BRANCH  17  22
ATOM     22  O   UNL d   1      49.939  34.677  53.648  0.00  0.00    -0.327 OA
ATOM     23  C   UNL d   1      49.436  35.294  53.913  0.00  0.00     0.181 C 
ENDBRANCH  17  22
BRANCH  19  24
ATOM     24  N   UNL d   1      48.687  34.731  51.062  0.00  0.00    -0.114 N 
ATOM     25  O   UNL d   1      48.294  34.118  50.672  0.00  0.00    -0.532 OA
ATOM     26  O   UNL d   1      48.447  35.513  50.998  0.00  0.00    -0.532 OA
ENDBRANCH  19  24
ENDBRANCH   2  16
TORSDOF 5
ENDMDL
MODEL 2
REMARK VINA RESULT:      -7.8      1.474      4.856
REMARK  5 active torsions:
REMARK  status: ('A' for Active; 'I' for Inactive)
REMARK    1  A    between atoms: C_3  and  C_1 
REMARK    2  A    between atoms: N_2  and  C_7 
REMARK       I    between atoms: N_4  and  C_3 
REMARK    3  A    between atoms: C_9  and  N_4 
REMARK    4  A    between atoms: O_19  and  C_6 
REMARK    5  A    between atoms: O_20  and  C_10 
ROOT
ATOM      1  C   UNL d   1      50.289  34.233  52.883  0.00  0.00     0.281 C 
ATOM      2  N   UNL d   1      51.002  34.568  53.130  0.00  0.00    -0.206 NA
ATOM      3  O   UNL d   1      50.239  33.443  52.760  0.00  0.00    -0.265 OA
ENDROOT
BRANCH   1   4
ATOM      4  C   UNL d   1      49.629  34.724  52.766  0.00  0.00     0.080 A 
ATOM      5  C   UNL d   1      49.324  35.167  53.380  0.00  0.00     0.007 A 
ATOM      6  C   UNL d   1      48.656  35.657  53.241  0.00  0.00     0.000 A 
ATOM      7  C   UNL d   1      48.357  36.101  53.866  0.00  0.00     0.000 A 
ATOM      8  C   UNL d   1      48.327  35.676  52.485  0.00  0.00     0.002 A 
ATOM      9  C   UNL d   1      47.687  36.590  53.720  0.00  0.00     0.000 A 
ATOM     10  C   UNL d   1      47.371  36.607  52.991  0.00  0.00     0.000 A 
ATOM     11  C   UNL d   1      47.673  36.162  52.366  0.00  0.00     0.000 A 
ATOM     12  C   UNL d   1      48.650  35.222  51.883  0.00  0.00     0.024 A 
ATOM     13  C   UNL d   1      49.309  34.743  52.034  0.00  0.00     0.099 A 
BRANCH  13  14
ATOM     14  O   UNL d   1      49.652  34.273  51.433  0.00  0.00    -0.328 OA
ATOM     15  C   UNL d   1      49.310  34.270  50.672  0.00  0.00     0.181 C 
ENDBRANCH  13  14
ENDBRANCH   1   4
BRANCH   2  16
ATOM     16  C   UNL d   1      51.652  34.117  53.251  0.00  0.00     0.107 A 
ATOM     17  C   UNL d   1      52.323  34.466  53.566  0.00  0.00     0.113 A 
ATOM     18  C   UNL d   1      53.003  34.013  53.696  0.00  0.00     0.049 A 
ATOM     19  C   UNL d   1      53.016  33.205  53.511  0.00  0.00     0.129 A 
ATOM     20  C   UNL d   1      52.341  32.858  53.195  0.00  0.00     0.025 A 
ATOM     21  C   UNL d   1      51.663  33.303  53.063  0.00  0.00     0.023 A 
BRANCH  17  22
ATOM     22  O   UNL d   1      52.323  35.283  53.758  0.00  0.00    -0.327 OA
ATOM     23  C   UNL d   1      52.926  35.581  54.260  0.00  0.00     0.181 C 
ENDBRANCH  17  22
BRANCH  19  24
ATOM     24  N   UNL d   1      53.711  32.769  53.650  0.00  0.00    -0.114 N 
ATOM     25  O   UNL d   1      53.717  32.253  54.295  0.00  0.00    -0.532 OA
ATOM     26  O   UNL d   1      54.360  32.857  53.156  0.00  0.00    -0.532 OA
ENDBRANCH  19  24
ENDBRANCH   2  16
TORSDOF 5
ENDMDL
MODEL 3
REMARK VINA RESULT:      -7.5      1.430      2.420
REMARK  5 active torsions:
REMARK  status: ('A' for Active; 'I' for Inactive)
REMARK    1  A    between atoms: C_3  and  C_1 
REMARK    2  A    between atoms: N_2  and  C_7 
REMARK       I    between atoms: N_4  and  C_3 
REMARK    3  A    between atoms: C_9  and  N_4 
REMARK    4  A    between atoms: O_19  and  C_6 
REMARK    5  A    between atoms: O_20  and  C_10 
ROOT
ATOM      1  C   UNL d   1      50.876  34.470  53.301  0.00  0.00     0.281 C 
ATOM      2  N   UNL d   1      50.314  34.352  52.708  0.00  0.00    -0.206 NA
ATOM      3  O   UNL d   1      50.756  35.027  53.863  0.00  0.00    -0.265 OA
ENDROOT
BRANCH   1   4
ATOM      4  C   UNL d   1      51.565  34.004  53.305  0.00  0.00     0.080 A 
ATOM      5  C   UNL d   1      51.529  33.206  53.135  0.00  0.00     0.007 A 
ATOM      6  C   UNL d   1      52.236  32.752  53.145  0.00  0.00     0.000 A 
ATOM      7  C   UNL d   1      52.191  31.949  52.973  0.00  0.00     0.000 A 
ATOM      8  C   UNL d   1      52.948  33.129  53.327  0.00  0.00     0.002 A 
ATOM      9  C   UNL d   1      52.903  31.500  52.984  0.00  0.00     0.000 A 
ATOM     10  C   UNL d   1      53.588  31.863  53.159  0.00  0.00     0.000 A 
ATOM     11  C   UNL d   1      53.631  32.669  53.331  0.00  0.00     0.000 A 
ATOM     12  C   UNL d   1      52.959  33.931  53.494  0.00  0.00     0.024 A 
ATOM     13  C   UNL d   1      52.254  34.367  53.481  0.00  0.00     0.099 A 
BRANCH  13  14
ATOM     14  O   UNL d   1      52.246  35.186  53.649  0.00  0.00    -0.328 OA
ATOM     15  C   UNL d   1      52.930  35.545  53.964  0.00  0.00     0.181 C 
ENDBRANCH  13  14
ENDBRANCH   1   4
BRANCH   2  16
ATOM     16  C   UNL d   1      49.643  34.787  52.682  0.00  0.00     0.107 A 
ATOM     17  C   UNL d   1      49.219  34.820  51.981  0.00  0.00     0.113 A 
ATOM     18  C   UNL d   1      48.524  35.266  51.938  0.00  0.00     0.049 A 
ATOM     19  C   UNL d   1      48.246  35.683  52.598  0.00  0.00     0.129 A 
ATOM     20  C   UNL d   1      48.673  35.648  53.300  0.00  0.00     0.025 A 
ATOM     21  C   UNL d   1      49.365  35.207  53.348  0.00  0.00     0.023 A 
BRANCH  17  22
ATOM     22  O   UNL d   1      49.490  34.402  51.304  0.00  0.00    -0.327 OA
ATOM     23  C   UNL d   1      48.952  34.256  50.678  0.00  0.00     0.181 C 
ENDBRANCH  17  22
BRANCH  19  24
ATOM     24  N   UNL d   1      47.544  36.125  52.532  0.00  0.00    -0.114 N 
ATOM     25  O   UNL d   1      46.946  35.979  53.083  0.00  0.00    -0.532 OA
ATOM     26  O   UNL d   1      47.461  36.682  51.936  0.00  0.00    -0.532 OA
ENDBRANCH  19  24
ENDBRANCH   2  16
TORSDOF 5
ENDMDL
MODEL 4
REMARK VINA RESULT:      -6.7      2.817      4.213
REMARK  5 active torsions:
REMARK  status: ('A' for Active; 'I' for Inactive)
REMARK    1  A    between atoms: C_3  and  C_1 
REMARK    2  A    between atoms: N_2  and  C_7 
REMARK       I    between atoms: N_4  and  C_3 
REMARK    3  A    between atoms: C_9  and  N_4 
REMARK    4  A    between atoms: O_19  and  C_6 
REMARK    5  A    between atoms: O_20  and  C_10 
ROOT
ATOM      1  C   UNL d   1      52.990  31.897  53.940  0.00  0.00     0.281 C 
ATOM      2  N   UNL d   1      53.452  32.388  54.416  0.00  0.00    -0.206 NA
ATOM      3  O   UNL d   1      52.446  32.215  53.446  0.00  0.00    -0.265 OA
ENDROOT
BRANCH   1   4
ATOM      4  C   UNL d   1      53.097  31.074  53.982  0.00  0.00     0.080 A 
ATOM      5  C   UNL d   1      53.155  30.696  54.704  0.00  0.00     0.007 A 
ATOM      6  C   UNL d   1      53.263  29.864  54.725  0.00  0.00     0.000 A 
ATOM      7  C   UNL d   1      53.321  29.492  55.457  0.00  0.00     0.000 A 
ATOM      8  C   UNL d   1      53.307  29.451  54.011  0.00  0.00     0.002 A 
ATOM      9  C   UNL d   1      53.429  28.658  55.470  0.00  0.00     0.000 A 
ATOM     10  C   UNL d   1      53.471  28.260  54.783  0.00  0.00     0.000 A 
ATOM     11  C   UNL d   1      53.413  28.635  54.050  0.00  0.00     0.000 A 
ATOM     12  C   UNL d   1      53.247  29.850  53.298  0.00  0.00     0.024 A 
ATOM     13  C   UNL d   1      53.140  30.673  53.293  0.00  0.00     0.099 A 
BRANCH  13  14
ATOM     14  O   UNL d   1      53.076  31.098  52.575  0.00  0.00    -0.328 OA
ATOM     15  C   UNL d   1      53.092  30.682  51.851  0.00  0.00     0.181 C 
ENDBRANCH  13  14
ENDBRANCH   1   4
BRANCH   2  16
ATOM     16  C   UNL d   1      53.369  33.183  54.395  0.00  0.00     0.107 A 
ATOM     17  C   UNL d   1      53.952  33.652  54.729  0.00  0.00     0.113 A 
ATOM     18  C   UNL d   1      53.880  34.476  54.715  0.00  0.00     0.049 A 
ATOM     19  C   UNL d   1      53.222  34.839  54.366  0.00  0.00     0.129 A 
ATOM     20  C   UNL d   1      52.638  34.366  54.032  0.00  0.00     0.025 A 
ATOM     21  C   UNL d   1      52.704  33.547  54.043  0.00  0.00     0.023 A 
BRANCH  17  22
ATOM     22  O   UNL d   1      54.625  33.298  55.086  0.00  0.00    -0.327 OA
ATOM     23  C   UNL d   1      55.276  33.785  55.292  0.00  0.00     0.181 C 
ENDBRANCH  17  22
BRANCH  19  24
ATOM     24  N   UNL d   1      53.169  35.669  54.363  0.00  0.00    -0.114 N 
ATOM     25  O   UNL d   1      52.626  36.020  54.876  0.00  0.00    -0.532 OA
ATOM     26  O   UNL d   1      53.647  36.111  53.864  0.00  0.00    -0.532 OA
ENDBRANCH  19  24
ENDBRANCH   2  16
TORSDOF 5
ENDMDL
MODEL 5
REMARK VINA RESULT:      -5.8      3.036      5.131
REMARK  5 active torsions:
REMARK  status: ('A' for Active; 'I' for Inactive)
REMARK    1  A    between atoms: C_3  and  C_1 
REMARK    2  A    between atoms: N_2  and  C_7 
REMARK       I    between atoms: N_4  and  C_3 
REMARK    3  A    between atoms: C_9  and  N_4 
REMARK    4  A    between atoms: O_19  and  C_6 
REMARK    5  A    between atoms: O_20  and  C_10 
ROOT
ATOM      1  C   UNL d   1      53.488  32.120  54.628  0.00  0.00     0.281 C 
ATOM      2  N   UNL d   1      53.256  31.528  54.101  0.00  0.00    -0.206 NA
ATOM      3  O   UNL d   1      53.773  31.925  55.350  0.00  0.00    -0.265 OA
ENDROOT
BRANCH   1   4
ATOM      4  C   UNL d   1      53.421  32.916  54.399  0.00  0.00     0.080 A 
ATOM      5  C   UNL d   1      52.766  33.179  53.988  0.00  0.00     0.007 A 
ATOM      6  C   UNL d   1      52.717  33.987  53.765  0.00  0.00     0.000 A 
ATOM      7  C   UNL d   1      52.053  34.242  53.352  0.00  0.00     0.000 A 
ATOM      8  C   UNL d   1      53.336  34.494  53.969  0.00  0.00     0.002 A 
ATOM      9  C   UNL d   1      52.010  35.053  53.132  0.00  0.00     0.000 A 
ATOM     10  C   UNL d   1      52.606  35.541  53.328  0.00  0.00     0.000 A 
ATOM     11  C   UNL d   1      53.271  35.283  53.743  0.00  0.00     0.000 A 
ATOM     12  C   UNL d   1      53.984  34.208  54.381  0.00  0.00     0.024 A 
ATOM     13  C   UNL d   1      54.019  33.408  54.595  0.00  0.00     0.099 A 
BRANCH  13  14
ATOM     14  O   UNL d   1      54.672  33.098  55.015  0.00  0.00    -0.328 OA
ATOM     15  C   UNL d   1      55.287  33.612  55.252  0.00  0.00     0.181 C 
ENDBRANCH  13  14
ENDBRANCH   1   4
BRANCH   2  16
ATOM     16  C   UNL d   1      53.310  30.755  54.298  0.00  0.00     0.107 A 
ATOM     17  C   UNL d   1      53.299  30.193  53.702  0.00  0.00     0.113 A 
ATOM     18  C   UNL d   1      53.354  29.389  53.889  0.00  0.00     0.049 A 
ATOM     19  C   UNL d   1      53.421  29.140  54.677  0.00  0.00     0.129 A 
ATOM     20  C   UNL d   1      53.432  29.707  55.273  0.00  0.00     0.025 A 
ATOM     21  C   UNL d   1      53.378  30.506  55.092  0.00  0.00     0.023 A 
BRANCH  17  22
ATOM     22  O   UNL d   1      53.232  30.430  52.899  0.00  0.00    -0.327 OA
ATOM     23  C   UNL d   1      52.840  29.922  52.358  0.00  0.00     0.181 C 
ENDBRANCH  17  22
BRANCH  19  24
ATOM     24  N   UNL d   1      53.476  28.327  54.842  0.00  0.00    -0.114 N 
ATOM     25  O   UNL d   1      53.011  28.029  55.456  0.00  0.00    -0.532 OA
ATOM     26  O   UNL d   1      53.977  27.849  54.404  0.00  0.00    -0.532 OA
ENDBRANCH  19  24
ENDBRANCH   2  16
TORSDOF 5
ENDMDL
MODEL 6
REMARK VINA RESULT:      -5.5      1.411      4.847
REMARK  5 active torsions:
REMARK  status: ('A' for Active; 'I' for Inactive)
REMARK    1  A    between atoms: C_3  and  C_1 
REMARK    2  A    between atoms: N_2  and  C_7 
REMARK       I    between atoms: N_4  and  C_3 
REMARK    3  A    between atoms: C_9  and  N_4 
REMARK    4  A    between atoms: O_19  and  C_6 
REMARK    5  A    between atoms: O_20  and  C_10 
ROOT
ATOM      1  C   UNL d   1      50.712  34.548  52.768  0.00  0.00     0.281 C 
ATOM      2  N   UNL d   1      50.886  33.944  53.303  0.00  0.00    -0.206 NA
ATOM      3  O   UNL d   1      51.293  34.862  52.315  0.00  0.00    -0.265 OA
ENDROOT
BRANCH   1   4
ATOM      4  C   UNL d   1      49.930  34.824  52.707  0.00  0.00     0.080 A 
ATOM      5  C   UNL d   1      49.580  35.227  53.325  0.00  0.00     0.007 A 
ATOM      6  C   UNL d   1      48.790  35.497  53.244  0.00  0.00     0.000 A 
ATOM      7  C   UNL d   1      48.446  35.903  53.872  0.00  0.00     0.000 A 
ATOM      8  C   UNL d   1      48.388  35.346  52.539  0.00  0.00     0.002 A 
ATOM      9  C   UNL d   1      47.653  36.171  53.784  0.00  0.00     0.000 A 
ATOM     10  C   UNL d   1      47.266  36.025  53.105  0.00  0.00     0.000 A 
ATOM     11  C   UNL d   1      47.613  35.618  52.476  0.00  0.00     0.000 A 
ATOM     12  C   UNL d   1      48.759  34.939  51.932  0.00  0.00     0.024 A 
ATOM     13  C   UNL d   1      49.540  34.678  52.025  0.00  0.00     0.099 A 
BRANCH  13  14
ATOM     14  O   UNL d   1      49.935  34.261  51.417  0.00  0.00    -0.328 OA
ATOM     15  C   UNL d   1      49.565  34.176  50.673  0.00  0.00     0.181 C 
ENDBRANCH  13  14
ENDBRANCH   1   4
BRANCH   2  16
ATOM     16  C   UNL d   1      51.630  33.662  53.381  0.00  0.00     0.107 A 
ATOM     17  C   UNL d   1      51.745  32.851  53.410  0.00  0.00     0.113 A 
ATOM     18  C   UNL d   1      52.509  32.544  53.491  0.00  0.00     0.049 A 
ATOM     19  C   UNL d   1      53.166  33.047  53.542  0.00  0.00     0.129 A 
ATOM     20  C   UNL d   1      53.047  33.860  53.512  0.00  0.00     0.025 A 
ATOM     21  C   UNL d   1      52.291  34.170  53.433  0.00  0.00     0.023 A 
BRANCH  17  22
ATOM     22  O   UNL d   1      51.089  32.329  53.359  0.00  0.00    -0.327 OA
ATOM     23  C   UNL d   1      51.230  31.503  53.338  0.00  0.00     0.181 C 
ENDBRANCH  17  22
BRANCH  19  24
ATOM     24  N   UNL d   1      53.925  32.716  53.623  0.00  0.00    -0.114 N 
ATOM     25  O   UNL d   1      54.205  32.580  54.387  0.00  0.00    -0.532 OA
ATOM     26  O   UNL d   1      54.369  32.536  52.957  0.00  0.00    -0.532 OA
ENDBRANCH  19  24
ENDBRANCH   2  16
TORSDOF 5
ENDMDL
