MODEL 1
REMARK VINA RESULT:      48.9      0.000      0.000
REMARK  6 active torsions:
REMARK  status: ('A' for Active; 'I' for Inactive)
REMARK    1  A    between atoms: N_6  and  C_1 
REMARK    2  A    between atoms: C_4  and  C_2 
REMARK    3  A    between atoms: C_7  and  C_4 
REMARK    4  A    between atoms: C_8  and  C_4 
REMARK    5  A    between atoms: O_12  and  C_7 
REMARK    6  A    between atoms: C_16  and  O_12 
ROOT
ATOM      1  C   UNL d   1      13.951  12.593  -2.264  0.00  0.00     0.166 A 
ATOM      2  C   UNL d   1      13.919  13.403  -2.420  0.00  0.00     0.122 A 
ATOM      3  N   UNL d   1      13.678  12.047  -2.825  0.00  0.00    -0.225 NA
ATOM      4  N   UNL d   1      13.614  13.666  -3.142  0.00  0.00    -0.241 NA
ATOM      5  C   UNL d   1      13.374  12.320  -3.545  0.00  0.00     0.101 A 
ATOM      6  C   UNL d   1      13.343  13.125  -3.701  0.00  0.00     0.099 A 
ATOM      7  C   UNL d   1      13.105  11.780  -4.097  0.00  0.00     0.021 A 
ATOM      8  C   UNL d   1      13.039  13.392  -4.420  0.00  0.00     0.021 A 
ATOM      9  C   UNL d   1      12.769  12.853  -4.975  0.00  0.00     0.002 A 
ATOM     10  C   UNL d   1      12.800  12.043  -4.819  0.00  0.00     0.002 A 
ENDROOT
BRANCH   2  11
ATOM     11  C   UNL d   1      14.192  13.949  -1.858  0.00  0.00     0.105 C 
BRANCH  11  12
ATOM     12  C   UNL d   1      14.478  14.684  -2.101  0.00  0.00     0.303 C 
ATOM     13  O   UNL d   1      14.459  14.887  -2.898  0.00  0.00    -0.259 OA
BRANCH  12  14
ATOM     14  O   UNL d   1      14.782  15.210  -1.549  0.00  0.00    -0.273 OA
BRANCH  14  15
ATOM     15  C   UNL d   1      15.074  15.955  -1.367  0.00  0.00     0.103 A 
ATOM     16  C   UNL d   1      15.450  16.079  -0.643  0.00  0.00     0.025 A 
ATOM     17  C   UNL d   1      15.744  16.821  -0.456  0.00  0.00     0.002 A 
ATOM     18  C   UNL d   1      15.664  17.436  -0.987  0.00  0.00     0.000 A 
ATOM     19  C   UNL d   1      15.292  17.317  -1.705  0.00  0.00     0.002 A 
ATOM     20  C   UNL d   1      14.994  16.569  -1.899  0.00  0.00     0.025 A 
ENDBRANCH  14  15
ENDBRANCH  12  14
ENDBRANCH  11  12
BRANCH  11  21
ATOM     21  C   UNL d   1      14.180  13.762  -1.049  0.00  0.00     0.129 C 
ATOM     22  N   UNL d   1      13.684  14.262  -0.409  0.00  0.00    -0.146 N 
ENDBRANCH  11  21
ENDBRANCH   2  11
BRANCH   1  23
ATOM     23  N   UNL d   1      14.255  12.322  -1.544  0.00  0.00    -0.288 N 
ATOM     24  C   UNL d   1      15.076  12.219  -1.461  0.00  0.00     0.082 A 
ATOM     25  C   UNL d   1      15.375  11.945  -0.734  0.00  0.00     0.018 A 
ATOM     26  C   UNL d   1      16.190  11.840  -0.644  0.00  0.00     0.002 C 
ATOM     27  C   UNL d   1      14.863  11.779  -0.102  0.00  0.00     0.003 A 
ATOM     28  C   UNL d   1      14.051  11.886  -0.199  0.00  0.00     0.019 A 
ATOM     29  C   UNL d   1      13.742  12.156  -0.913  0.00  0.00     0.082 A 
ENDBRANCH   1  23
TORSDOF 6
ENDMDL
