MODEL 1
REMARK VINA RESULT:      40.2      0.000      0.000
REMARK  6 active torsions:
REMARK  status: ('A' for Active; 'I' for Inactive)
REMARK    1  A    between atoms: C_4  and  C_1 
REMARK    2  A    between atoms: C_7  and  C_4 
REMARK    3  A    between atoms: N_10  and  C_7 
REMARK    4  A    between atoms: C_11  and  N_10 
REMARK    5  A    between atoms: O_14  and  C_12 
REMARK    6  A    between atoms: C_19  and  O_14 
ROOT
ATOM      1  C   UNL d   1      13.762  12.875  -3.535  0.00  0.00     0.122 C 
ATOM      2  C   UNL d   1      13.305  12.362  -3.987  0.00  0.00     0.106 C 
ATOM      3  N   UNL d   1      12.847  11.849  -4.441  0.00  0.00    -0.191 NA
ENDROOT
BRANCH   1   4
ATOM      4  C   UNL d   1      13.926  12.695  -2.746  0.00  0.00     0.159 A 
ATOM      5  N   UNL d   1      14.573  12.966  -2.308  0.00  0.00    -0.226 NA
ATOM      6  C   UNL d   1      14.518  12.653  -1.553  0.00  0.00     0.099 A 
ATOM      7  C   UNL d   1      15.001  12.729  -0.882  0.00  0.00     0.021 A 
ATOM      8  C   UNL d   1      13.838  12.187  -1.518  0.00  0.00     0.083 A 
ATOM      9  C   UNL d   1      14.795  12.336  -0.183  0.00  0.00     0.002 A 
ATOM     10  C   UNL d   1      14.116  11.871  -0.148  0.00  0.00     0.002 A 
ATOM     11  C   UNL d   1      13.634  11.793  -0.810  0.00  0.00     0.019 A 
ATOM     12  N   UNL d   1      13.470  12.211  -2.251  0.00  0.00    -0.287 N 
ATOM     13  C   UNL d   1      12.769  11.824  -2.468  0.00  0.00     0.101 C 
ENDBRANCH   1   4
BRANCH   1  14
ATOM     14  C   UNL d   1      14.056  13.567  -3.869  0.00  0.00     0.112 C 
BRANCH  14  15
ATOM     15  N   UNL d   1      13.865  14.299  -3.539  0.00  0.00    -0.241 NA
BRANCH  15  16
ATOM     16  C   UNL d   1      14.053  14.996  -3.942  0.00  0.00     0.104 A 
ATOM     17  C   UNL d   1      14.260  15.678  -3.526  0.00  0.00     0.118 A 
ATOM     18  C   UNL d   1      14.447  16.370  -3.932  0.00  0.00     0.026 A 
ATOM     19  C   UNL d   1      14.426  16.381  -4.759  0.00  0.00     0.002 A 
ATOM     20  C   UNL d   1      14.217  15.691  -5.185  0.00  0.00     0.002 A 
ATOM     21  C   UNL d   1      14.030  15.001  -4.768  0.00  0.00     0.021 A 
BRANCH  17  22
ATOM     22  O   UNL d   1      14.279  15.662  -2.708  0.00  0.00    -0.304 OA
BRANCH  22  23
ATOM     23  C   UNL d   1      14.712  16.234  -2.299  0.00  0.00     0.123 C 
ATOM     24  C   UNL d   1      14.751  16.217  -1.479  0.00  0.00     0.029 C 
ENDBRANCH  22  23
ENDBRANCH  17  22
ENDBRANCH  15  16
ENDBRANCH  14  15
ENDBRANCH   1  14
TORSDOF 6
ENDMDL
