MODEL 1
REMARK VINA RESULT:     147.4      0.000      0.000
REMARK  5 active torsions:
REMARK  status: ('A' for Active; 'I' for Inactive)
REMARK    1  A    between atoms: C_5  and  C_1 
REMARK    2  A    between atoms: N_7  and  C_5 
REMARK    3  A    between atoms: C_10  and  C_5 
REMARK    4  A    between atoms: C_16  and  C_19 
REMARK    5  A    between atoms: C_20  and  C_16 
ROOT
ATOM      1  C   UNL d   1     -56.244 -99.872 -43.318  0.00  0.00     0.085 C 
ENDROOT
BRANCH   1   2
ATOM      2  C   UNL d   1     -57.027 -99.605 -43.497  0.00  0.00     0.059 A 
ATOM      3  C   UNL d   1     -57.293 -99.569 -44.291  0.00  0.00     0.214 A 
ATOM      4  C   UNL d   1     -58.064 -99.305 -44.450  0.00  0.00     0.121 A 
ATOM      5  O   UNL d   1     -56.803 -99.790 -44.907  0.00  0.00    -0.285 OA
ATOM      6  N   UNL d   1     -58.330 -99.267 -45.224  0.00  0.00    -0.241 NA
ATOM      7  C   UNL d   1     -58.563 -99.080 -43.822  0.00  0.00     0.032 A 
ATOM      8  C   UNL d   1     -59.110 -98.999 -45.369  0.00  0.00     0.099 A 
ATOM      9  C   UNL d   1     -59.590 -98.782 -44.765  0.00  0.00     0.021 A 
ATOM     10  C   UNL d   1     -59.322 -98.819 -43.974  0.00  0.00     0.004 A 
ATOM     11  C   UNL d   1     -58.285 -99.121 -43.042  0.00  0.00     0.059 A 
ATOM     12  C   UNL d   1     -57.507 -99.389 -42.894  0.00  0.00     0.016 A 
ATOM     13 CL   UNL d   1     -58.777 -98.900 -42.423  0.00  0.00    -0.082 Cl
ENDBRANCH   1   2
BRANCH   1  14
ATOM     14  N   UNL d   1     -55.882 -99.648 -42.611  0.00  0.00    -0.302 N 
ATOM     15  C   UNL d   1     -55.365 -98.997 -42.587  0.00  0.00     0.080 A 
ATOM     16  C   UNL d   1     -55.003 -98.772 -41.880  0.00  0.00     0.019 A 
ATOM     17  C   UNL d   1     -55.153 -99.195 -41.192  0.00  0.00     0.003 A 
ATOM     18  C   UNL d   1     -55.666 -99.843 -41.210  0.00  0.00     0.019 A 
ATOM     19  C   UNL d   1     -56.025-100.066 -41.910  0.00  0.00     0.080 A 
BRANCH  17  20
ATOM     20  C   UNL d   1     -54.794 -98.973 -40.492  0.00  0.00     0.000 C 
BRANCH  20  21
ATOM     21  C   UNL d   1     -54.956 -99.373 -39.806  0.00  0.00     0.000 A 
ATOM     22  C   UNL d   1     -55.277 -98.977 -39.163  0.00  0.00     0.000 A 
ATOM     23  C   UNL d   1     -55.441 -99.377 -38.469  0.00  0.00     0.000 A 
ATOM     24  C   UNL d   1     -55.283-100.185 -38.417  0.00  0.00     0.000 A 
ATOM     25  C   UNL d   1     -54.962-100.585 -39.056  0.00  0.00     0.000 A 
ATOM     26  C   UNL d   1     -54.796-100.176 -39.762  0.00  0.00     0.000 A 
ENDBRANCH  20  21
ENDBRANCH  17  20
ENDBRANCH   1  14
BRANCH   1  27
ATOM     27  C   UNL d   1     -55.835-100.370 -43.866  0.00  0.00     0.098 A 
ATOM     28  N   UNL d   1     -56.093-101.155 -43.971  0.00  0.00    -0.243 NA
ATOM     29  C   UNL d   1     -55.698-101.639 -44.501  0.00  0.00     0.099 A 
ATOM     30  C   UNL d   1     -55.055-101.344 -44.920  0.00  0.00     0.021 A 
ATOM     31  C   UNL d   1     -54.795-100.565 -44.819  0.00  0.00     0.003 A 
ATOM     32  C   UNL d   1     -55.189-100.081 -44.290  0.00  0.00     0.021 A 
ENDBRANCH   1  27
TORSDOF 5
ENDMDL
