MODEL 1
REMARK VINA RESULT:      -9.1      0.000      0.000
REMARK  2 active torsions:
REMARK  status: ('A' for Active; 'I' for Inactive)
REMARK    1  A    between atoms: N_9  and  C_2 
REMARK    2  A    between atoms: C_11  and  N_9 
ROOT
ATOM      1  C   UNL d   1      53.431  33.924  54.041  0.00  0.00     0.154 A 
ATOM      2  C   UNL d   1      53.695  33.157  53.916  0.00  0.00     0.185 A 
ATOM      3  C   UNL d   1      53.596  34.307  54.753  0.00  0.00     0.186 A 
ATOM      4  N   UNL d   1      52.997  34.441  53.567  0.00  0.00    -0.218 NA
ATOM      5  N   UNL d   1      53.263  35.060  54.717  0.00  0.00    -0.203 NA
ATOM      6  N   UNL d   1      54.127  32.769  54.502  0.00  0.00    -0.203 NA
ATOM      7  N   UNL d   1      54.025  33.924  55.339  0.00  0.00    -0.203 NA
ATOM      8  C   UNL d   1      52.897  35.143  53.992  0.00  0.00     0.201 A 
ATOM      9  C   UNL d   1      54.292  33.152  55.214  0.00  0.00     0.202 A 
ENDROOT
BRANCH   2  10
ATOM     10  N   UNL d   1      53.530  32.774  53.204  0.00  0.00    -0.225 NA
BRANCH  10  11
ATOM     11  C   UNL d   1      53.331  31.977  53.200  0.00  0.00     0.083 A 
ATOM     12  C   UNL d   1      53.918  31.402  53.277  0.00  0.00     0.021 A 
ATOM     13  C   UNL d   1      53.721  30.609  53.273  0.00  0.00     0.031 A 
ATOM     14  C   UNL d   1      52.925  30.377  53.193  0.00  0.00     0.140 A 
ATOM     15  C   UNL d   1      52.338  30.951  53.117  0.00  0.00     0.031 A 
ATOM     16  F   UNL d   1      52.719  29.573  53.189  0.00  0.00    -0.204 F 
ATOM     17  C   UNL d   1      52.541  31.752  53.120  0.00  0.00     0.021 A 
ENDBRANCH  10  11
ENDBRANCH   2  10
TORSDOF 2
ENDMDL
MODEL 2
REMARK VINA RESULT:      -8.8      2.085      3.043
REMARK  2 active torsions:
REMARK  status: ('A' for Active; 'I' for Inactive)
REMARK    1  A    between atoms: N_9  and  C_2 
REMARK    2  A    between atoms: C_11  and  N_9 
ROOT
ATOM      1  C   UNL d   1      53.580  33.316  54.133  0.00  0.00     0.154 A 
ATOM      2  C   UNL d   1      53.056  33.374  53.504  0.00  0.00     0.185 A 
ATOM      3  C   UNL d   1      53.908  32.586  54.333  0.00  0.00     0.186 A 
ATOM      4  N   UNL d   1      53.875  33.882  54.656  0.00  0.00    -0.218 NA
ATOM      5  N   UNL d   1      54.406  32.702  54.979  0.00  0.00    -0.203 NA
ATOM      6  N   UNL d   1      52.857  32.701  53.071  0.00  0.00    -0.203 NA
ATOM      7  N   UNL d   1      53.713  31.914  53.903  0.00  0.00    -0.203 NA
ATOM      8  C   UNL d   1      54.387  33.494  55.178  0.00  0.00     0.201 A 
ATOM      9  C   UNL d   1      53.186  31.971  53.270  0.00  0.00     0.202 A 
ENDROOT
BRANCH   2  10
ATOM     10  N   UNL d   1      52.727  34.104  53.305  0.00  0.00    -0.225 NA
BRANCH  10  11
ATOM     11  C   UNL d   1      51.970  34.143  52.987  0.00  0.00     0.083 A 
ATOM     12  C   UNL d   1      51.311  34.135  53.483  0.00  0.00     0.021 A 
ATOM     13  C   UNL d   1      50.558  34.174  53.168  0.00  0.00     0.031 A 
ATOM     14  C   UNL d   1      50.452  34.223  52.343  0.00  0.00     0.140 A 
ATOM     15  C   UNL d   1      51.111  34.231  51.847  0.00  0.00     0.031 A 
ATOM     16  F   UNL d   1      49.691  34.263  52.017  0.00  0.00    -0.204 F 
ATOM     17  C   UNL d   1      51.871  34.191  52.169  0.00  0.00     0.021 A 
ENDBRANCH  10  11
ENDBRANCH   2  10
TORSDOF 2
ENDMDL
MODEL 3
REMARK VINA RESULT:      -8.7      2.059      3.687
REMARK  2 active torsions:
REMARK  status: ('A' for Active; 'I' for Inactive)
REMARK    1  A    between atoms: N_9  and  C_2 
REMARK    2  A    between atoms: C_11  and  N_9 
ROOT
ATOM      1  C   UNL d   1      53.230  31.095  53.346  0.00  0.00     0.154 A 
ATOM      2  C   UNL d   1      53.580  31.827  53.469  0.00  0.00     0.185 A 
ATOM      3  C   UNL d   1      52.498  31.043  52.970  0.00  0.00     0.186 A 
ATOM      4  N   UNL d   1      53.476  30.330  53.533  0.00  0.00    -0.218 NA
ATOM      5  N   UNL d   1      52.292  30.247  52.926  0.00  0.00    -0.203 NA
ATOM      6  N   UNL d   1      53.197  32.513  53.217  0.00  0.00    -0.203 NA
ATOM      7  N   UNL d   1      52.114  31.725  52.718  0.00  0.00    -0.203 NA
ATOM      8  C   UNL d   1      52.890  29.809  53.270  0.00  0.00     0.201 A 
ATOM      9  C   UNL d   1      52.464  32.462  52.842  0.00  0.00     0.202 A 
ENDROOT
BRANCH   2  10
ATOM     10  N   UNL d   1      54.313  31.878  53.845  0.00  0.00    -0.225 NA
BRANCH  10  11
ATOM     11  C   UNL d   1      54.501  32.540  54.293  0.00  0.00     0.083 A 
ATOM     12  C   UNL d   1      54.212  32.617  55.062  0.00  0.00     0.021 A 
ATOM     13  C   UNL d   1      54.399  33.275  55.509  0.00  0.00     0.031 A 
ATOM     14  C   UNL d   1      54.884  33.872  55.190  0.00  0.00     0.140 A 
ATOM     15  C   UNL d   1      55.174  33.796  54.421  0.00  0.00     0.031 A 
ATOM     16  F   UNL d   1      55.078  34.543  55.639  0.00  0.00    -0.204 F 
ATOM     17  C   UNL d   1      54.982  33.130  53.973  0.00  0.00     0.021 A 
ENDBRANCH  10  11
ENDBRANCH   2  10
TORSDOF 2
ENDMDL
MODEL 4
REMARK VINA RESULT:      -8.2      2.143      3.102
REMARK  2 active torsions:
REMARK  status: ('A' for Active; 'I' for Inactive)
REMARK    1  A    between atoms: N_9  and  C_2 
REMARK    2  A    between atoms: C_11  and  N_9 
ROOT
ATOM      1  C   UNL d   1      51.813  33.435  53.315  0.00  0.00     0.154 A 
ATOM      2  C   UNL d   1      52.611  33.558  53.458  0.00  0.00     0.185 A 
ATOM      3  C   UNL d   1      51.360  34.025  52.958  0.00  0.00     0.186 A 
ATOM      4  N   UNL d   1      51.321  32.790  53.465  0.00  0.00    -0.218 NA
ATOM      5  N   UNL d   1      50.589  33.743  52.888  0.00  0.00    -0.203 NA
ATOM      6  N   UNL d   1      52.962  34.274  53.244  0.00  0.00    -0.203 NA
ATOM      7  N   UNL d   1      51.706  34.738  52.744  0.00  0.00    -0.203 NA
ATOM      8  C   UNL d   1      50.563  32.988  53.197  0.00  0.00     0.201 A 
ATOM      9  C   UNL d   1      52.509  34.864  52.887  0.00  0.00     0.202 A 
ENDROOT
BRANCH   2  10
ATOM     10  N   UNL d   1      53.064  32.968  53.815  0.00  0.00    -0.225 NA
BRANCH  10  11
ATOM     11  C   UNL d   1      53.742  33.165  54.234  0.00  0.00     0.083 A 
ATOM     12  C   UNL d   1      54.482  33.117  53.872  0.00  0.00     0.021 A 
ATOM     13  C   UNL d   1      55.158  33.313  54.289  0.00  0.00     0.031 A 
ATOM     14  C   UNL d   1      55.102  33.562  55.082  0.00  0.00     0.140 A 
ATOM     15  C   UNL d   1      54.363  33.609  55.443  0.00  0.00     0.031 A 
ATOM     16  F   UNL d   1      55.784  33.762  55.510  0.00  0.00    -0.204 F 
ATOM     17  C   UNL d   1      53.682  33.411  55.020  0.00  0.00     0.021 A 
ENDBRANCH  10  11
ENDBRANCH   2  10
TORSDOF 2
ENDMDL
