MODEL 1
REMARK VINA RESULT:      33.9      0.000      0.000
REMARK  5 active torsions:
REMARK  status: ('A' for Active; 'I' for Inactive)
REMARK    1  A    between atoms: C_6  and  C_1 
REMARK    2  A    between atoms: C_9  and  N_2 
REMARK    3  A    between atoms: O_13  and  C_8 
REMARK    4  A    between atoms: O_15  and  C_9 
REMARK    5  A    between atoms: O_14  and  C_10 
ROOT
ATOM      1  C   UNL d   1     -57.974 -98.755 -44.702  0.00  0.00     0.149 A 
ATOM      2  N   UNL d   1     -58.800 -98.755 -44.674  0.00  0.00    -0.269 N 
ATOM      3  N   UNL d   1     -57.774 -98.755 -45.504  0.00  0.00    -0.227 NA
ATOM      4  C   UNL d   1     -59.095 -98.755 -45.430  0.00  0.00     0.085 A 
ATOM      5  C   UNL d   1     -58.431 -98.755 -45.966  0.00  0.00     0.099 A 
ATOM      6  C   UNL d   1     -59.844 -98.755 -45.708  0.00  0.00     0.019 A 
ATOM      7  C   UNL d   1     -58.619 -98.755 -46.774  0.00  0.00     0.021 A 
ATOM      8  C   UNL d   1     -59.960 -98.755 -46.501  0.00  0.00     0.002 A 
ATOM      9  C   UNL d   1     -59.337 -98.755 -47.004  0.00  0.00     0.002 A 
ENDROOT
BRANCH   1  10
ATOM     10  C   UNL d   1     -57.224 -98.755 -44.425  0.00  0.00     0.037 A 
ATOM     11  C   UNL d   1     -56.594 -98.755 -44.958  0.00  0.00     0.029 A 
ATOM     12  C   UNL d   1     -55.814 -98.755 -44.686  0.00  0.00     0.116 A 
ATOM     13  C   UNL d   1     -55.663 -98.756 -43.868  0.00  0.00     0.116 A 
ATOM     14  C   UNL d   1     -56.293 -98.756 -43.330  0.00  0.00     0.026 A 
ATOM     15  C   UNL d   1     -57.073 -98.756 -43.607  0.00  0.00     0.005 A 
BRANCH  12  16
ATOM     16  O   UNL d   1     -55.185 -98.755 -45.218  0.00  0.00    -0.326 OA
ATOM     17  C   UNL d   1     -54.774 -99.456 -45.390  0.00  0.00     0.181 C 
ENDBRANCH  12  16
BRANCH  13  18
ATOM     18  O   UNL d   1     -54.884 -98.756 -43.591  0.00  0.00    -0.326 OA
ATOM     19  C   UNL d   1     -54.731 -98.758 -42.773  0.00  0.00     0.181 C 
ENDBRANCH  13  18
ENDBRANCH   1  10
BRANCH   2  20
ATOM     20  C   UNL d   1     -59.092 -98.755 -43.942  0.00  0.00     0.205 C 
BRANCH  20  21
ATOM     21  O   UNL d   1     -59.639 -99.303 -43.692  0.00  0.00    -0.310 OA
ATOM     22  C   UNL d   1     -59.836 -99.418 -42.905  0.00  0.00     0.183 C 
ENDBRANCH  20  21
ENDBRANCH   2  20
TORSDOF 5
ENDMDL
