MODEL 1
REMARK VINA RESULT:      53.8      0.000      0.000
REMARK  2 active torsions:
REMARK  status: ('A' for Active; 'I' for Inactive)
REMARK    1  A    between atoms: N_2  and  S_1 
REMARK    2  A    between atoms: C_4  and  S_1 
ROOT
ATOM      1  S   UNL d   1      59.433  49.123  50.799  0.00  0.00     0.273 S 
ATOM      2  O   UNL d   1      59.122  49.705  50.308  0.00  0.00    -0.200 OA
ATOM      3  O   UNL d   1      58.925  48.651  51.246  0.00  0.00    -0.200 OA
ENDROOT
BRANCH   1   4
ATOM      4  N   UNL d   1      60.249  49.013  50.844  0.00  0.00    -0.212 N 
ATOM      5  C   UNL d   1      60.661  48.713  50.185  0.00  0.00     0.193 A 
ATOM      6  N   UNL d   1      61.486  48.602  50.230  0.00  0.00    -0.223 NA
ATOM      7  C   UNL d   1      61.477  49.088  51.582  0.00  0.00     0.100 A 
ATOM      8  C   UNL d   1      60.662  49.202  51.549  0.00  0.00     0.094 A 
ATOM      9  C   UNL d   1      61.886  49.277  52.286  0.00  0.00     0.021 A 
ATOM     10  C   UNL d   1      60.249  49.498  52.197  0.00  0.00     0.020 A 
ATOM     11  C   UNL d   1      60.653  49.685  52.894  0.00  0.00     0.002 A 
ATOM     12  C   UNL d   1      61.473  49.575  52.939  0.00  0.00     0.002 A 
ENDBRANCH   1   4
BRANCH   1  13
ATOM     13  C   UNL d   1      58.627  49.241  50.747  0.00  0.00     0.104 A 
ATOM     14  C   UNL d   1      58.247  49.147  50.019  0.00  0.00     0.012 A 
ATOM     15  C   UNL d   1      57.441  49.264  49.957  0.00  0.00     0.001 A 
ATOM     16  C   UNL d   1      58.688  48.936  49.357  0.00  0.00     0.001 C 
ATOM     17  C   UNL d   1      57.000  49.477  50.626  0.00  0.00     0.000 A 
ATOM     18  C   UNL d   1      57.377  49.571  51.355  0.00  0.00     0.001 A 
ATOM     19  C   UNL d   1      56.190  49.594  50.565  0.00  0.00     0.000 C 
ATOM     20  C   UNL d   1      58.190  49.452  51.409  0.00  0.00     0.013 A 
ENDBRANCH   1  13
TORSDOF 2
ENDMDL
