MODEL 1
REMARK VINA RESULT:      -6.7      0.000      0.000
REMARK  4 active torsions:
REMARK  status: ('A' for Active; 'I' for Inactive)
REMARK    1  A    between atoms: C_10  and  N_4 
REMARK    2  A    between atoms: C_11  and  C_10 
REMARK       I    between atoms: N_15  and  C_11 
REMARK    3  A    between atoms: C_12  and  C_20 
REMARK    4  A    between atoms: C_20  and  N_15 
ROOT
ATOM      1  C   UNL d   1     -42.475-122.646 -49.658  0.00  0.00     0.174 A 
ATOM      2  C   UNL d   1     -41.780-122.994 -49.394  0.00  0.00     0.112 A 
ATOM      3  C   UNL d   1     -42.527-122.339 -50.419  0.00  0.00     0.290 A 
ATOM      4  N   UNL d   1     -41.875-122.382 -50.921  0.00  0.00    -0.249 N 
ATOM      5  O   UNL d   1     -43.025-122.683 -49.039  0.00  0.00    -0.301 OA
ATOM      6  N   UNL d   1     -41.128-123.037 -49.896  0.00  0.00    -0.223 NA
ATOM      7  C   UNL d   1     -41.894-123.246 -48.617  0.00  0.00     0.043 A 
ATOM      8  C   UNL d   1     -41.172-122.732 -50.661  0.00  0.00     0.185 A 
ATOM      9  C   UNL d   1     -42.668-123.052 -48.399  0.00  0.00     0.102 A 
ATOM     10  O   UNL d   1     -43.225-121.990 -50.683  0.00  0.00    -0.264 OA
ATOM     11  C   UNL d   1     -41.396-123.626 -48.084  0.00  0.00     0.004 A 
ATOM     12  C   UNL d   1     -42.937-123.242 -47.642  0.00  0.00     0.025 A 
ATOM     13  C   UNL d   1     -41.665-123.817 -47.323  0.00  0.00     0.000 A 
ATOM     14  C   UNL d   1     -42.439-123.622 -47.108  0.00  0.00     0.002 A 
ENDROOT
BRANCH   4  15
ATOM     15  C   UNL d   1     -41.915-122.077 -51.690  0.00  0.00     0.147 C 
BRANCH  15  16
ATOM     16  C   UNL d   1     -41.699-122.540 -52.336  0.00  0.00     0.297 C 
ATOM     17  N   UNL d   1     -41.836-122.257 -53.088  0.00  0.00    -0.203 NA
ATOM     18  O   UNL d   1     -41.349-123.278 -52.223  0.00  0.00    -0.264 OA
BRANCH  17  19
ATOM     19  C   UNL d   1     -41.623-122.713 -53.741  0.00  0.00     0.127 C 
BRANCH  19  20
ATOM     20  C   UNL d   1     -41.735-122.410 -54.501  0.00  0.00     0.119 A 
ATOM     21  O   UNL d   1     -41.150-122.198 -55.045  0.00  0.00    -0.304 OA
ATOM     22  C   UNL d   1     -41.520-121.920 -55.737  0.00  0.00     0.123 A 
ATOM     23  C   UNL d   1     -42.341-121.960 -55.620  0.00  0.00     0.029 A 
ATOM     24  C   UNL d   1     -42.479-122.261 -54.861  0.00  0.00     0.028 A 
ENDBRANCH  19  20
ENDBRANCH  17  19
ENDBRANCH  15  16
ENDBRANCH   4  15
TORSDOF 4
ENDMDL
MODEL 2
REMARK VINA RESULT:      -6.3      1.109      5.530
REMARK  4 active torsions:
REMARK  status: ('A' for Active; 'I' for Inactive)
REMARK    1  A    between atoms: C_10  and  N_4 
REMARK    2  A    between atoms: C_11  and  C_10 
REMARK       I    between atoms: N_15  and  C_11 
REMARK    3  A    between atoms: C_12  and  C_20 
REMARK    4  A    between atoms: C_20  and  N_15 
ROOT
ATOM      1  C   UNL d   1     -41.459-122.151 -52.733  0.00  0.00     0.174 A 
ATOM      2  C   UNL d   1     -41.515-122.884 -53.097  0.00  0.00     0.112 A 
ATOM      3  C   UNL d   1     -41.329-122.095 -51.923  0.00  0.00     0.290 A 
ATOM      4  N   UNL d   1     -41.254-122.781 -51.474  0.00  0.00    -0.249 N 
ATOM      5  O   UNL d   1     -41.556-121.572 -53.317  0.00  0.00    -0.301 OA
ATOM      6  N   UNL d   1     -41.440-123.571 -52.649  0.00  0.00    -0.223 NA
ATOM      7  C   UNL d   1     -41.645-122.764 -53.903  0.00  0.00     0.043 A 
ATOM      8  C   UNL d   1     -41.309-123.523 -51.835  0.00  0.00     0.185 A 
ATOM      9  C   UNL d   1     -41.670-121.949 -54.038  0.00  0.00     0.102 A 
ATOM     10  O   UNL d   1     -41.274-121.358 -51.558  0.00  0.00    -0.264 OA
ATOM     11  C   UNL d   1     -41.743-123.291 -54.528  0.00  0.00     0.004 A 
ATOM     12  C   UNL d   1     -41.795-121.666 -54.803  0.00  0.00     0.025 A 
ATOM     13  C   UNL d   1     -41.868-123.008 -55.298  0.00  0.00     0.000 A 
ATOM     14  C   UNL d   1     -41.893-122.193 -55.429  0.00  0.00     0.002 A 
ENDROOT
BRANCH   4  15
ATOM     15  C   UNL d   1     -41.123-122.738 -50.657  0.00  0.00     0.147 C 
BRANCH  15  16
ATOM     16  C   UNL d   1     -41.611-123.143 -50.133  0.00  0.00     0.297 C 
ATOM     17  N   UNL d   1     -41.412-123.164 -49.343  0.00  0.00    -0.203 NA
ATOM     18  O   UNL d   1     -42.292-123.523 -50.403  0.00  0.00    -0.264 OA
BRANCH  17  19
ATOM     19  C   UNL d   1     -41.894-123.567 -48.809  0.00  0.00     0.127 C 
BRANCH  19  20
ATOM     20  C   UNL d   1     -41.759-123.485 -47.998  0.00  0.00     0.119 A 
ATOM     21  O   UNL d   1     -41.127-123.794 -47.565  0.00  0.00    -0.304 OA
ATOM     22  C   UNL d   1     -41.220-123.572 -46.768  0.00  0.00     0.123 A 
ATOM     23  C   UNL d   1     -41.916-123.122 -46.709  0.00  0.00     0.029 A 
ATOM     24  C   UNL d   1     -42.251-123.065 -47.463  0.00  0.00     0.028 A 
ENDBRANCH  19  20
ENDBRANCH  17  19
ENDBRANCH  15  16
ENDBRANCH   4  15
TORSDOF 4
ENDMDL
