MODEL 1
REMARK VINA RESULT:      -8.3      0.000      0.000
REMARK  3 active torsions:
REMARK  status: ('A' for Active; 'I' for Inactive)
REMARK    1  A    between atoms: N_4  and  C_1 
REMARK    2  A    between atoms: C_3  and  N_4 
REMARK    3  A    between atoms: C_8  and  C_5 
ROOT
ATOM      1  C   UNL d   1     -48.474  13.228  21.881  0.00  0.00     0.750 A 
ATOM      2  N   UNL d   1     -48.812  13.855  22.296  0.00  0.00    -0.059 NA
ATOM      3  C   UNL d   1     -49.625  13.975  22.271  0.00  0.00     0.103 A 
ATOM      4  N   UNL d   1     -48.938  12.723  21.445  0.00  0.00    -0.058 NA
ATOM      5  C   UNL d   1     -50.100  13.464  21.829  0.00  0.00     0.041 A 
ATOM      6  C   UNL d   1     -49.755  12.831  21.411  0.00  0.00     0.120 A 
ENDROOT
BRANCH   1   7
ATOM      7  N   UNL d   1     -47.659  13.115  21.911  0.00  0.00    -0.059 NA
BRANCH   7   8
ATOM      8  C   UNL d   1     -47.327  12.633  22.495  0.00  0.00     0.101 A 
ATOM      9  C   UNL d   1     -47.753  11.996  22.801  0.00  0.00     0.041 A 
ATOM     10  C   UNL d   1     -47.414  11.517  23.387  0.00  0.00     0.104 A 
ATOM     11  N   UNL d   1     -47.840  10.880  23.694  0.00  0.00    -0.148 N 
ATOM     12  C   UNL d   1     -46.654  11.676  23.663  0.00  0.00     0.021 A 
ATOM     13  C   UNL d   1     -46.228  12.313  23.357  0.00  0.00     0.003 A 
ATOM     14  C   UNL d   1     -46.562  12.790  22.775  0.00  0.00     0.018 A 
ATOM     15  C   UNL d   1     -46.136  13.427  22.469  0.00  0.00     0.002 C 
ENDBRANCH   7   8
ENDBRANCH   1   7
BRANCH   3  16
ATOM     16  C   UNL d   1     -49.962  14.599  22.684  0.00  0.00     0.037 A 
ATOM     17  C   UNL d   1     -49.532  15.288  22.797  0.00  0.00     0.100 A 
ATOM     18  N   UNL d   1     -49.861  15.922  23.210  0.00  0.00    -0.242 NA
ATOM     19  C   UNL d   1     -50.631  15.859  23.513  0.00  0.00     0.099 A 
ATOM     20  C   UNL d   1     -51.064  15.160  23.398  0.00  0.00     0.021 A 
ATOM     21  C   UNL d   1     -50.728  14.536  22.985  0.00  0.00     0.005 A 
ENDBRANCH   3  16
TORSDOF 3
ENDMDL
MODEL 2
REMARK VINA RESULT:      -8.2      1.223      3.991
REMARK  3 active torsions:
REMARK  status: ('A' for Active; 'I' for Inactive)
REMARK    1  A    between atoms: N_4  and  C_1 
REMARK    2  A    between atoms: C_3  and  N_4 
REMARK    3  A    between atoms: C_8  and  C_5 
ROOT
ATOM      1  C   UNL d   1     -49.114  12.876  23.555  0.00  0.00     0.750 A 
ATOM      2  N   UNL d   1     -48.340  13.075  23.350  0.00  0.00    -0.059 NA
ATOM      3  C   UNL d   1     -47.787  12.484  23.206  0.00  0.00     0.103 A 
ATOM      4  N   UNL d   1     -49.338  12.097  23.615  0.00  0.00    -0.058 NA
ATOM      5  C   UNL d   1     -48.011  11.692  23.266  0.00  0.00     0.041 A 
ATOM      6  C   UNL d   1     -48.794  11.494  23.472  0.00  0.00     0.120 A 
ENDROOT
BRANCH   1   7
ATOM      7  N   UNL d   1     -49.662  13.474  23.698  0.00  0.00    -0.059 NA
BRANCH   7   8
ATOM      8  C   UNL d   1     -50.085  13.809  23.073  0.00  0.00     0.101 A 
ATOM      9  C   UNL d   1     -50.362  13.336  22.456  0.00  0.00     0.041 A 
ATOM     10  C   UNL d   1     -50.786  13.679  21.831  0.00  0.00     0.104 A 
ATOM     11  N   UNL d   1     -51.064  13.206  21.214  0.00  0.00    -0.148 N 
ATOM     12  C   UNL d   1     -50.930  14.491  21.825  0.00  0.00     0.021 A 
ATOM     13  C   UNL d   1     -50.653  14.964  22.442  0.00  0.00     0.003 A 
ATOM     14  C   UNL d   1     -50.232  14.626  23.063  0.00  0.00     0.018 A 
ATOM     15  C   UNL d   1     -49.954  15.099  23.680  0.00  0.00     0.002 C 
ENDBRANCH   7   8
ENDBRANCH   1   7
BRANCH   3  16
ATOM     16  C   UNL d   1     -47.017  12.682  23.002  0.00  0.00     0.037 A 
ATOM     17  C   UNL d   1     -46.391  12.293  23.361  0.00  0.00     0.100 A 
ATOM     18  N   UNL d   1     -45.613  12.484  23.165  0.00  0.00    -0.242 NA
ATOM     19  C   UNL d   1     -45.465  13.075  22.600  0.00  0.00     0.099 A 
ATOM     20  C   UNL d   1     -46.101  13.468  22.238  0.00  0.00     0.021 A 
ATOM     21  C   UNL d   1     -46.871  13.270  22.441  0.00  0.00     0.005 A 
ENDBRANCH   3  16
TORSDOF 3
ENDMDL
MODEL 3
REMARK VINA RESULT:      -7.4      1.469      2.246
REMARK  3 active torsions:
REMARK  status: ('A' for Active; 'I' for Inactive)
REMARK    1  A    between atoms: N_4  and  C_1 
REMARK    2  A    between atoms: C_3  and  N_4 
REMARK    3  A    between atoms: C_8  and  C_5 
ROOT
ATOM      1  C   UNL d   1     -47.899  12.774  23.428  0.00  0.00     0.750 A 
ATOM      2  N   UNL d   1     -48.534  13.048  22.979  0.00  0.00    -0.059 NA
ATOM      3  C   UNL d   1     -49.160  12.545  22.801  0.00  0.00     0.103 A 
ATOM      4  N   UNL d   1     -47.884  12.007  23.698  0.00  0.00    -0.058 NA
ATOM      5  C   UNL d   1     -49.149  11.765  23.073  0.00  0.00     0.041 A 
ATOM      6  C   UNL d   1     -48.504  11.492  23.526  0.00  0.00     0.120 A 
ENDROOT
BRANCH   1   7
ATOM      7  N   UNL d   1     -47.276  13.284  23.602  0.00  0.00    -0.059 NA
BRANCH   7   8
ATOM      8  C   UNL d   1     -46.582  13.260  23.156  0.00  0.00     0.101 A 
ATOM      9  C   UNL d   1     -46.142  12.563  23.106  0.00  0.00     0.041 A 
ATOM     10  C   UNL d   1     -45.445  12.546  22.656  0.00  0.00     0.104 A 
ATOM     11  N   UNL d   1     -45.006  11.849  22.606  0.00  0.00    -0.148 N 
ATOM     12  C   UNL d   1     -45.193  13.223  22.259  0.00  0.00     0.021 A 
ATOM     13  C   UNL d   1     -45.632  13.919  22.309  0.00  0.00     0.003 A 
ATOM     14  C   UNL d   1     -46.324  13.939  22.755  0.00  0.00     0.018 A 
ATOM     15  C   UNL d   1     -46.764  14.635  22.805  0.00  0.00     0.002 C 
ENDBRANCH   7   8
ENDBRANCH   1   7
BRANCH   3  16
ATOM     16  C   UNL d   1     -49.793  12.818  22.355  0.00  0.00     0.037 A 
ATOM     17  C   UNL d   1     -49.850  12.607  21.565  0.00  0.00     0.100 A 
ATOM     18  N   UNL d   1     -50.482  12.876  21.106  0.00  0.00    -0.242 NA
ATOM     19  C   UNL d   1     -51.061  13.362  21.450  0.00  0.00     0.099 A 
ATOM     20  C   UNL d   1     -51.000  13.573  22.251  0.00  0.00     0.021 A 
ATOM     21  C   UNL d   1     -50.368  13.300  22.697  0.00  0.00     0.005 A 
ENDBRANCH   3  16
TORSDOF 3
ENDMDL
MODEL 4
REMARK VINA RESULT:      -6.8      8.909     10.352
REMARK  3 active torsions:
REMARK  status: ('A' for Active; 'I' for Inactive)
REMARK    1  A    between atoms: N_4  and  C_1 
REMARK    2  A    between atoms: C_3  and  N_4 
REMARK    3  A    between atoms: C_8  and  C_5 
ROOT
ATOM      1  C   UNL d   1     -40.304  14.586  17.976  0.00  0.00     0.750 A 
ATOM      2  N   UNL d   1     -40.100  14.732  18.762  0.00  0.00    -0.059 NA
ATOM      3  C   UNL d   1     -40.398  15.394  19.148  0.00  0.00     0.103 A 
ATOM      4  N   UNL d   1     -40.799  15.092  17.576  0.00  0.00    -0.058 NA
ATOM      5  C   UNL d   1     -40.901  15.911  18.746  0.00  0.00     0.041 A 
ATOM      6  C   UNL d   1     -41.105  15.760  17.952  0.00  0.00     0.120 A 
ENDROOT
BRANCH   1   7
ATOM      7  N   UNL d   1     -40.001  13.921  17.595  0.00  0.00    -0.059 NA
BRANCH   7   8
ATOM      8  C   UNL d   1     -39.316  13.980  17.138  0.00  0.00     0.101 A 
ATOM      9  C   UNL d   1     -39.217  14.610  16.614  0.00  0.00     0.041 A 
ATOM     10  C   UNL d   1     -38.526  14.662  16.158  0.00  0.00     0.104 A 
ATOM     11  N   UNL d   1     -38.427  15.292  15.634  0.00  0.00    -0.148 N 
ATOM     12  C   UNL d   1     -37.940  14.087  16.227  0.00  0.00     0.021 A 
ATOM     13  C   UNL d   1     -38.039  13.458  16.751  0.00  0.00     0.003 A 
ATOM     14  C   UNL d   1     -38.723  13.403  17.205  0.00  0.00     0.018 A 
ATOM     15  C   UNL d   1     -38.822  12.773  17.729  0.00  0.00     0.002 C 
ENDBRANCH   7   8
ENDBRANCH   1   7
BRANCH   3  16
ATOM     16  C   UNL d   1     -40.195  15.539  19.931  0.00  0.00     0.037 A 
ATOM     17  C   UNL d   1     -39.431  15.773  20.113  0.00  0.00     0.100 A 
ATOM     18  N   UNL d   1     -39.217  15.922  20.896  0.00  0.00    -0.242 NA
ATOM     19  C   UNL d   1     -39.779  15.833  21.500  0.00  0.00     0.099 A 
ATOM     20  C   UNL d   1     -40.553  15.596  21.312  0.00  0.00     0.021 A 
ATOM     21  C   UNL d   1     -40.755  15.451  20.530  0.00  0.00     0.005 A 
ENDBRANCH   3  16
TORSDOF 3
ENDMDL
MODEL 5
REMARK VINA RESULT:      -6.6      8.330     10.480
REMARK  3 active torsions:
REMARK  status: ('A' for Active; 'I' for Inactive)
REMARK    1  A    between atoms: N_4  and  C_1 
REMARK    2  A    between atoms: C_3  and  N_4 
REMARK    3  A    between atoms: C_8  and  C_5 
ROOT
ATOM      1  C   UNL d   1     -40.016  15.534  18.530  0.00  0.00     0.750 A 
ATOM      2  N   UNL d   1     -39.452  15.066  18.151  0.00  0.00    -0.059 NA
ATOM      3  C   UNL d   1     -39.630  14.708  17.431  0.00  0.00     0.103 A 
ATOM      4  N   UNL d   1     -40.749  15.647  18.198  0.00  0.00    -0.058 NA
ATOM      5  C   UNL d   1     -40.373  14.821  17.091  0.00  0.00     0.041 A 
ATOM      6  C   UNL d   1     -40.941  15.295  17.477  0.00  0.00     0.120 A 
ENDROOT
BRANCH   1   7
ATOM      7  N   UNL d   1     -39.831  15.888  19.249  0.00  0.00    -0.059 NA
BRANCH   7   8
ATOM      8  C   UNL d   1     -39.931  15.472  19.956  0.00  0.00     0.101 A 
ATOM      9  C   UNL d   1     -40.621  15.039  20.089  0.00  0.00     0.041 A 
ATOM     10  C   UNL d   1     -40.715  14.623  20.801  0.00  0.00     0.104 A 
ATOM     11  N   UNL d   1     -41.405  14.190  20.935  0.00  0.00    -0.148 N 
ATOM     12  C   UNL d   1     -40.122  14.642  21.373  0.00  0.00     0.021 A 
ATOM     13  C   UNL d   1     -39.433  15.075  21.239  0.00  0.00     0.003 A 
ATOM     14  C   UNL d   1     -39.337  15.489  20.534  0.00  0.00     0.018 A 
ATOM     15  C   UNL d   1     -38.647  15.922  20.400  0.00  0.00     0.002 C 
ENDBRANCH   7   8
ENDBRANCH   1   7
BRANCH   3  16
ATOM     16  C   UNL d   1     -39.069  14.242  17.054  0.00  0.00     0.037 A 
ATOM     17  C   UNL d   1     -38.671  14.538  16.401  0.00  0.00     0.100 A 
ATOM     18  N   UNL d   1     -38.105  14.078  16.014  0.00  0.00    -0.242 NA
ATOM     19  C   UNL d   1     -37.940  13.313  16.291  0.00  0.00     0.099 A 
ATOM     20  C   UNL d   1     -38.344  13.016  16.953  0.00  0.00     0.021 A 
ATOM     21  C   UNL d   1     -38.905  13.482  17.330  0.00  0.00     0.005 A 
ENDBRANCH   3  16
TORSDOF 3
ENDMDL
MODEL 6
REMARK VINA RESULT:      -6.1      1.719      4.705
REMARK  3 active torsions:
REMARK  status: ('A' for Active; 'I' for Inactive)
REMARK    1  A    between atoms: N_4  and  C_1 
REMARK    2  A    between atoms: C_3  and  N_4 
REMARK    3  A    between atoms: C_8  and  C_5 
ROOT
ATOM      1  C   UNL d   1     -46.271  13.179  22.819  0.00  0.00     0.750 A 
ATOM      2  N   UNL d   1     -45.956  12.478  23.120  0.00  0.00    -0.059 NA
ATOM      3  C   UNL d   1     -45.271  12.160  22.793  0.00  0.00     0.103 A 
ATOM      4  N   UNL d   1     -45.910  13.560  22.199  0.00  0.00    -0.058 NA
ATOM      5  C   UNL d   1     -44.902  12.545  22.163  0.00  0.00     0.041 A 
ATOM      6  C   UNL d   1     -45.223  13.253  21.862  0.00  0.00     0.120 A 
ENDROOT
BRANCH   1   7
ATOM      7  N   UNL d   1     -46.956  13.491  23.152  0.00  0.00    -0.059 NA
BRANCH   7   8
ATOM      8  C   UNL d   1     -47.669  13.464  22.736  0.00  0.00     0.101 A 
ATOM      9  C   UNL d   1     -47.956  12.746  22.447  0.00  0.00     0.041 A 
ATOM     10  C   UNL d   1     -48.674  12.726  22.030  0.00  0.00     0.104 A 
ATOM     11  N   UNL d   1     -48.961  12.009  21.741  0.00  0.00    -0.148 N 
ATOM     12  C   UNL d   1     -49.098  13.421  21.905  0.00  0.00     0.021 A 
ATOM     13  C   UNL d   1     -48.812  14.139  22.194  0.00  0.00     0.003 A 
ATOM     14  C   UNL d   1     -48.100  14.161  22.608  0.00  0.00     0.018 A 
ATOM     15  C   UNL d   1     -47.813  14.879  22.897  0.00  0.00     0.002 C 
ENDBRANCH   7   8
ENDBRANCH   1   7
BRANCH   3  16
ATOM     16  C   UNL d   1     -44.958  11.463  23.093  0.00  0.00     0.037 A 
ATOM     17  C   UNL d   1     -44.146  11.350  23.090  0.00  0.00     0.100 A 
ATOM     18  N   UNL d   1     -43.821  10.654  23.389  0.00  0.00    -0.242 NA
ATOM     19  C   UNL d   1     -44.320  10.064  23.694  0.00  0.00     0.099 A 
ATOM     20  C   UNL d   1     -45.142  10.181  23.695  0.00  0.00     0.021 A 
ATOM     21  C   UNL d   1     -45.456  10.878  23.396  0.00  0.00     0.005 A 
ENDBRANCH   3  16
TORSDOF 3
ENDMDL
MODEL 7
REMARK VINA RESULT:      -5.9      8.117      9.848
REMARK  3 active torsions:
REMARK  status: ('A' for Active; 'I' for Inactive)
REMARK    1  A    between atoms: N_4  and  C_1 
REMARK    2  A    between atoms: C_3  and  N_4 
REMARK    3  A    between atoms: C_8  and  C_5 
ROOT
ATOM      1  C   UNL d   1     -40.392  15.129  19.769  0.00  0.00     0.750 A 
ATOM      2  N   UNL d   1     -39.863  15.198  20.399  0.00  0.00    -0.059 NA
ATOM      3  C   UNL d   1     -40.028  14.833  21.117  0.00  0.00     0.103 A 
ATOM      4  N   UNL d   1     -41.078  14.702  19.852  0.00  0.00    -0.058 NA
ATOM      5  C   UNL d   1     -40.724  14.398  21.205  0.00  0.00     0.041 A 
ATOM      6  C   UNL d   1     -41.256  14.331  20.566  0.00  0.00     0.120 A 
ENDROOT
BRANCH   1   7
ATOM      7  N   UNL d   1     -40.220  15.498  19.053  0.00  0.00    -0.059 NA
BRANCH   7   8
ATOM      8  C   UNL d   1     -40.029  15.046  18.389  0.00  0.00     0.101 A 
ATOM      9  C   UNL d   1     -39.542  14.384  18.461  0.00  0.00     0.041 A 
ATOM     10  C   UNL d   1     -39.354  13.934  17.789  0.00  0.00     0.104 A 
ATOM     11  N   UNL d   1     -38.867  13.272  17.862  0.00  0.00    -0.148 N 
ATOM     12  C   UNL d   1     -39.652  14.149  17.052  0.00  0.00     0.021 A 
ATOM     13  C   UNL d   1     -40.138  14.811  16.979  0.00  0.00     0.003 A 
ATOM     14  C   UNL d   1     -40.327  15.259  17.644  0.00  0.00     0.018 A 
ATOM     15  C   UNL d   1     -40.813  15.921  17.572  0.00  0.00     0.002 C 
ENDBRANCH   7   8
ENDBRANCH   1   7
BRANCH   3  16
ATOM     16  C   UNL d   1     -39.501  14.902  21.743  0.00  0.00     0.037 A 
ATOM     17  C   UNL d   1     -39.427  15.619  22.132  0.00  0.00     0.100 A 
ATOM     18  N   UNL d   1     -38.901  15.700  22.763  0.00  0.00    -0.242 NA
ATOM     19  C   UNL d   1     -38.446  15.049  23.003  0.00  0.00     0.099 A 
ATOM     20  C   UNL d   1     -38.522  14.323  22.607  0.00  0.00     0.021 A 
ATOM     21  C   UNL d   1     -39.049  14.254  21.981  0.00  0.00     0.005 A 
ENDBRANCH   3  16
TORSDOF 3
ENDMDL
MODEL 8
REMARK VINA RESULT:      -5.7      8.201      9.757
REMARK  3 active torsions:
REMARK  status: ('A' for Active; 'I' for Inactive)
REMARK    1  A    between atoms: N_4  and  C_1 
REMARK    2  A    between atoms: C_3  and  N_4 
REMARK    3  A    between atoms: C_8  and  C_5 
ROOT
ATOM      1  C   UNL d   1     -39.918  15.018  20.838  0.00  0.00     0.750 A 
ATOM      2  N   UNL d   1     -39.761  15.010  20.028  0.00  0.00    -0.059 NA
ATOM      3  C   UNL d   1     -40.310  14.691  19.506  0.00  0.00     0.103 A 
ATOM      4  N   UNL d   1     -40.613  14.712  21.128  0.00  0.00    -0.058 NA
ATOM      5  C   UNL d   1     -41.018  14.379  19.796  0.00  0.00     0.041 A 
ATOM      6  C   UNL d   1     -41.172  14.389  20.616  0.00  0.00     0.120 A 
ENDROOT
BRANCH   1   7
ATOM      7  N   UNL d   1     -39.363  15.340  21.355  0.00  0.00    -0.059 NA
BRANCH   7   8
ATOM      8  C   UNL d   1     -38.975  14.857  21.901  0.00  0.00     0.101 A 
ATOM      9  C   UNL d   1     -38.719  14.103  21.684  0.00  0.00     0.041 A 
ATOM     10  C   UNL d   1     -38.330  13.623  22.238  0.00  0.00     0.104 A 
ATOM     11  N   UNL d   1     -38.074  12.870  22.020  0.00  0.00    -0.148 N 
ATOM     12  C   UNL d   1     -38.199  13.899  23.003  0.00  0.00     0.021 A 
ATOM     13  C   UNL d   1     -38.455  14.652  23.221  0.00  0.00     0.003 A 
ATOM     14  C   UNL d   1     -38.841  15.130  22.673  0.00  0.00     0.018 A 
ATOM     15  C   UNL d   1     -39.097  15.884  22.891  0.00  0.00     0.002 C 
ENDBRANCH   7   8
ENDBRANCH   1   7
BRANCH   3  16
ATOM     16  C   UNL d   1     -40.155  14.682  18.700  0.00  0.00     0.037 A 
ATOM     17  C   UNL d   1     -40.338  15.340  18.246  0.00  0.00     0.100 A 
ATOM     18  N   UNL d   1     -40.186  15.343  17.435  0.00  0.00    -0.242 NA
ATOM     19  C   UNL d   1     -39.845  14.675  17.079  0.00  0.00     0.099 A 
ATOM     20  C   UNL d   1     -39.660  14.010  17.541  0.00  0.00     0.021 A 
ATOM     21  C   UNL d   1     -39.816  14.018  18.347  0.00  0.00     0.005 A 
ENDBRANCH   3  16
TORSDOF 3
ENDMDL
