MODEL 1
REMARK VINA RESULT:      -2.0      0.000      0.000
REMARK  5 active torsions:
REMARK  status: ('A' for Active; 'I' for Inactive)
REMARK    1  A    between atoms: S_12  and  C_4 
REMARK    2  A    between atoms: C_7  and  C_5 
REMARK    3  A    between atoms: C_20  and  S_12 
REMARK    4  A    between atoms: C_14  and  C_20 
REMARK    5  A    between atoms: O_21  and  C_14 
ROOT
ATOM      1  C   UNL d   1      32.912  21.047 -22.133  0.00  0.00     0.095 A 
ATOM      2  C   UNL d   1      32.912  22.144 -23.067  0.00  0.00     0.108 A 
ATOM      3  N   UNL d   1      33.240  20.817 -23.520  0.00  0.00    -0.217 NA
ATOM      4  C   UNL d   1      33.131  20.526 -22.746  0.00  0.00     0.122 A 
ATOM      5  C   UNL d   1      32.804  21.855 -22.299  0.00  0.00     0.047 A 
ATOM      6  C   UNL d   1      33.131  21.623 -23.679  0.00  0.00     0.194 A 
ATOM      7  C   UNL d   1      32.804  22.930 -23.213  0.00  0.00     0.104 C 
ATOM      8  C   UNL d   1      32.802  20.766 -21.364  0.00  0.00     0.103 C 
ATOM      9  N   UNL d   1      32.693  20.491 -20.608  0.00  0.00    -0.191 NA
ATOM     10  N   UNL d   1      32.699  23.702 -23.364  0.00  0.00    -0.191 NA
ATOM     11  N   UNL d   1      33.240  21.914 -24.453  0.00  0.00    -0.126 N 
ENDROOT
BRANCH   5  12
ATOM     12  C   UNL d   1      32.591  22.360 -21.705  0.00  0.00     0.102 A 
ATOM     13  O   UNL d   1      31.840  22.457 -21.417  0.00  0.00    -0.305 OA
ATOM     14  C   UNL d   1      31.876  23.035 -20.806  0.00  0.00     0.123 A 
ATOM     15  C   UNL d   1      32.631  23.261 -20.749  0.00  0.00     0.029 A 
ATOM     16  C   UNL d   1      33.082  22.868 -21.281  0.00  0.00     0.027 A 
ENDBRANCH   5  12
BRANCH   4  17
ATOM     17  S   UNL d   1      33.240  19.720 -22.587  0.00  0.00    -0.061 SA
BRANCH  17  18
ATOM     18  C   UNL d   1      32.884  19.166 -23.037  0.00  0.00     0.105 C 
BRANCH  18  19
ATOM     19  C   UNL d   1      33.015  18.398 -22.902  0.00  0.00     0.303 C 
ATOM     20  O   UNL d   1      33.198  18.185 -22.425  0.00  0.00    -0.259 OA
BRANCH  19  21
ATOM     21  O   UNL d   1      32.879  17.862 -23.486  0.00  0.00    -0.295 OA
ATOM     22  C   UNL d   1      32.806  17.085 -23.309  0.00  0.00     0.185 C 
ENDBRANCH  19  21
ENDBRANCH  18  19
ENDBRANCH  17  18
ENDBRANCH   4  17
TORSDOF 5
ENDMDL
MODEL 2
REMARK VINA RESULT:      -1.4      0.901      2.017
REMARK  5 active torsions:
REMARK  status: ('A' for Active; 'I' for Inactive)
REMARK    1  A    between atoms: S_12  and  C_4 
REMARK    2  A    between atoms: C_7  and  C_5 
REMARK    3  A    between atoms: C_20  and  S_12 
REMARK    4  A    between atoms: C_14  and  C_20 
REMARK    5  A    between atoms: O_21  and  C_14 
ROOT
ATOM      1  C   UNL d   1      32.972  21.075 -22.590  0.00  0.00     0.095 A 
ATOM      2  C   UNL d   1      32.912  21.308 -21.169  0.00  0.00     0.108 A 
ATOM      3  N   UNL d   1      33.161  19.980 -21.669  0.00  0.00    -0.217 NA
ATOM      4  C   UNL d   1      33.118  20.267 -22.451  0.00  0.00     0.122 A 
ATOM      5  C   UNL d   1      32.869  21.592 -21.946  0.00  0.00     0.047 A 
ATOM      6  C   UNL d   1      33.058  20.500 -21.030  0.00  0.00     0.194 A 
ATOM      7  C   UNL d   1      32.810  21.820 -20.555  0.00  0.00     0.104 C 
ATOM      8  C   UNL d   1      32.928  21.366 -23.362  0.00  0.00     0.103 C 
ATOM      9  N   UNL d   1      32.884  21.652 -24.121  0.00  0.00    -0.191 NA
ATOM     10  N   UNL d   1      32.711  22.320 -19.945  0.00  0.00    -0.191 NA
ATOM     11  N   UNL d   1      33.101  20.214 -20.248  0.00  0.00    -0.126 N 
ENDROOT
BRANCH   5  12
ATOM     12  C   UNL d   1      32.727  22.376 -22.081  0.00  0.00     0.102 A 
ATOM     13  O   UNL d   1      32.041  22.767 -21.900  0.00  0.00    -0.305 OA
ATOM     14  C   UNL d   1      32.137  23.569 -22.135  0.00  0.00     0.123 A 
ATOM     15  C   UNL d   1      32.862  23.632 -22.443  0.00  0.00     0.029 A 
ATOM     16  C   UNL d   1      33.238  22.925 -22.422  0.00  0.00     0.027 A 
ENDBRANCH   5  12
BRANCH   4  17
ATOM     17  S   UNL d   1      33.221  19.747 -23.088  0.00  0.00    -0.061 SA
BRANCH  17  18
ATOM     18  C   UNL d   1      33.240  18.959 -22.970  0.00  0.00     0.105 C 
BRANCH  18  19
ATOM     19  C   UNL d   1      33.085  18.461 -23.564  0.00  0.00     0.303 C 
ATOM     20  O   UNL d   1      32.971  18.613 -24.084  0.00  0.00    -0.259 OA
BRANCH  19  21
ATOM     21  O   UNL d   1      33.085  17.669 -23.431  0.00  0.00    -0.295 OA
ATOM     22  C   UNL d   1      33.203  17.160 -24.037  0.00  0.00     0.185 C 
ENDBRANCH  19  21
ENDBRANCH  18  19
ENDBRANCH  17  18
ENDBRANCH   4  17
TORSDOF 5
ENDMDL
MODEL 3
REMARK VINA RESULT:       0.2      3.717      5.574
REMARK  5 active torsions:
REMARK  status: ('A' for Active; 'I' for Inactive)
REMARK    1  A    between atoms: S_12  and  C_4 
REMARK    2  A    between atoms: C_7  and  C_5 
REMARK    3  A    between atoms: C_20  and  S_12 
REMARK    4  A    between atoms: C_14  and  C_20 
REMARK    5  A    between atoms: O_21  and  C_14 
ROOT
ATOM      1  C   UNL d   1      30.593  17.207 -24.208  0.00  0.00     0.095 A 
ATOM      2  C   UNL d   1      31.753  16.754 -23.482  0.00  0.00     0.108 A 
ATOM      3  N   UNL d   1      30.593  15.906 -23.583  0.00  0.00    -0.217 NA
ATOM      4  C   UNL d   1      30.205  16.491 -24.034  0.00  0.00     0.122 A 
ATOM      5  C   UNL d   1      31.367  17.334 -23.930  0.00  0.00     0.047 A 
ATOM      6  C   UNL d   1      31.364  16.038 -23.308  0.00  0.00     0.194 A 
ATOM      7  C   UNL d   1      32.502  16.891 -23.219  0.00  0.00     0.104 C 
ATOM      8  C   UNL d   1      30.216  17.791 -24.654  0.00  0.00     0.103 C 
ATOM      9  N   UNL d   1      29.844  18.365 -25.093  0.00  0.00    -0.191 NA
ATOM     10  N   UNL d   1      33.241  17.019 -22.957  0.00  0.00    -0.191 NA
ATOM     11  N   UNL d   1      31.752  15.453 -22.857  0.00  0.00    -0.126 N 
ENDROOT
BRANCH   5  12
ATOM     12  C   UNL d   1      31.744  18.029 -24.098  0.00  0.00     0.102 A 
ATOM     13  O   UNL d   1      31.707  18.704 -23.651  0.00  0.00    -0.305 OA
ATOM     14  C   UNL d   1      32.181  19.286 -24.032  0.00  0.00     0.123 A 
ATOM     15  C   UNL d   1      32.480  18.949 -24.681  0.00  0.00     0.029 A 
ATOM     16  C   UNL d   1      32.231  18.190 -24.743  0.00  0.00     0.027 A 
ENDBRANCH   5  12
BRANCH   4  17
ATOM     17  S   UNL d   1      29.435  16.358 -24.308  0.00  0.00    -0.061 SA
BRANCH  17  18
ATOM     18  C   UNL d   1      28.824  16.314 -23.798  0.00  0.00     0.105 C 
BRANCH  18  19
ATOM     19  C   UNL d   1      28.124  16.031 -24.035  0.00  0.00     0.303 C 
ATOM     20  O   UNL d   1      27.982  15.934 -24.561  0.00  0.00    -0.259 OA
BRANCH  19  21
ATOM     21  O   UNL d   1      27.557  15.864 -23.490  0.00  0.00    -0.295 OA
ATOM     22  C   UNL d   1      27.136  16.456 -23.154  0.00  0.00     0.185 C 
ENDBRANCH  19  21
ENDBRANCH  18  19
ENDBRANCH  17  18
ENDBRANCH   4  17
TORSDOF 5
ENDMDL
MODEL 4
REMARK VINA RESULT:       0.4      1.470      4.344
REMARK  5 active torsions:
REMARK  status: ('A' for Active; 'I' for Inactive)
REMARK    1  A    between atoms: S_12  and  C_4 
REMARK    2  A    between atoms: C_7  and  C_5 
REMARK    3  A    between atoms: C_20  and  S_12 
REMARK    4  A    between atoms: C_14  and  C_20 
REMARK    5  A    between atoms: O_21  and  C_14 
ROOT
ATOM      1  C   UNL d   1      32.992  20.095 -23.069  0.00  0.00     0.095 A 
ATOM      2  C   UNL d   1      32.997  18.747 -22.559  0.00  0.00     0.108 A 
ATOM      3  N   UNL d   1      33.236  19.853 -21.667  0.00  0.00    -0.217 NA
ATOM      4  C   UNL d   1      33.153  20.384 -22.304  0.00  0.00     0.122 A 
ATOM      5  C   UNL d   1      32.915  19.275 -23.191  0.00  0.00     0.047 A 
ATOM      6  C   UNL d   1      33.158  19.036 -21.795  0.00  0.00     0.194 A 
ATOM      7  C   UNL d   1      32.920  17.955 -22.692  0.00  0.00     0.104 C 
ATOM      8  C   UNL d   1      32.909  20.615 -23.705  0.00  0.00     0.103 C 
ATOM      9  N   UNL d   1      32.827  21.127 -24.330  0.00  0.00    -0.191 NA
ATOM     10  N   UNL d   1      32.845  17.175 -22.817  0.00  0.00    -0.191 NA
ATOM     11  N   UNL d   1      33.241  18.505 -21.157  0.00  0.00    -0.126 N 
ENDROOT
BRANCH   5  12
ATOM     12  C   UNL d   1      32.759  18.995 -23.932  0.00  0.00     0.102 A 
ATOM     13  O   UNL d   1      32.086  19.142 -24.359  0.00  0.00    -0.305 OA
ATOM     14  C   UNL d   1      32.160  18.742 -25.096  0.00  0.00     0.123 A 
ATOM     15  C   UNL d   1      32.860  18.375 -25.088  0.00  0.00     0.029 A 
ATOM     16  C   UNL d   1      33.241  18.513 -24.396  0.00  0.00     0.027 A 
ENDBRANCH   5  12
BRANCH   4  17
ATOM     17  S   UNL d   1      33.231  21.199 -22.176  0.00  0.00    -0.061 SA
BRANCH  17  18
ATOM     18  C   UNL d   1      33.172  21.501 -21.440  0.00  0.00     0.105 C 
BRANCH  18  19
ATOM     19  C   UNL d   1      33.002  22.266 -21.335  0.00  0.00     0.303 C 
ATOM     20  O   UNL d   1      33.034  22.656 -21.727  0.00  0.00    -0.259 OA
BRANCH  19  21
ATOM     21  O   UNL d   1      32.762  22.526 -20.613  0.00  0.00    -0.295 OA
ATOM     22  C   UNL d   1      33.105  23.170 -20.283  0.00  0.00     0.185 C 
ENDBRANCH  19  21
ENDBRANCH  18  19
ENDBRANCH  17  18
ENDBRANCH   4  17
TORSDOF 5
ENDMDL
MODEL 5
REMARK VINA RESULT:       1.0      1.576      3.892
REMARK  5 active torsions:
REMARK  status: ('A' for Active; 'I' for Inactive)
REMARK    1  A    between atoms: S_12  and  C_4 
REMARK    2  A    between atoms: C_7  and  C_5 
REMARK    3  A    between atoms: C_20  and  S_12 
REMARK    4  A    between atoms: C_14  and  C_20 
REMARK    5  A    between atoms: O_21  and  C_14 
ROOT
ATOM      1  C   UNL d   1      33.232  21.072 -21.212  0.00  0.00     0.095 A 
ATOM      2  C   UNL d   1      33.229  21.441 -22.605  0.00  0.00     0.108 A 
ATOM      3  N   UNL d   1      33.238  22.464 -21.591  0.00  0.00    -0.217 NA
ATOM      4  C   UNL d   1      33.237  21.877 -20.999  0.00  0.00     0.122 A 
ATOM      5  C   UNL d   1      33.228  20.859 -22.016  0.00  0.00     0.047 A 
ATOM      6  C   UNL d   1      33.234  22.246 -22.392  0.00  0.00     0.194 A 
ATOM      7  C   UNL d   1      33.225  21.219 -23.380  0.00  0.00     0.104 C 
ATOM      8  C   UNL d   1      33.231  20.485 -20.631  0.00  0.00     0.103 C 
ATOM      9  N   UNL d   1      33.230  19.908 -20.059  0.00  0.00    -0.191 NA
ATOM     10  N   UNL d   1      33.221  21.008 -24.146  0.00  0.00    -0.191 NA
ATOM     11  N   UNL d   1      33.234  22.833 -22.984  0.00  0.00    -0.126 N 
ENDROOT
BRANCH   5  12
ATOM     12  C   UNL d   1      33.223  20.077 -22.223  0.00  0.00     0.102 A 
ATOM     13  O   UNL d   1      33.201  19.792 -22.981  0.00  0.00    -0.305 OA
ATOM     14  C   UNL d   1      33.204  18.951 -22.935  0.00  0.00     0.123 A 
ATOM     15  C   UNL d   1      33.227  18.764 -22.168  0.00  0.00     0.029 A 
ATOM     16  C   UNL d   1      33.240  19.427 -21.718  0.00  0.00     0.027 A 
ENDBRANCH   5  12
BRANCH   4  17
ATOM     17  S   UNL d   1      33.241  22.096 -20.200  0.00  0.00    -0.061 SA
BRANCH  17  18
ATOM     18  C   UNL d   1      33.039  22.836 -19.981  0.00  0.00     0.105 C 
BRANCH  18  19
ATOM     19  C   UNL d   1      32.944  23.015 -19.216  0.00  0.00     0.303 C 
ATOM     20  O   UNL d   1      33.151  22.723 -18.793  0.00  0.00    -0.259 OA
BRANCH  19  21
ATOM     21  O   UNL d   1      32.520  23.665 -19.009  0.00  0.00    -0.295 OA
ATOM     22  C   UNL d   1      32.150  23.693 -18.300  0.00  0.00     0.185 C 
ENDBRANCH  19  21
ENDBRANCH  18  19
ENDBRANCH  17  18
ENDBRANCH   4  17
TORSDOF 5
ENDMDL
