MODEL 1
REMARK VINA RESULT:      67.3      0.000      0.000
REMARK  5 active torsions:
REMARK  status: ('A' for Active; 'I' for Inactive)
REMARK    1  A    between atoms: C_9  and  S_1 
REMARK    2  A    between atoms: C_14  and  S_1 
REMARK    3  A    between atoms: C_7  and  C_10 
REMARK       I    between atoms: N_11  and  C_7 
REMARK    4  A    between atoms: C_10  and  C_9 
REMARK    5  A    between atoms: C_15  and  N_11 
ROOT
ATOM      1  C   UNL d   1      60.460  48.787  50.516  0.00  0.00     0.280 C 
ATOM      2  N   UNL d   1      60.073  49.477  50.764  0.00  0.00    -0.208 NA
ATOM      3  O   UNL d   1      60.007  48.142  50.242  0.00  0.00    -0.265 OA
ENDROOT
BRANCH   1   4
ATOM      4  C   UNL d   1      61.271  48.733  50.538  0.00  0.00     0.075 C 
BRANCH   4   5
ATOM      5  C   UNL d   1      61.633  48.383  49.992  0.00  0.00     0.104 C 
BRANCH   5   6
ATOM      6  S   UNL d   1      61.739  47.561  49.873  0.00  0.00     0.211 S 
ATOM      7  O   UNL d   1      61.378  47.615  49.126  0.00  0.00    -0.217 OA
ATOM      8  O   UNL d   1      62.106  47.511  50.632  0.00  0.00    -0.217 OA
BRANCH   6   9
ATOM      9  C   UNL d   1      61.847  46.749  49.763  0.00  0.00     0.088 A 
ATOM     10  C   UNL d   1      61.367  46.209  50.161  0.00  0.00     0.011 A 
ATOM     11  C   UNL d   1      61.474  45.394  50.051  0.00  0.00     0.001 A 
ATOM     12  C   UNL d   1      62.063  45.126  49.542  0.00  0.00     0.000 A 
ATOM     13  C   UNL d   1      62.550  45.657  49.138  0.00  0.00     0.001 A 
ATOM     14  C   UNL d   1      62.440  46.474  49.250  0.00  0.00     0.011 A 
ENDBRANCH   6   9
ENDBRANCH   5   6
ENDBRANCH   4   5
ENDBRANCH   1   4
BRANCH   2  15
ATOM     15  C   UNL d   1      59.255  49.536  50.743  0.00  0.00     0.085 A 
ATOM     16  C   UNL d   1      58.862  49.533  50.027  0.00  0.00     0.027 A 
ATOM     17  C   UNL d   1      58.046  49.592  50.018  0.00  0.00     0.050 A 
ATOM     18  S   UNL d   1      57.498  49.605  49.398  0.00  0.00    -0.066 SA
ATOM     19  C   UNL d   1      57.619  49.655  50.733  0.00  0.00     0.088 A 
ATOM     20  C   UNL d   1      56.740  49.674  49.715  0.00  0.00     0.111 A 
ATOM     21  C   UNL d   1      56.035  49.707  49.292  0.00  0.00     0.028 C 
ATOM     22  N   UNL d   1      56.824  49.705  50.552  0.00  0.00    -0.239 NA
ATOM     23  C   UNL d   1      58.018  49.657  51.443  0.00  0.00     0.021 A 
ATOM     24  C   UNL d   1      58.832  49.598  51.452  0.00  0.00     0.021 A 
ENDBRANCH   2  15
TORSDOF 5
ENDMDL
MODEL 2
REMARK VINA RESULT:      70.1      1.599      4.798
REMARK  5 active torsions:
REMARK  status: ('A' for Active; 'I' for Inactive)
REMARK    1  A    between atoms: C_9  and  S_1 
REMARK    2  A    between atoms: C_14  and  S_1 
REMARK    3  A    between atoms: C_7  and  C_10 
REMARK       I    between atoms: N_11  and  C_7 
REMARK    4  A    between atoms: C_10  and  C_9 
REMARK    5  A    between atoms: C_15  and  N_11 
ROOT
ATOM      1  C   UNL d   1      61.088  48.049  50.886  0.00  0.00     0.280 C 
ATOM      2  N   UNL d   1      61.566  47.930  50.219  0.00  0.00    -0.208 NA
ATOM      3  O   UNL d   1      60.783  47.387  51.293  0.00  0.00    -0.265 OA
ENDROOT
BRANCH   1   4
ATOM      4  C   UNL d   1      60.916  48.800  51.146  0.00  0.00     0.075 C 
BRANCH   4   5
ATOM      5  C   UNL d   1      60.559  49.274  50.698  0.00  0.00     0.104 C 
BRANCH   5   6
ATOM      6  S   UNL d   1      59.736  49.369  50.582  0.00  0.00     0.211 S 
ATOM      7  O   UNL d   1      59.873  49.702  49.832  0.00  0.00    -0.217 OA
ATOM      8  O   UNL d   1      59.600  49.030  51.344  0.00  0.00    -0.217 OA
BRANCH   6   9
ATOM      9  C   UNL d   1      58.921  49.460  50.474  0.00  0.00     0.088 A 
ATOM     10  C   UNL d   1      58.430  49.603  51.121  0.00  0.00     0.011 A 
ATOM     11  C   UNL d   1      57.612  49.694  51.014  0.00  0.00     0.001 A 
ATOM     12  C   UNL d   1      57.293  49.642  50.257  0.00  0.00     0.000 A 
ATOM     13  C   UNL d   1      57.775  49.499  49.601  0.00  0.00     0.001 A 
ATOM     14  C   UNL d   1      58.594  49.408  49.711  0.00  0.00     0.011 A 
ENDBRANCH   6   9
ENDBRANCH   5   6
ENDBRANCH   4   5
ENDBRANCH   1   4
BRANCH   2  15
ATOM     15  C   UNL d   1      61.742  47.174  49.953  0.00  0.00     0.085 A 
ATOM     16  C   UNL d   1      61.142  46.638  49.813  0.00  0.00     0.027 A 
ATOM     17  C   UNL d   1      61.328  45.887  49.548  0.00  0.00     0.050 A 
ATOM     18  S   UNL d   1      60.858  45.232  49.360  0.00  0.00    -0.066 SA
ATOM     19  C   UNL d   1      62.125  45.670  49.421  0.00  0.00     0.088 A 
ATOM     20  C   UNL d   1      61.348  44.614  49.119  0.00  0.00     0.111 A 
ATOM     21  C   UNL d   1      61.107  43.864  48.883  0.00  0.00     0.028 C 
ATOM     22  N   UNL d   1      62.140  44.896  49.160  0.00  0.00    -0.239 NA
ATOM     23  C   UNL d   1      62.718  46.209  49.562  0.00  0.00     0.021 A 
ATOM     24  C   UNL d   1      62.531  46.959  49.827  0.00  0.00     0.021 A 
ENDBRANCH   2  15
TORSDOF 5
ENDMDL
