MODEL 1
REMARK VINA RESULT:      -8.6      0.000      0.000
REMARK  4 active torsions:
REMARK  status: ('A' for Active; 'I' for Inactive)
REMARK    1  A    between atoms: C_7  and  N_2 
REMARK    2  A    between atoms: C_15  and  C_7 
REMARK    3  A    between atoms: C_8  and  O_14 
REMARK    4  A    between atoms: O_14  and  C_15 
ROOT
ATOM      1  C   UNL d   1      51.928  33.940  52.743  0.00  0.00     0.296 A 
ATOM      2  N   UNL d   1      52.607  33.557  53.005  0.00  0.00    -0.266 N 
ATOM      3  S   UNL d   1      51.832  34.632  53.206  0.00  0.00    -0.025 SA
ATOM      4  C   UNL d   1      52.933  34.003  53.624  0.00  0.00     0.074 A 
ATOM      5  C   UNL d   1      52.458  34.661  53.747  0.00  0.00     0.050 A 
ATOM      6  O   UNL d   1      51.430  33.694  52.138  0.00  0.00    -0.259 OA
ATOM      7  C   UNL d   1      53.608  33.881  54.087  0.00  0.00     0.018 A 
ATOM      8  C   UNL d   1      52.647  35.213  54.337  0.00  0.00     0.008 A 
ATOM      9  C   UNL d   1      53.799  34.430  54.676  0.00  0.00     0.002 A 
ATOM     10  C   UNL d   1      53.324  35.088  54.799  0.00  0.00     0.001 A 
ENDROOT
BRANCH   2  11
ATOM     11  C   UNL d   1      52.912  32.852  52.704  0.00  0.00     0.110 C 
BRANCH  11  12
ATOM     12  C   UNL d   1      52.651  32.129  52.995  0.00  0.00     0.142 C 
BRANCH  12  13
ATOM     13  O   UNL d   1      52.890  31.417  52.647  0.00  0.00    -0.304 OA
BRANCH  13  14
ATOM     14  C   UNL d   1      52.995  30.741  53.108  0.00  0.00     0.100 A 
ATOM     15  C   UNL d   1      52.346  30.268  53.299  0.00  0.00     0.025 A 
ATOM     16  C   UNL d   1      52.452  29.597  53.758  0.00  0.00     0.002 A 
ATOM     17  C   UNL d   1      53.206  29.398  54.026  0.00  0.00     0.000 A 
ATOM     18  C   UNL d   1      53.855  29.875  53.832  0.00  0.00     0.002 A 
ATOM     19  C   UNL d   1      53.310  28.718  54.490  0.00  0.00     0.000 C 
ATOM     20  C   UNL d   1      53.740  30.547  53.372  0.00  0.00     0.025 A 
ENDBRANCH  13  14
ENDBRANCH  12  13
ENDBRANCH  11  12
ENDBRANCH   2  11
TORSDOF 4
ENDMDL
MODEL 2
REMARK VINA RESULT:      -8.3      1.812      3.982
REMARK  4 active torsions:
REMARK  status: ('A' for Active; 'I' for Inactive)
REMARK    1  A    between atoms: C_7  and  N_2 
REMARK    2  A    between atoms: C_15  and  C_7 
REMARK    3  A    between atoms: C_8  and  O_14 
REMARK    4  A    between atoms: O_14  and  C_15 
ROOT
ATOM      1  C   UNL d   1      53.133  32.109  53.210  0.00  0.00     0.296 A 
ATOM      2  N   UNL d   1      53.173  32.927  53.275  0.00  0.00    -0.266 N 
ATOM      3  S   UNL d   1      53.523  31.781  53.875  0.00  0.00    -0.025 SA
ATOM      4  C   UNL d   1      53.583  33.111  53.972  0.00  0.00     0.074 A 
ATOM      5  C   UNL d   1      53.798  32.409  54.340  0.00  0.00     0.050 A 
ATOM      6  O   UNL d   1      52.776  31.683  52.605  0.00  0.00    -0.259 OA
ATOM      7  C   UNL d   1      53.784  33.839  54.311  0.00  0.00     0.018 A 
ATOM      8  C   UNL d   1      54.218  32.419  55.055  0.00  0.00     0.008 A 
ATOM      9  C   UNL d   1      54.203  33.852  55.024  0.00  0.00     0.002 A 
ATOM     10  C   UNL d   1      54.418  33.150  55.392  0.00  0.00     0.001 A 
ENDROOT
BRANCH   2  11
ATOM     11  C   UNL d   1      52.860  33.472  52.741  0.00  0.00     0.110 C 
BRANCH  11  12
ATOM     12  C   UNL d   1      52.051  33.625  52.728  0.00  0.00     0.142 C 
BRANCH  12  13
ATOM     13  O   UNL d   1      51.754  34.318  52.388  0.00  0.00    -0.304 OA
BRANCH  13  14
ATOM     14  C   UNL d   1      50.947  34.393  52.233  0.00  0.00     0.100 A 
ATOM     15  C   UNL d   1      50.429  34.599  52.842  0.00  0.00     0.025 A 
ATOM     16  C   UNL d   1      49.627  34.673  52.688  0.00  0.00     0.002 A 
ATOM     17  C   UNL d   1      49.342  34.542  51.924  0.00  0.00     0.000 A 
ATOM     18  C   UNL d   1      49.866  34.336  51.316  0.00  0.00     0.002 A 
ATOM     19  C   UNL d   1      48.531  34.618  51.771  0.00  0.00     0.000 C 
ATOM     20  C   UNL d   1      50.668  34.263  51.480  0.00  0.00     0.025 A 
ENDBRANCH  13  14
ENDBRANCH  12  13
ENDBRANCH  11  12
ENDBRANCH   2  11
TORSDOF 4
ENDMDL
MODEL 3
REMARK VINA RESULT:      -8.0      1.710      4.338
REMARK  4 active torsions:
REMARK  status: ('A' for Active; 'I' for Inactive)
REMARK    1  A    between atoms: C_7  and  N_2 
REMARK    2  A    between atoms: C_15  and  C_7 
REMARK    3  A    between atoms: C_8  and  O_14 
REMARK    4  A    between atoms: O_14  and  C_15 
ROOT
ATOM      1  C   UNL d   1      53.766  32.591  54.108  0.00  0.00     0.296 A 
ATOM      2  N   UNL d   1      53.328  32.456  53.426  0.00  0.00    -0.266 N 
ATOM      3  S   UNL d   1      53.930  31.847  54.456  0.00  0.00    -0.025 SA
ATOM      4  C   UNL d   1      53.218  31.638  53.347  0.00  0.00     0.074 A 
ATOM      5  C   UNL d   1      53.586  31.264  53.978  0.00  0.00     0.050 A 
ATOM      6  O   UNL d   1      54.004  33.321  54.400  0.00  0.00    -0.259 OA
ATOM      7  C   UNL d   1      52.823  31.193  52.771  0.00  0.00     0.018 A 
ATOM      8  C   UNL d   1      53.569  30.438  54.049  0.00  0.00     0.008 A 
ATOM      9  C   UNL d   1      52.804  30.369  52.838  0.00  0.00     0.002 A 
ATOM     10  C   UNL d   1      53.173  29.996  53.470  0.00  0.00     0.001 A 
ENDROOT
BRANCH   2  11
ATOM     11  C   UNL d   1      53.046  33.033  52.908  0.00  0.00     0.110 C 
BRANCH  11  12
ATOM     12  C   UNL d   1      52.319  33.394  53.044  0.00  0.00     0.142 C 
BRANCH  12  13
ATOM     13  O   UNL d   1      52.092  34.069  52.622  0.00  0.00    -0.304 OA
BRANCH  13  14
ATOM     14  C   UNL d   1      51.294  34.232  52.494  0.00  0.00     0.100 A 
ATOM     15  C   UNL d   1      50.814  34.461  53.126  0.00  0.00     0.025 A 
ATOM     16  C   UNL d   1      50.021  34.623  52.997  0.00  0.00     0.002 A 
ATOM     17  C   UNL d   1      49.706  34.556  52.237  0.00  0.00     0.000 A 
ATOM     18  C   UNL d   1      50.191  34.326  51.607  0.00  0.00     0.002 A 
ATOM     19  C   UNL d   1      48.903  34.720  52.111  0.00  0.00     0.000 C 
ATOM     20  C   UNL d   1      50.985  34.166  51.744  0.00  0.00     0.025 A 
ENDBRANCH  13  14
ENDBRANCH  12  13
ENDBRANCH  11  12
ENDBRANCH   2  11
TORSDOF 4
ENDMDL
MODEL 4
REMARK VINA RESULT:      -7.3      1.531      4.425
REMARK  4 active torsions:
REMARK  status: ('A' for Active; 'I' for Inactive)
REMARK    1  A    between atoms: C_7  and  N_2 
REMARK    2  A    between atoms: C_15  and  C_7 
REMARK    3  A    between atoms: C_8  and  O_14 
REMARK    4  A    between atoms: O_14  and  C_15 
ROOT
ATOM      1  C   UNL d   1      52.888  30.750  52.762  0.00  0.00     0.296 A 
ATOM      2  N   UNL d   1      53.416  30.872  53.380  0.00  0.00    -0.266 N 
ATOM      3  S   UNL d   1      52.528  30.002  52.879  0.00  0.00    -0.025 SA
ATOM      4  C   UNL d   1      53.389  30.210  53.879  0.00  0.00     0.074 A 
ATOM      5  C   UNL d   1      52.845  29.677  53.572  0.00  0.00     0.050 A 
ATOM      6  O   UNL d   1      52.736  31.264  52.140  0.00  0.00    -0.259 OA
ATOM      7  C   UNL d   1      53.798  30.034  54.576  0.00  0.00     0.018 A 
ATOM      8  C   UNL d   1      52.698  28.956  53.955  0.00  0.00     0.008 A 
ATOM      9  C   UNL d   1      53.654  29.316  54.961  0.00  0.00     0.002 A 
ATOM     10  C   UNL d   1      53.110  28.783  54.654  0.00  0.00     0.001 A 
ENDROOT
BRANCH   2  11
ATOM     11  C   UNL d   1      53.892  31.537  53.487  0.00  0.00     0.110 C 
BRANCH  11  12
ATOM     12  C   UNL d   1      53.554  32.266  53.665  0.00  0.00     0.142 C 
BRANCH  12  13
ATOM     13  O   UNL d   1      54.022  32.943  53.753  0.00  0.00    -0.304 OA
BRANCH  13  14
ATOM     14  C   UNL d   1      53.683  33.655  53.995  0.00  0.00     0.100 A 
ATOM     15  C   UNL d   1      53.308  34.141  53.443  0.00  0.00     0.025 A 
ATOM     16  C   UNL d   1      52.971  34.849  53.685  0.00  0.00     0.002 A 
ATOM     17  C   UNL d   1      53.009  35.071  54.479  0.00  0.00     0.000 A 
ATOM     18  C   UNL d   1      53.386  34.580  55.029  0.00  0.00     0.002 A 
ATOM     19  C   UNL d   1      52.667  35.787  54.720  0.00  0.00     0.000 C 
ATOM     20  C   UNL d   1      53.721  33.873  54.779  0.00  0.00     0.025 A 
ENDBRANCH  13  14
ENDBRANCH  12  13
ENDBRANCH  11  12
ENDBRANCH   2  11
TORSDOF 4
ENDMDL
MODEL 5
REMARK VINA RESULT:      -6.6      2.226      4.467
REMARK  4 active torsions:
REMARK  status: ('A' for Active; 'I' for Inactive)
REMARK    1  A    between atoms: C_7  and  N_2 
REMARK    2  A    between atoms: C_15  and  C_7 
REMARK    3  A    between atoms: C_8  and  O_14 
REMARK    4  A    between atoms: O_14  and  C_15 
ROOT
ATOM      1  C   UNL d   1      52.392  32.923  53.049  0.00  0.00     0.296 A 
ATOM      2  N   UNL d   1      52.231  33.727  52.992  0.00  0.00    -0.266 N 
ATOM      3  S   UNL d   1      52.924  32.815  53.688  0.00  0.00    -0.025 SA
ATOM      4  C   UNL d   1      52.655  34.119  53.587  0.00  0.00     0.074 A 
ATOM      5  C   UNL d   1      53.079  33.561  54.013  0.00  0.00     0.050 A 
ATOM      6  O   UNL d   1      52.091  32.328  52.570  0.00  0.00    -0.259 OA
ATOM      7  C   UNL d   1      52.701  34.921  53.786  0.00  0.00     0.018 A 
ATOM      8  C   UNL d   1      53.560  33.791  54.649  0.00  0.00     0.008 A 
ATOM      9  C   UNL d   1      53.179  35.154  54.419  0.00  0.00     0.002 A 
ATOM     10  C   UNL d   1      53.603  34.596  54.846  0.00  0.00     0.001 A 
ENDROOT
BRANCH   2  11
ATOM     11  C   UNL d   1      51.733  34.083  52.438  0.00  0.00     0.110 C 
BRANCH  11  12
ATOM     12  C   UNL d   1      50.927  34.155  52.590  0.00  0.00     0.142 C 
BRANCH  12  13
ATOM     13  O   UNL d   1      50.384  34.243  51.972  0.00  0.00    -0.304 OA
BRANCH  13  14
ATOM     14  C   UNL d   1      49.671  34.640  52.097  0.00  0.00     0.100 A 
ATOM     15  C   UNL d   1      49.111  34.680  51.493  0.00  0.00     0.025 A 
ATOM     16  C   UNL d   1      48.403  35.075  51.618  0.00  0.00     0.002 A 
ATOM     17  C   UNL d   1      48.255  35.430  52.348  0.00  0.00     0.000 A 
ATOM     18  C   UNL d   1      48.820  35.387  52.952  0.00  0.00     0.002 A 
ATOM     19  C   UNL d   1      47.538  35.828  52.472  0.00  0.00     0.000 C 
ATOM     20  C   UNL d   1      49.527  34.989  52.818  0.00  0.00     0.025 A 
ENDBRANCH  13  14
ENDBRANCH  12  13
ENDBRANCH  11  12
ENDBRANCH   2  11
TORSDOF 4
ENDMDL
MODEL 6
REMARK VINA RESULT:      -6.0      3.797      5.115
REMARK  4 active torsions:
REMARK  status: ('A' for Active; 'I' for Inactive)
REMARK    1  A    between atoms: C_7  and  N_2 
REMARK    2  A    between atoms: C_15  and  C_7 
REMARK    3  A    between atoms: C_8  and  O_14 
REMARK    4  A    between atoms: O_14  and  C_15 
ROOT
ATOM      1  C   UNL d   1      48.076  35.069  51.275  0.00  0.00     0.296 A 
ATOM      2  N   UNL d   1      48.327  35.443  51.962  0.00  0.00    -0.266 N 
ATOM      3  S   UNL d   1      47.250  35.196  51.204  0.00  0.00    -0.025 SA
ATOM      4  C   UNL d   1      47.669  35.800  52.318  0.00  0.00     0.074 A 
ATOM      5  C   UNL d   1      47.009  35.649  51.854  0.00  0.00     0.050 A 
ATOM      6  O   UNL d   1      48.543  34.646  50.748  0.00  0.00    -0.259 OA
ATOM      7  C   UNL d   1      47.599  36.245  53.012  0.00  0.00     0.018 A 
ATOM      8  C   UNL d   1      46.264  35.940  52.073  0.00  0.00     0.008 A 
ATOM      9  C   UNL d   1      46.857  36.536  53.233  0.00  0.00     0.002 A 
ATOM     10  C   UNL d   1      46.197  36.385  52.769  0.00  0.00     0.001 A 
ENDROOT
BRANCH   2  11
ATOM     11  C   UNL d   1      49.101  35.460  52.249  0.00  0.00     0.110 C 
BRANCH  11  12
ATOM     12  C   UNL d   1      49.472  34.765  52.485  0.00  0.00     0.142 C 
BRANCH  12  13
ATOM     13  O   UNL d   1      50.079  34.776  53.048  0.00  0.00    -0.304 OA
BRANCH  13  14
ATOM     14  C   UNL d   1      50.687  34.219  53.016  0.00  0.00     0.100 A 
ATOM     15  C   UNL d   1      50.569  33.463  53.324  0.00  0.00     0.025 A 
ATOM     16  C   UNL d   1      51.174  32.910  53.292  0.00  0.00     0.002 A 
ATOM     17  C   UNL d   1      51.897  33.114  52.951  0.00  0.00     0.000 A 
ATOM     18  C   UNL d   1      52.012  33.874  52.643  0.00  0.00     0.002 A 
ATOM     19  C   UNL d   1      52.508  32.553  52.920  0.00  0.00     0.000 C 
ATOM     20  C   UNL d   1      51.400  34.422  52.679  0.00  0.00     0.025 A 
ENDBRANCH  13  14
ENDBRANCH  12  13
ENDBRANCH  11  12
ENDBRANCH   2  11
TORSDOF 4
ENDMDL
