MODEL 1
REMARK VINA RESULT:      63.7      0.000      0.000
REMARK  3 active torsions:
REMARK  status: ('A' for Active; 'I' for Inactive)
REMARK    1  A    between atoms: C_9  and  C_1 
REMARK    2  A    between atoms: C_11  and  N_5 
REMARK    3  A    between atoms: N_8  and  C_9 
ROOT
ATOM      1  N   UNL d   1      15.070  16.528  -2.489  0.00  0.00    -0.301 N 
ATOM      2  N   UNL d   1      15.049  15.821  -0.992  0.00  0.00    -0.300 N 
ATOM      3  C   UNL d   1      15.437  16.903  -1.844  0.00  0.00     0.100 A 
ATOM      4  C   UNL d   1      14.693  15.798  -2.380  0.00  0.00     0.100 A 
ATOM      5  C   UNL d   1      15.427  16.547  -1.087  0.00  0.00     0.100 A 
ATOM      6  C   UNL d   1      14.688  15.457  -1.638  0.00  0.00     0.100 A 
ENDROOT
BRANCH   2   7
ATOM      7  C   UNL d   1      15.034  15.461  -0.246  0.00  0.00     0.084 C 
BRANCH   7   8
ATOM      8  C   UNL d   1      15.014  14.642  -0.206  0.00  0.00     0.059 A 
ATOM      9  C   UNL d   1      14.279  14.266  -0.152  0.00  0.00     0.214 A 
ATOM     10  C   UNL d   1      14.251  13.433  -0.111  0.00  0.00     0.121 A 
ATOM     11  O   UNL d   1      13.584  14.696  -0.139  0.00  0.00    -0.285 OA
ATOM     12  N   UNL d   1      13.515  13.057  -0.057  0.00  0.00    -0.241 NA
ATOM     13  C   UNL d   1      14.948  12.992  -0.124  0.00  0.00     0.032 A 
ATOM     14  C   UNL d   1      13.490  12.227  -0.016  0.00  0.00     0.099 A 
ATOM     15  C   UNL d   1      14.187  11.786  -0.029  0.00  0.00     0.021 A 
ATOM     16  C   UNL d   1      14.909  12.174  -0.083  0.00  0.00     0.004 A 
ATOM     17  C   UNL d   1      15.669  13.377  -0.177  0.00  0.00     0.059 A 
ATOM     18  C   UNL d   1      15.711  14.201  -0.219  0.00  0.00     0.016 A 
ATOM     19 CL   UNL d   1      16.372  12.931  -0.190  0.00  0.00    -0.082 Cl
ENDBRANCH   7   8
ENDBRANCH   2   7
BRANCH   1  20
ATOM     20  C   UNL d   1      15.084  16.881  -3.225  0.00  0.00     0.064 A 
ATOM     21  C   UNL d   1      14.983  16.417  -3.899  0.00  0.00     0.020 A 
ATOM     22  C   UNL d   1      14.995  16.769  -4.650  0.00  0.00     0.031 A 
ATOM     23  C   UNL d   1      15.110  17.591  -4.722  0.00  0.00     0.140 A 
ATOM     24  C   UNL d   1      15.209  18.046  -4.040  0.00  0.00     0.031 A 
ATOM     25  F   UNL d   1      15.121  17.934  -5.466  0.00  0.00    -0.204 F 
ATOM     26  C   UNL d   1      15.196  17.690  -3.295  0.00  0.00     0.020 A 
ENDBRANCH   1  20
TORSDOF 3
ENDMDL
MODEL 2
REMARK VINA RESULT:      66.0      2.007      2.564
REMARK  3 active torsions:
REMARK  status: ('A' for Active; 'I' for Inactive)
REMARK    1  A    between atoms: C_9  and  C_1 
REMARK    2  A    between atoms: C_11  and  N_5 
REMARK    3  A    between atoms: N_8  and  C_9 
ROOT
ATOM      1  N   UNL d   1      13.860  15.503  -4.684  0.00  0.00    -0.301 N 
ATOM      2  N   UNL d   1      13.784  14.080  -3.840  0.00  0.00    -0.300 N 
ATOM      3  C   UNL d   1      14.536  15.027  -4.607  0.00  0.00     0.100 A 
ATOM      4  C   UNL d   1      13.146  15.264  -4.336  0.00  0.00     0.100 A 
ATOM      5  C   UNL d   1      14.500  14.307  -4.182  0.00  0.00     0.100 A 
ATOM      6  C   UNL d   1      13.119  14.560  -3.922  0.00  0.00     0.100 A 
ENDROOT
BRANCH   2   7
ATOM      7  C   UNL d   1      13.739  13.370  -3.417  0.00  0.00     0.084 C 
BRANCH   7   8
ATOM      8  C   UNL d   1      14.054  13.343  -2.661  0.00  0.00     0.059 A 
ATOM      9  C   UNL d   1      14.179  12.604  -2.309  0.00  0.00     0.214 A 
ATOM     10  C   UNL d   1      14.499  12.569  -1.540  0.00  0.00     0.121 A 
ATOM     11  O   UNL d   1      13.993  11.913  -2.703  0.00  0.00    -0.285 OA
ATOM     12  N   UNL d   1      14.623  11.830  -1.188  0.00  0.00    -0.241 NA
ATOM     13  C   UNL d   1      14.688  13.263  -1.136  0.00  0.00     0.032 A 
ATOM     14  C   UNL d   1      14.942  11.797  -0.422  0.00  0.00     0.099 A 
ATOM     15  C   UNL d   1      15.132  12.491  -0.018  0.00  0.00     0.021 A 
ATOM     16  C   UNL d   1      15.002  13.217  -0.380  0.00  0.00     0.004 A 
ATOM     17  C   UNL d   1      14.560  13.987  -1.495  0.00  0.00     0.059 A 
ATOM     18  C   UNL d   1      14.244  14.037  -2.256  0.00  0.00     0.016 A 
ATOM     19 CL   UNL d   1      14.751  14.688  -1.086  0.00  0.00    -0.082 Cl
ENDBRANCH   7   8
ENDBRANCH   2   7
BRANCH   1  20
ATOM     20  C   UNL d   1      13.902  16.203  -5.100  0.00  0.00     0.064 A 
ATOM     21  C   UNL d   1      14.388  16.810  -4.827  0.00  0.00     0.020 A 
ATOM     22  C   UNL d   1      14.436  17.525  -5.245  0.00  0.00     0.031 A 
ATOM     23  C   UNL d   1      13.992  17.629  -5.942  0.00  0.00     0.140 A 
ATOM     24  C   UNL d   1      13.508  17.015  -6.207  0.00  0.00     0.031 A 
ATOM     25  F   UNL d   1      14.042  18.336  -6.352  0.00  0.00    -0.204 F 
ATOM     26  C   UNL d   1      13.465  16.305  -5.786  0.00  0.00     0.020 A 
ENDBRANCH   1  20
TORSDOF 3
ENDMDL
