MODEL 1
REMARK VINA RESULT:      11.6      0.000      0.000
REMARK  4 active torsions:
REMARK  status: ('A' for Active; 'I' for Inactive)
REMARK    1  A    between atoms: C_3  and  N_1 
REMARK    2  A    between atoms: C_6  and  C_3 
REMARK    3  A    between atoms: C_9  and  C_3 
REMARK    4  A    between atoms: N_5  and  C_6 
ROOT
ATOM      1  C   UNL d   1      23.590  12.606  -1.536  0.00  0.00     0.106 C 
ENDROOT
BRANCH   1   2
ATOM      2  N   UNL d   1      23.996  13.134  -1.032  0.00  0.00    -0.228 N 
ATOM      3  N   UNL d   1      24.058  13.962  -1.023  0.00  0.00    -0.165 NA
ATOM      4  C   UNL d   1      24.534  14.154  -0.394  0.00  0.00     0.103 A 
ATOM      5  C   UNL d   1      24.754  14.937  -0.167  0.00  0.00     0.022 C 
ATOM      6  C   UNL d   1      24.768  13.484  -0.014  0.00  0.00     0.040 A 
ATOM      7  C   UNL d   1      24.440  12.839  -0.402  0.00  0.00     0.085 A 
ATOM      8  C   UNL d   1      24.530  12.034  -0.205  0.00  0.00     0.021 C 
ENDBRANCH   1   2
BRANCH   1   9
ATOM      9  C   UNL d   1      22.906  12.230  -1.270  0.00  0.00     0.167 C 
BRANCH   9  10
ATOM     10  N   UNL d   1      22.313  12.660  -0.888  0.00  0.00    -0.111 N 
ATOM     11  O   UNL d   1      21.905  13.255  -1.288  0.00  0.00    -0.532 OA
ATOM     12  O   UNL d   1      22.125  12.490  -0.091  0.00  0.00    -0.532 OA
ENDBRANCH   9  10
ENDBRANCH   1   9
BRANCH   1  13
ATOM     13  C   UNL d   1      23.883  12.455  -2.329  0.00  0.00     0.019 A 
ATOM     14  C   UNL d   1      24.491  11.920  -2.448  0.00  0.00     0.002 A 
ATOM     15  C   UNL d   1      24.768  11.779  -3.211  0.00  0.00     0.000 A 
ATOM     16  C   UNL d   1      24.438  12.173  -3.857  0.00  0.00     0.000 A 
ATOM     17  C   UNL d   1      23.830  12.709  -3.738  0.00  0.00     0.000 A 
ATOM     18  C   UNL d   1      24.728  12.024  -4.640  0.00  0.00     0.000 C 
ATOM     19  C   UNL d   1      23.553  12.849  -2.974  0.00  0.00     0.002 A 
ENDBRANCH   1  13
TORSDOF 4
ENDMDL
