MODEL 1
REMARK VINA RESULT:      62.3      0.000      0.000
REMARK  6 active torsions:
REMARK  status: ('A' for Active; 'I' for Inactive)
REMARK    1  A    between atoms: N_4  and  C_1 
REMARK    2  A    between atoms: C_10  and  C_3 
REMARK       I    between atoms: C_9  and  N_4 
REMARK       I    between atoms: N_7  and  C_8 
REMARK    3  A    between atoms: C_8  and  C_15 
REMARK    4  A    between atoms: C_16  and  C_9 
REMARK    5  A    between atoms: S_14  and  C_16 
REMARK    6  A    between atoms: C_15  and  S_14 
ROOT
ATOM      1  N   UNL d   1      60.970  48.388  51.138  0.00  0.00    -0.182 NA
ATOM      2  C   UNL d   1      60.673  49.086  50.852  0.00  0.00     0.288 C 
ATOM      3  O   UNL d   1      60.710  49.258  50.046  0.00  0.00    -0.265 OA
ENDROOT
BRANCH   2   4
ATOM      4  C   UNL d   1      60.330  49.631  51.372  0.00  0.00     0.098 C 
BRANCH   4   5
ATOM      5  S   UNL d   1      59.470  49.708  51.284  0.00  0.00    -0.076 SA
BRANCH   5   6
ATOM      6  C   UNL d   1      59.031  49.143  50.791  0.00  0.00     0.097 C 
BRANCH   6   7
ATOM      7  C   UNL d   1      58.656  49.413  50.059  0.00  0.00     0.272 C 
ATOM      8  N   UNL d   1      57.793  49.402  49.978  0.00  0.00    -0.267 N 
ATOM      9  C   UNL d   1      57.303  49.120  50.636  0.00  0.00     0.110 A 
ATOM     10  C   UNL d   1      57.426  49.674  49.240  0.00  0.00     0.110 A 
ATOM     11  C   UNL d   1      56.442  49.109  50.560  0.00  0.00     0.142 A 
ATOM     12  O   UNL d   1      56.068  49.378  49.828  0.00  0.00    -0.300 OA
ATOM     13  C   UNL d   1      56.555  49.660  49.168  0.00  0.00     0.142 A 
ATOM     14  O   UNL d   1      59.146  49.694  49.401  0.00  0.00    -0.266 OA
ENDBRANCH   6   7
ENDBRANCH   5   6
ENDBRANCH   4   5
ENDBRANCH   2   4
BRANCH   1  15
ATOM     15  C   UNL d   1      61.313  47.842  50.622  0.00  0.00     0.197 A 
ATOM     16  N   UNL d   1      61.099  47.047  50.554  0.00  0.00    -0.221 NA
ATOM     17  C   UNL d   1      61.579  46.705  49.977  0.00  0.00     0.090 A 
ATOM     18  C   UNL d   1      62.085  47.291  49.694  0.00  0.00     0.058 A 
ATOM     19  S   UNL d   1      61.921  47.984  50.089  0.00  0.00    -0.046 SA
BRANCH  17  20
ATOM     20  C   UNL d   1      61.553  45.928  49.735  0.00  0.00     0.018 A 
ATOM     21  C   UNL d   1      61.979  45.688  49.089  0.00  0.00     0.002 A 
ATOM     22  C   UNL d   1      61.953  44.902  48.844  0.00  0.00     0.000 A 
ATOM     23  C   UNL d   1      61.494  44.361  49.255  0.00  0.00     0.000 A 
ATOM     24  C   UNL d   1      61.059  44.601  49.913  0.00  0.00     0.000 A 
ATOM     25  C   UNL d   1      61.092  45.388  50.149  0.00  0.00     0.002 A 
ENDBRANCH  17  20
ENDBRANCH   1  15
TORSDOF 6
ENDMDL
