MODEL 1
REMARK VINA RESULT:      42.9      0.000      0.000
REMARK  9 active torsions:
REMARK  status: ('A' for Active; 'I' for Inactive)
REMARK       I    between atoms: N_2  and  C_1 
REMARK    1  A    between atoms: C_16  and  C_1 
REMARK    2  A    between atoms: C_8  and  N_2 
REMARK    3  A    between atoms: N_4  and  C_3 
REMARK    4  A    between atoms: C_17  and  N_4 
REMARK    5  A    between atoms: C_18  and  N_4 
REMARK    6  A    between atoms: C_12  and  O_14 
REMARK    7  A    between atoms: O_14  and  C_21 
REMARK    8  A    between atoms: C_23  and  C_16 
REMARK    9  A    between atoms: C_21  and  C_23 
ROOT
ATOM      1  C   UNL d   1      13.179  14.193  -4.803  0.00  0.00     0.328 C 
ATOM      2  N   UNL d   1      13.398  13.742  -4.135  0.00  0.00    -0.365 NA
ATOM      3  O   UNL d   1      12.862  13.818  -5.459  0.00  0.00    -0.251 OA
ENDROOT
BRANCH   1   4
ATOM      4  C   UNL d   1      13.282  15.004  -4.802  0.00  0.00     0.078 C 
BRANCH   4   5
ATOM      5  C   UNL d   1      13.923  15.341  -5.185  0.00  0.00     0.033 C 
BRANCH   5   6
ATOM      6  C   UNL d   1      13.988  16.167  -5.263  0.00  0.00     0.123 C 
BRANCH   6   7
ATOM      7  O   UNL d   1      14.042  16.509  -6.012  0.00  0.00    -0.305 OA
BRANCH   7   8
ATOM      8  C   UNL d   1      13.795  17.286  -6.115  0.00  0.00     0.100 A 
ATOM      9  C   UNL d   1      14.360  17.914  -6.043  0.00  0.00     0.025 A 
ATOM     10  C   UNL d   1      14.103  18.702  -6.148  0.00  0.00     0.002 A 
ATOM     11  C   UNL d   1      14.660  19.301  -6.076  0.00  0.00     0.000 C 
ATOM     12  C   UNL d   1      13.320  18.875  -6.318  0.00  0.00     0.000 A 
ATOM     13  C   UNL d   1      12.769  18.266  -6.389  0.00  0.00     0.002 A 
ATOM     14  C   UNL d   1      13.001  17.462  -6.287  0.00  0.00     0.025 A 
ENDBRANCH   7   8
ENDBRANCH   6   7
ENDBRANCH   5   6
ENDBRANCH   4   5
ENDBRANCH   1   4
BRANCH   2  15
ATOM     15  C   UNL d   1      13.615  13.306  -3.474  0.00  0.00     0.135 A 
ATOM     16  C   UNL d   1      13.758  12.493  -3.527  0.00  0.00     0.034 A 
ATOM     17  C   UNL d   1      13.973  12.069  -2.870  0.00  0.00     0.020 A 
ATOM     18  C   UNL d   1      14.052  12.436  -2.140  0.00  0.00     0.064 A 
ATOM     19  C   UNL d   1      13.910  13.256  -2.074  0.00  0.00     0.020 A 
ATOM     20  C   UNL d   1      13.692  13.693  -2.738  0.00  0.00     0.034 A 
BRANCH  18  21
ATOM     21  N   UNL d   1      14.270  12.006  -1.467  0.00  0.00    -0.304 N 
BRANCH  21  22
ATOM     22  C   UNL d   1      15.072  11.802  -1.355  0.00  0.00     0.080 C 
ATOM     23  C   UNL d   1      15.392  11.784  -0.595  0.00  0.00     0.021 C 
ENDBRANCH  21  22
BRANCH  21  24
ATOM     24  C   UNL d   1      13.713  11.780  -0.908  0.00  0.00     0.080 C 
ATOM     25  C   UNL d   1      13.714  12.127  -0.166  0.00  0.00     0.021 C 
ENDBRANCH  21  24
ENDBRANCH  18  21
ENDBRANCH   2  15
TORSDOF 9
ENDMDL
MODEL 2
REMARK VINA RESULT:      43.3      2.688      5.473
REMARK  9 active torsions:
REMARK  status: ('A' for Active; 'I' for Inactive)
REMARK       I    between atoms: N_2  and  C_1 
REMARK    1  A    between atoms: C_16  and  C_1 
REMARK    2  A    between atoms: C_8  and  N_2 
REMARK    3  A    between atoms: N_4  and  C_3 
REMARK    4  A    between atoms: C_17  and  N_4 
REMARK    5  A    between atoms: C_18  and  N_4 
REMARK    6  A    between atoms: C_12  and  O_14 
REMARK    7  A    between atoms: O_14  and  C_21 
REMARK    8  A    between atoms: C_23  and  C_16 
REMARK    9  A    between atoms: C_21  and  C_23 
ROOT
ATOM      1  C   UNL d   1      14.926  16.237  -2.144  0.00  0.00     0.328 C 
ATOM      2  N   UNL d   1      14.613  15.609  -2.599  0.00  0.00    -0.365 NA
ATOM      3  O   UNL d   1      15.082  16.957  -2.502  0.00  0.00    -0.251 OA
ENDROOT
BRANCH   1   4
ATOM      4  C   UNL d   1      15.073  16.131  -1.347  0.00  0.00     0.078 C 
BRANCH   4   5
ATOM      5  C   UNL d   1      15.292  15.396  -1.061  0.00  0.00     0.033 C 
BRANCH   5   6
ATOM      6  C   UNL d   1      15.206  15.209  -0.254  0.00  0.00     0.123 C 
BRANCH   6   7
ATOM      7  O   UNL d   1      14.637  14.661  -0.015  0.00  0.00    -0.305 OA
BRANCH   7   8
ATOM      8  C   UNL d   1      14.807  13.858  -0.074  0.00  0.00     0.100 A 
ATOM      9  C   UNL d   1      14.171  13.306  -0.169  0.00  0.00     0.025 A 
ATOM     10  C   UNL d   1      14.349  12.492  -0.228  0.00  0.00     0.002 A 
ATOM     11  C   UNL d   1      13.724  11.967  -0.320  0.00  0.00     0.000 C 
ATOM     12  C   UNL d   1      15.122  12.222  -0.195  0.00  0.00     0.000 A 
ATOM     13  C   UNL d   1      15.743  12.757  -0.102  0.00  0.00     0.002 A 
ATOM     14  C   UNL d   1      15.591  13.584  -0.040  0.00  0.00     0.025 A 
ENDBRANCH   7   8
ENDBRANCH   6   7
ENDBRANCH   5   6
ENDBRANCH   4   5
ENDBRANCH   1   4
BRANCH   2  15
ATOM     15  C   UNL d   1      14.306  14.988  -3.039  0.00  0.00     0.135 A 
ATOM     16  C   UNL d   1      14.099  15.089  -3.833  0.00  0.00     0.034 A 
ATOM     17  C   UNL d   1      13.796  14.470  -4.262  0.00  0.00     0.020 A 
ATOM     18  C   UNL d   1      13.690  13.733  -3.918  0.00  0.00     0.064 A 
ATOM     19  C   UNL d   1      13.896  13.618  -3.117  0.00  0.00     0.020 A 
ATOM     20  C   UNL d   1      14.204  14.243  -2.675  0.00  0.00     0.034 A 
BRANCH  18  21
ATOM     21  N   UNL d   1      13.381  13.098  -4.351  0.00  0.00    -0.304 N 
BRANCH  21  22
ATOM     22  C   UNL d   1      12.773  12.633  -4.018  0.00  0.00     0.080 C 
ATOM     23  C   UNL d   1      12.947  11.890  -3.704  0.00  0.00     0.021 C 
ENDBRANCH  21  22
BRANCH  21  24
ATOM     24  C   UNL d   1      13.663  12.920  -5.101  0.00  0.00     0.080 C 
ATOM     25  C   UNL d   1      13.595  12.156  -5.392  0.00  0.00     0.021 C 
ENDBRANCH  21  24
ENDBRANCH  18  21
ENDBRANCH   2  15
TORSDOF 9
ENDMDL
MODEL 3
REMARK VINA RESULT:      43.4      1.430      2.092
REMARK  9 active torsions:
REMARK  status: ('A' for Active; 'I' for Inactive)
REMARK       I    between atoms: N_2  and  C_1 
REMARK    1  A    between atoms: C_16  and  C_1 
REMARK    2  A    between atoms: C_8  and  N_2 
REMARK    3  A    between atoms: N_4  and  C_3 
REMARK    4  A    between atoms: C_17  and  N_4 
REMARK    5  A    between atoms: C_18  and  N_4 
REMARK    6  A    between atoms: C_12  and  O_14 
REMARK    7  A    between atoms: O_14  and  C_21 
REMARK    8  A    between atoms: C_23  and  C_16 
REMARK    9  A    between atoms: C_21  and  C_23 
ROOT
ATOM      1  C   UNL d   1      14.652  16.204  -3.716  0.00  0.00     0.328 C 
ATOM      2  N   UNL d   1      14.424  15.410  -3.595  0.00  0.00    -0.365 NA
ATOM      3  O   UNL d   1      14.797  16.687  -3.070  0.00  0.00    -0.251 OA
ENDROOT
BRANCH   1   4
ATOM      4  C   UNL d   1      14.730  16.497  -4.476  0.00  0.00     0.078 C 
BRANCH   4   5
ATOM      5  C   UNL d   1      14.728  17.304  -4.611  0.00  0.00     0.033 C 
BRANCH   5   6
ATOM      6  C   UNL d   1      14.150  17.654  -5.098  0.00  0.00     0.123 C 
BRANCH   6   7
ATOM      7  O   UNL d   1      14.374  18.045  -5.789  0.00  0.00    -0.305 OA
BRANCH   7   8
ATOM      8  C   UNL d   1      14.149  18.829  -5.895  0.00  0.00     0.100 A 
ATOM      9  C   UNL d   1      14.650  19.447  -5.604  0.00  0.00     0.025 A 
ATOM     10  C   UNL d   1      14.416  20.242  -5.715  0.00  0.00     0.002 A 
ATOM     11  C   UNL d   1      14.911  20.831  -5.428  0.00  0.00     0.000 C 
ATOM     12  C   UNL d   1      13.716  20.430  -6.097  0.00  0.00     0.000 A 
ATOM     13  C   UNL d   1      13.227  19.830  -6.381  0.00  0.00     0.002 A 
ATOM     14  C   UNL d   1      13.439  19.020  -6.283  0.00  0.00     0.025 A 
ENDBRANCH   7   8
ENDBRANCH   6   7
ENDBRANCH   5   6
ENDBRANCH   4   5
ENDBRANCH   1   4
BRANCH   2  15
ATOM     15  C   UNL d   1      14.199  14.628  -3.484  0.00  0.00     0.135 A 
ATOM     16  C   UNL d   1      13.893  14.178  -4.108  0.00  0.00     0.034 A 
ATOM     17  C   UNL d   1      13.673  13.407  -3.991  0.00  0.00     0.020 A 
ATOM     18  C   UNL d   1      13.748  13.056  -3.253  0.00  0.00     0.064 A 
ATOM     19  C   UNL d   1      14.056  13.499  -2.615  0.00  0.00     0.020 A 
ATOM     20  C   UNL d   1      14.281  14.284  -2.728  0.00  0.00     0.034 A 
BRANCH  18  21
ATOM     21  N   UNL d   1      13.525  12.268  -3.128  0.00  0.00    -0.304 N 
BRANCH  21  22
ATOM     22  C   UNL d   1      13.938  11.811  -2.565  0.00  0.00     0.080 C 
ATOM     23  C   UNL d   1      13.673  11.779  -1.784  0.00  0.00     0.021 C 
ENDBRANCH  21  22
BRANCH  21  24
ATOM     24  C   UNL d   1      12.906  11.931  -3.549  0.00  0.00     0.080 C 
ATOM     25  C   UNL d   1      12.942  11.892  -4.367  0.00  0.00     0.021 C 
ENDBRANCH  21  24
ENDBRANCH  18  21
ENDBRANCH   2  15
TORSDOF 9
ENDMDL
MODEL 4
REMARK VINA RESULT:      43.7      1.737      2.338
REMARK  9 active torsions:
REMARK  status: ('A' for Active; 'I' for Inactive)
REMARK       I    between atoms: N_2  and  C_1 
REMARK    1  A    between atoms: C_16  and  C_1 
REMARK    2  A    between atoms: C_8  and  N_2 
REMARK    3  A    between atoms: N_4  and  C_3 
REMARK    4  A    between atoms: C_17  and  N_4 
REMARK    5  A    between atoms: C_18  and  N_4 
REMARK    6  A    between atoms: C_12  and  O_14 
REMARK    7  A    between atoms: O_14  and  C_21 
REMARK    8  A    between atoms: C_23  and  C_16 
REMARK    9  A    between atoms: C_21  and  C_23 
ROOT
ATOM      1  C   UNL d   1      14.833  16.249  -2.459  0.00  0.00     0.328 C 
ATOM      2  N   UNL d   1      14.806  15.496  -2.100  0.00  0.00    -0.365 NA
ATOM      3  O   UNL d   1      14.807  16.922  -1.991  0.00  0.00    -0.251 OA
ENDROOT
BRANCH   1   4
ATOM      4  C   UNL d   1      14.886  16.314  -3.272  0.00  0.00     0.078 C 
BRANCH   4   5
ATOM      5  C   UNL d   1      15.121  17.019  -3.617  0.00  0.00     0.033 C 
BRANCH   5   6
ATOM      6  C   UNL d   1      14.664  17.374  -4.215  0.00  0.00     0.123 C 
BRANCH   6   7
ATOM      7  O   UNL d   1      15.021  17.619  -4.918  0.00  0.00    -0.305 OA
BRANCH   7   8
ATOM      8  C   UNL d   1      14.747  18.300  -5.288  0.00  0.00     0.100 A 
ATOM      9  C   UNL d   1      13.985  18.293  -5.658  0.00  0.00     0.025 A 
ATOM     10  C   UNL d   1      13.711  18.988  -6.033  0.00  0.00     0.002 A 
ATOM     11  C   UNL d   1      12.971  18.967  -6.387  0.00  0.00     0.000 C 
ATOM     12  C   UNL d   1      14.165  19.669  -6.048  0.00  0.00     0.000 A 
ATOM     13  C   UNL d   1      14.908  19.679  -5.689  0.00  0.00     0.002 A 
ATOM     14  C   UNL d   1      15.208  18.992  -5.304  0.00  0.00     0.025 A 
ENDBRANCH   7   8
ENDBRANCH   6   7
ENDBRANCH   5   6
ENDBRANCH   4   5
ENDBRANCH   1   4
BRANCH   2  15
ATOM     15  C   UNL d   1      14.780  14.751  -1.754  0.00  0.00     0.135 A 
ATOM     16  C   UNL d   1      15.065  14.626  -0.988  0.00  0.00     0.034 A 
ATOM     17  C   UNL d   1      15.035  13.887  -0.653  0.00  0.00     0.020 A 
ATOM     18  C   UNL d   1      14.723  13.251  -1.066  0.00  0.00     0.064 A 
ATOM     19  C   UNL d   1      14.432  13.365  -1.840  0.00  0.00     0.020 A 
ATOM     20  C   UNL d   1      14.459  14.113  -2.187  0.00  0.00     0.034 A 
BRANCH  18  21
ATOM     21  N   UNL d   1      14.691  12.495  -0.728  0.00  0.00    -0.304 N 
BRANCH  21  22
ATOM     22  C   UNL d   1      14.237  12.376  -0.038  0.00  0.00     0.080 C 
ATOM     23  C   UNL d   1      13.610  11.840  -0.043  0.00  0.00     0.021 C 
ENDBRANCH  21  22
BRANCH  21  24
ATOM     24  C   UNL d   1      15.097  11.864  -1.061  0.00  0.00     0.080 C 
ATOM     25  C   UNL d   1      15.903  11.786  -0.936  0.00  0.00     0.021 C 
ENDBRANCH  21  24
ENDBRANCH  18  21
ENDBRANCH   2  15
TORSDOF 9
ENDMDL
