MODEL 1
REMARK VINA RESULT:      -7.4      0.000      0.000
REMARK  3 active torsions:
REMARK  status: ('A' for Active; 'I' for Inactive)
REMARK    1  A    between atoms: N_5  and  C_1 
REMARK    2  A    between atoms: C_8  and  C_3 
REMARK       I    between atoms: C_7  and  N_5 
REMARK    3  A    between atoms: C_13  and  C_7 
ROOT
ATOM      1  C   UNL d   1     -41.514-122.941 -52.151  0.00  0.00     0.297 A 
ATOM      2  O   UNL d   1     -41.872-122.674 -51.454  0.00  0.00    -0.253 OA
ATOM      3  C   UNL d   1     -41.699-123.221 -50.853  0.00  0.00     0.206 A 
ATOM      4  N   UNL d   1     -41.238-123.817 -51.184  0.00  0.00    -0.119 NA
ATOM      5  N   UNL d   1     -41.124-123.644 -51.984  0.00  0.00    -0.101 NA
ENDROOT
BRANCH   3   6
ATOM      6  C   UNL d   1     -41.951-123.167 -50.063  0.00  0.00     0.043 A 
ATOM      7  C   UNL d   1     -41.435-123.378 -49.454  0.00  0.00     0.004 A 
ATOM      8  C   UNL d   1     -41.683-123.325 -48.676  0.00  0.00     0.000 A 
ATOM      9  C   UNL d   1     -41.160-123.538 -48.071  0.00  0.00     0.000 A 
ATOM     10  C   UNL d   1     -42.443-123.062 -48.509  0.00  0.00     0.000 A 
ATOM     11  C   UNL d   1     -41.400-123.488 -47.294  0.00  0.00     0.000 A 
ATOM     12  C   UNL d   1     -42.164-123.224 -47.111  0.00  0.00     0.000 A 
ATOM     13  C   UNL d   1     -42.692-123.010 -47.707  0.00  0.00     0.000 A 
ATOM     14  C   UNL d   1     -42.959-122.852 -49.097  0.00  0.00     0.000 A 
ATOM     15  C   UNL d   1     -42.719-122.902 -49.879  0.00  0.00     0.004 A 
ENDBRANCH   3   6
BRANCH   1  16
ATOM     16  N   UNL d   1     -41.549-122.557 -52.884  0.00  0.00    -0.165 NA
ATOM     17  C   UNL d   1     -41.852-122.944 -53.538  0.00  0.00     0.282 C 
ATOM     18  O   UNL d   1     -42.130-123.724 -53.477  0.00  0.00    -0.265 OA
BRANCH  17  19
ATOM     19  C   UNL d   1     -41.885-122.559 -54.268  0.00  0.00     0.058 A 
ATOM     20  C   UNL d   1     -42.542-122.093 -54.445  0.00  0.00     0.005 A 
ATOM     21  C   UNL d   1     -42.577-121.705 -55.179  0.00  0.00     0.000 A 
ATOM     22  C   UNL d   1     -41.962-121.784 -55.724  0.00  0.00     0.000 A 
ATOM     23  C   UNL d   1     -41.309-122.253 -55.536  0.00  0.00     0.000 A 
ATOM     24  C   UNL d   1     -41.268-122.642 -54.806  0.00  0.00     0.005 A 
ENDBRANCH  17  19
ENDBRANCH   1  16
TORSDOF 3
ENDMDL
MODEL 2
REMARK VINA RESULT:      -7.2      0.981      5.578
REMARK  3 active torsions:
REMARK  status: ('A' for Active; 'I' for Inactive)
REMARK    1  A    between atoms: N_5  and  C_1 
REMARK    2  A    between atoms: C_8  and  C_3 
REMARK       I    between atoms: C_7  and  N_5 
REMARK    3  A    between atoms: C_13  and  C_7 
ROOT
ATOM      1  C   UNL d   1     -41.387-122.390 -50.799  0.00  0.00     0.297 A 
ATOM      2  O   UNL d   1     -41.550-122.791 -51.504  0.00  0.00    -0.253 OA
ATOM      3  C   UNL d   1     -41.386-122.276 -52.134  0.00  0.00     0.206 A 
ATOM      4  N   UNL d   1     -41.125-121.564 -51.813  0.00  0.00    -0.119 NA
ATOM      5  N   UNL d   1     -41.126-121.635 -50.989  0.00  0.00    -0.101 NA
ENDROOT
BRANCH   3   6
ATOM      6  C   UNL d   1     -41.474-122.455 -52.942  0.00  0.00     0.043 A 
ATOM      7  C   UNL d   1     -41.838-121.910 -53.443  0.00  0.00     0.004 A 
ATOM      8  C   UNL d   1     -41.925-122.087 -54.239  0.00  0.00     0.000 A 
ATOM      9  C   UNL d   1     -42.291-121.537 -54.735  0.00  0.00     0.000 A 
ATOM     10  C   UNL d   1     -41.647-122.805 -54.527  0.00  0.00     0.000 A 
ATOM     11  C   UNL d   1     -42.381-121.705 -55.528  0.00  0.00     0.000 A 
ATOM     12  C   UNL d   1     -42.105-122.425 -55.834  0.00  0.00     0.000 A 
ATOM     13  C   UNL d   1     -41.739-122.980 -55.345  0.00  0.00     0.000 A 
ATOM     14  C   UNL d   1     -41.287-123.347 -54.045  0.00  0.00     0.000 A 
ATOM     15  C   UNL d   1     -41.197-123.178 -53.248  0.00  0.00     0.004 A 
ENDBRANCH   3   6
BRANCH   1  16
ATOM     16  N   UNL d   1     -41.476-122.704 -50.038  0.00  0.00    -0.165 NA
ATOM     17  C   UNL d   1     -42.214-122.732 -49.687  0.00  0.00     0.282 C 
ATOM     18  O   UNL d   1     -42.884-122.448 -50.086  0.00  0.00    -0.265 OA
BRANCH  17  19
ATOM     19  C   UNL d   1     -42.299-123.046 -48.927  0.00  0.00     0.058 A 
ATOM     20  C   UNL d   1     -42.966-123.498 -48.753  0.00  0.00     0.005 A 
ATOM     21  C   UNL d   1     -43.052-123.814 -47.990  0.00  0.00     0.000 A 
ATOM     22  C   UNL d   1     -42.478-123.679 -47.413  0.00  0.00     0.000 A 
ATOM     23  C   UNL d   1     -41.814-123.225 -47.598  0.00  0.00     0.000 A 
ATOM     24  C   UNL d   1     -41.722-122.907 -48.357  0.00  0.00     0.005 A 
ENDBRANCH  17  19
ENDBRANCH   1  16
TORSDOF 3
ENDMDL
