MODEL 1
REMARK VINA RESULT:      20.3      0.000      0.000
REMARK  2 active torsions:
REMARK  status: ('A' for Active; 'I' for Inactive)
REMARK    1  A    between atoms: C_6  and  C_1 
REMARK    2  A    between atoms: C_8  and  C_6 
ROOT
ATOM      1  C   UNL d   1      58.659  49.701  51.165  0.00  0.00     0.141 A 
ATOM      2  C   UNL d   1      57.338  49.701  50.930  0.00  0.00     0.064 A 
ATOM      3  C   UNL d   1      57.915  49.703  51.523  0.00  0.00     0.220 A 
ATOM      4  C   UNL d   1      57.729  49.697  50.203  0.00  0.00     0.106 A 
ATOM      5  O   UNL d   1      58.544  49.696  50.342  0.00  0.00    -0.304 OA
ATOM      6  C   UNL d   1      56.509  49.702  50.961  0.00  0.00     0.008 A 
ATOM      7  C   UNL d   1      57.293  49.693  49.500  0.00  0.00     0.067 A 
ATOM      8  C   UNL d   1      56.075  49.699  50.261  0.00  0.00     0.042 A 
ATOM      9  C   UNL d   1      56.466  49.694  49.534  0.00  0.00     0.198 A 
ATOM     10  O   UNL d   1      57.773  49.708  52.340  0.00  0.00    -0.284 OA
ATOM     11  O   UNL d   1      56.033  49.691  48.834  0.00  0.00    -0.286 OA
ATOM     12  C   UNL d   1      56.122  49.706  51.691  0.00  0.00     0.000 C 
ENDROOT
BRANCH   1  13
ATOM     13  C   UNL d   1      59.390  49.702  51.548  0.00  0.00     0.053 C 
BRANCH  13  14
ATOM     14  C   UNL d   1      60.084  49.601  51.120  0.00  0.00     0.102 A 
ATOM     15  O   UNL d   1      60.158  49.685  50.302  0.00  0.00    -0.305 OA
ATOM     16  C   UNL d   1      60.946  49.535  50.108  0.00  0.00     0.123 A 
ATOM     17  C   UNL d   1      61.352  49.361  50.798  0.00  0.00     0.029 A 
ATOM     18  C   UNL d   1      60.817  49.402  51.431  0.00  0.00     0.027 A 
ENDBRANCH  13  14
ENDBRANCH   1  13
TORSDOF 2
ENDMDL
MODEL 2
REMARK VINA RESULT:      21.5      0.992      3.993
REMARK  2 active torsions:
REMARK  status: ('A' for Active; 'I' for Inactive)
REMARK    1  A    between atoms: C_6  and  C_1 
REMARK    2  A    between atoms: C_8  and  C_6 
ROOT
ATOM      1  C   UNL d   1      58.831  49.701  50.468  0.00  0.00     0.141 A 
ATOM      2  C   UNL d   1      60.121  49.696  50.836  0.00  0.00     0.064 A 
ATOM      3  C   UNL d   1      59.608  49.697  50.188  0.00  0.00     0.220 A 
ATOM      4  C   UNL d   1      59.659  49.699  51.520  0.00  0.00     0.106 A 
ATOM      5  O   UNL d   1      58.862  49.702  51.299  0.00  0.00    -0.304 OA
ATOM      6  C   UNL d   1      60.949  49.693  50.889  0.00  0.00     0.008 A 
ATOM      7  C   UNL d   1      60.021  49.699  52.263  0.00  0.00     0.067 A 
ATOM      8  C   UNL d   1      61.310  49.693  51.629  0.00  0.00     0.042 A 
ATOM      9  C   UNL d   1      60.848  49.696  52.313  0.00  0.00     0.198 A 
ATOM     10  O   UNL d   1      59.831  49.695  49.389  0.00  0.00    -0.284 OA
ATOM     11  O   UNL d   1      61.207  49.695  53.054  0.00  0.00    -0.286 OA
ATOM     12  C   UNL d   1      61.408  49.691  50.202  0.00  0.00     0.000 C 
ENDROOT
BRANCH   1  13
ATOM     13  C   UNL d   1      58.142  49.703  50.013  0.00  0.00     0.053 C 
BRANCH  13  14
ATOM     14  C   UNL d   1      57.410  49.584  50.367  0.00  0.00     0.102 A 
ATOM     15  O   UNL d   1      57.271  49.552  51.180  0.00  0.00    -0.305 OA
ATOM     16  C   UNL d   1      56.462  49.424  51.287  0.00  0.00     0.123 A 
ATOM     17  C   UNL d   1      56.109  49.378  50.549  0.00  0.00     0.029 A 
ATOM     18  C   UNL d   1      56.697  49.477  49.974  0.00  0.00     0.027 A 
ENDBRANCH  13  14
ENDBRANCH   1  13
TORSDOF 2
ENDMDL
