MODEL 1
REMARK VINA RESULT:      23.9      0.000      0.000
REMARK  1 active torsions:
REMARK  status: ('A' for Active; 'I' for Inactive)
REMARK    1  A    between atoms: C_8  and  C_3 
ROOT
ATOM      1  C   UNL d   1     -57.754 -98.778 -45.053  0.00  0.00     0.199 A 
ATOM      2  C   UNL d   1     -57.642 -98.775 -43.714  0.00  0.00     0.199 A 
ATOM      3  C   UNL d   1     -57.220 -98.780 -44.430  0.00  0.00     0.078 A 
ATOM      4  C   UNL d   1     -58.521 -98.770 -44.752  0.00  0.00     0.042 A 
ATOM      5  C   UNL d   1     -58.451 -98.769 -43.922  0.00  0.00     0.042 A 
ATOM      6  O   UNL d   1     -57.306 -98.776 -42.931  0.00  0.00    -0.286 OA
ATOM      7  O   UNL d   1     -57.554 -98.782 -45.881  0.00  0.00    -0.286 OA
ATOM      8  C   UNL d   1     -59.123 -98.762 -43.443  0.00  0.00     0.003 A 
ATOM      9  C   UNL d   1     -59.261 -98.765 -45.097  0.00  0.00     0.003 A 
ATOM     10  C   UNL d   1     -59.872 -98.756 -43.803  0.00  0.00     0.000 A 
ATOM     11  C   UNL d   1     -59.942 -98.758 -44.633  0.00  0.00     0.000 A 
ENDROOT
BRANCH   3  12
ATOM     12  C   UNL d   1     -56.401 -98.788 -44.524  0.00  0.00     0.009 A 
ATOM     13  C   UNL d   1     -55.916 -98.828 -43.859  0.00  0.00     0.021 A 
ATOM     14  C   UNL d   1     -55.104 -98.835 -43.952  0.00  0.00     0.099 A 
ATOM     15  N   UNL d   1     -54.743 -98.804 -44.684  0.00  0.00    -0.242 NA
ATOM     16  C   UNL d   1     -55.254 -98.763 -45.354  0.00  0.00     0.099 A 
ATOM     17  C   UNL d   1     -56.074 -98.756 -45.260  0.00  0.00     0.021 A 
ENDBRANCH   3  12
TORSDOF 1
ENDMDL
MODEL 2
REMARK VINA RESULT:      25.5      1.341      3.545
REMARK  1 active torsions:
REMARK  status: ('A' for Active; 'I' for Inactive)
REMARK    1  A    between atoms: C_8  and  C_3 
ROOT
ATOM      1  C   UNL d   1     -56.876 -98.788 -43.597  0.00  0.00     0.199 A 
ATOM      2  C   UNL d   1     -57.089 -98.772 -44.924  0.00  0.00     0.199 A 
ATOM      3  C   UNL d   1     -57.455 -98.777 -44.178  0.00  0.00     0.078 A 
ATOM      4  C   UNL d   1     -56.134 -98.791 -43.955  0.00  0.00     0.042 A 
ATOM      5  C   UNL d   1     -56.266 -98.781 -44.778  0.00  0.00     0.042 A 
ATOM      6  O   UNL d   1     -57.483 -98.760 -45.679  0.00  0.00    -0.286 OA
ATOM      7  O   UNL d   1     -57.014 -98.796 -42.757  0.00  0.00    -0.286 OA
ATOM      8  C   UNL d   1     -55.633 -98.781 -45.306  0.00  0.00     0.003 A 
ATOM      9  C   UNL d   1     -55.370 -98.801 -43.667  0.00  0.00     0.003 A 
ATOM     10  C   UNL d   1     -54.859 -98.792 -45.004  0.00  0.00     0.000 A 
ATOM     11  C   UNL d   1     -54.727 -98.802 -44.181  0.00  0.00     0.000 A 
ENDROOT
BRANCH   3  12
ATOM     12  C   UNL d   1     -58.265 -98.771 -44.022  0.00  0.00     0.009 A 
ATOM     13  C   UNL d   1     -58.800 -98.761 -44.649  0.00  0.00     0.021 A 
ATOM     14  C   UNL d   1     -59.603 -98.756 -44.495  0.00  0.00     0.099 A 
ATOM     15  N   UNL d   1     -59.906 -98.759 -43.737  0.00  0.00    -0.242 NA
ATOM     16  C   UNL d   1     -59.346 -98.768 -43.107  0.00  0.00     0.099 A 
ATOM     17  C   UNL d   1     -58.535 -98.774 -43.263  0.00  0.00     0.021 A 
ENDBRANCH   3  12
TORSDOF 1
ENDMDL
