MODEL 1
REMARK VINA RESULT:      -8.1      0.000      0.000
REMARK  3 active torsions:
REMARK  status: ('A' for Active; 'I' for Inactive)
REMARK    1  A    between atoms: C_4  and  C_1 
REMARK       I    between atoms: N_8  and  C_1 
REMARK    2  A    between atoms: S_14  and  C_2 
REMARK    3  A    between atoms: C_10  and  N_8 
ROOT
ATOM      1  C   UNL d   1     -45.916  11.304  23.558  0.00  0.00     0.136 A 
ATOM      2  N   UNL d   1     -45.636  12.017  23.255  0.00  0.00    -0.232 NA
ATOM      3  S   UNL d   1     -46.706  11.330  23.697  0.00  0.00    -0.060 SA
ATOM      4  C   UNL d   1     -46.949  12.093  23.475  0.00  0.00     0.051 A 
ATOM      5  C   UNL d   1     -46.285  12.513  23.203  0.00  0.00     0.089 A 
ATOM      6  C   UNL d   1     -47.686  12.456  23.486  0.00  0.00     0.027 A 
ATOM      7  C   UNL d   1     -47.769  13.244  23.225  0.00  0.00     0.085 A 
ATOM      8  C   UNL d   1     -46.367  13.291  22.945  0.00  0.00     0.021 A 
ATOM      9  C   UNL d   1     -47.104  13.655  22.956  0.00  0.00     0.021 A 
ENDROOT
BRANCH   7  10
ATOM     10  N   UNL d   1     -48.519  13.613  23.236  0.00  0.00    -0.208 NA
ATOM     11  C   UNL d   1     -48.847  13.874  22.526  0.00  0.00     0.283 C 
ATOM     12  O   UNL d   1     -48.458  13.781  21.815  0.00  0.00    -0.265 OA
BRANCH  11  13
ATOM     13  C   UNL d   1     -49.594  14.241  22.538  0.00  0.00     0.113 A 
ATOM     14  C   UNL d   1     -49.649  15.027  22.780  0.00  0.00     0.147 A 
ATOM     15  F   UNL d   1     -48.965  15.460  23.015  0.00  0.00    -0.204 F 
ATOM     16  C   UNL d   1     -50.403  15.399  22.792  0.00  0.00     0.030 A 
ATOM     17  C   UNL d   1     -51.061  14.964  22.560  0.00  0.00     0.005 A 
ATOM     18  C   UNL d   1     -51.007  14.188  22.320  0.00  0.00     0.030 A 
ATOM     19  C   UNL d   1     -50.252  13.816  22.309  0.00  0.00     0.147 A 
ATOM     20  F   UNL d   1     -50.181  13.021  22.066  0.00  0.00    -0.204 F 
ENDBRANCH  11  13
ENDBRANCH   7  10
BRANCH   1  21
ATOM     21  S   UNL d   1     -45.442  10.651  23.698  0.00  0.00    -0.087 SA
ATOM     22  C   UNL d   1     -44.678  10.641  23.419  0.00  0.00     0.076 C 
ENDBRANCH   1  21
TORSDOF 3
ENDMDL
MODEL 2
REMARK VINA RESULT:      -7.2      1.637      2.093
REMARK  3 active torsions:
REMARK  status: ('A' for Active; 'I' for Inactive)
REMARK    1  A    between atoms: C_4  and  C_1 
REMARK       I    between atoms: N_8  and  C_1 
REMARK    2  A    between atoms: S_14  and  C_2 
REMARK    3  A    between atoms: C_10  and  N_8 
ROOT
ATOM      1  C   UNL d   1     -44.873  12.890  22.214  0.00  0.00     0.136 A 
ATOM      2  N   UNL d   1     -45.145  13.668  22.204  0.00  0.00    -0.232 NA
ATOM      3  S   UNL d   1     -45.436  12.383  22.480  0.00  0.00    -0.060 SA
ATOM      4  C   UNL d   1     -46.100  12.852  22.650  0.00  0.00     0.051 A 
ATOM      5  C   UNL d   1     -45.916  13.644  22.478  0.00  0.00     0.089 A 
ATOM      6  C   UNL d   1     -46.846  12.659  22.938  0.00  0.00     0.027 A 
ATOM      7  C   UNL d   1     -47.416  13.255  23.058  0.00  0.00     0.085 A 
ATOM      8  C   UNL d   1     -46.479  14.234  22.596  0.00  0.00     0.021 A 
ATOM      9  C   UNL d   1     -47.225  14.041  22.884  0.00  0.00     0.021 A 
ENDROOT
BRANCH   7  10
ATOM     10  N   UNL d   1     -48.174  13.058  23.350  0.00  0.00    -0.208 NA
ATOM     11  C   UNL d   1     -48.813  13.047  22.830  0.00  0.00     0.283 C 
ATOM     12  O   UNL d   1     -48.724  13.222  22.037  0.00  0.00    -0.265 OA
BRANCH  11  13
ATOM     13  C   UNL d   1     -49.568  12.851  23.121  0.00  0.00     0.113 A 
ATOM     14  C   UNL d   1     -49.803  12.061  23.124  0.00  0.00     0.147 A 
ATOM     15  F   UNL d   1     -49.293  11.453  22.839  0.00  0.00    -0.204 F 
ATOM     16  C   UNL d   1     -50.565  11.863  23.419  0.00  0.00     0.030 A 
ATOM     17  C   UNL d   1     -51.051  12.467  23.694  0.00  0.00     0.005 A 
ATOM     18  C   UNL d   1     -50.819  13.247  23.690  0.00  0.00     0.030 A 
ATOM     19  C   UNL d   1     -50.057  13.445  23.396  0.00  0.00     0.147 A 
ATOM     20  F   UNL d   1     -49.805  14.241  23.386  0.00  0.00    -0.204 F 
ENDBRANCH  11  13
ENDBRANCH   7  10
BRANCH   1  21
ATOM     21  S   UNL d   1     -44.121  12.667  21.980  0.00  0.00    -0.087 SA
ATOM     22  C   UNL d   1     -43.823  12.937  21.274  0.00  0.00     0.076 C 
ENDBRANCH   1  21
TORSDOF 3
ENDMDL
MODEL 3
REMARK VINA RESULT:      -6.8      2.204      4.680
REMARK  3 active torsions:
REMARK  status: ('A' for Active; 'I' for Inactive)
REMARK    1  A    between atoms: C_4  and  C_1 
REMARK       I    between atoms: N_8  and  C_1 
REMARK    2  A    between atoms: S_14  and  C_2 
REMARK    3  A    between atoms: C_10  and  N_8 
ROOT
ATOM      1  C   UNL d   1     -50.121  15.041  22.963  0.00  0.00     0.136 A 
ATOM      2  N   UNL d   1     -49.554  15.311  22.429  0.00  0.00    -0.232 NA
ATOM      3  S   UNL d   1     -49.843  14.435  23.409  0.00  0.00    -0.060 SA
ATOM      4  C   UNL d   1     -49.062  14.307  23.155  0.00  0.00     0.051 A 
ATOM      5  C   UNL d   1     -48.889  14.851  22.550  0.00  0.00     0.089 A 
ATOM      6  C   UNL d   1     -48.490  13.768  23.397  0.00  0.00     0.027 A 
ATOM      7  C   UNL d   1     -47.738  13.766  23.036  0.00  0.00     0.085 A 
ATOM      8  C   UNL d   1     -48.146  14.849  22.194  0.00  0.00     0.021 A 
ATOM      9  C   UNL d   1     -47.574  14.310  22.435  0.00  0.00     0.021 A 
ENDROOT
BRANCH   7  10
ATOM     10  N   UNL d   1     -47.157  13.217  23.282  0.00  0.00    -0.208 NA
ATOM     11  C   UNL d   1     -46.962  12.591  22.783  0.00  0.00     0.283 C 
ATOM     12  O   UNL d   1     -47.322  12.494  22.056  0.00  0.00    -0.265 OA
BRANCH  11  13
ATOM     13  C   UNL d   1     -46.383  12.045  23.027  0.00  0.00     0.113 A 
ATOM     14  C   UNL d   1     -46.616  11.377  23.450  0.00  0.00     0.147 A 
ATOM     15  F   UNL d   1     -47.426  11.241  23.637  0.00  0.00    -0.204 F 
ATOM     16  C   UNL d   1     -46.031  10.826  23.697  0.00  0.00     0.030 A 
ATOM     17  C   UNL d   1     -45.245  10.973  23.507  0.00  0.00     0.005 A 
ATOM     18  C   UNL d   1     -45.015  11.632  23.089  0.00  0.00     0.030 A 
ATOM     19  C   UNL d   1     -45.600  12.184  22.842  0.00  0.00     0.147 A 
ATOM     20  F   UNL d   1     -45.379  12.865  22.413  0.00  0.00    -0.204 F 
ENDBRANCH  11  13
ENDBRANCH   7  10
BRANCH   1  21
ATOM     21  S   UNL d   1     -50.875  15.355  23.025  0.00  0.00    -0.087 SA
ATOM     22  C   UNL d   1     -51.054  15.850  23.645  0.00  0.00     0.076 C 
ENDBRANCH   1  21
TORSDOF 3
ENDMDL
MODEL 4
REMARK VINA RESULT:      -6.7      2.315      4.592
REMARK  3 active torsions:
REMARK  status: ('A' for Active; 'I' for Inactive)
REMARK    1  A    between atoms: C_4  and  C_1 
REMARK       I    between atoms: N_8  and  C_1 
REMARK    2  A    between atoms: S_14  and  C_2 
REMARK    3  A    between atoms: C_10  and  N_8 
ROOT
ATOM      1  C   UNL d   1     -50.396  14.064  23.098  0.00  0.00     0.136 A 
ATOM      2  N   UNL d   1     -50.330  13.337  23.479  0.00  0.00    -0.232 NA
ATOM      3  S   UNL d   1     -49.727  14.250  22.695  0.00  0.00    -0.060 SA
ATOM      4  C   UNL d   1     -49.205  13.615  22.820  0.00  0.00     0.051 A 
ATOM      5  C   UNL d   1     -49.583  13.055  23.304  0.00  0.00     0.089 A 
ATOM      6  C   UNL d   1     -48.439  13.478  22.555  0.00  0.00     0.027 A 
ATOM      7  C   UNL d   1     -48.040  12.779  22.772  0.00  0.00     0.085 A 
ATOM      8  C   UNL d   1     -49.188  12.363  23.519  0.00  0.00     0.021 A 
ATOM      9  C   UNL d   1     -48.422  12.226  23.254  0.00  0.00     0.021 A 
ENDROOT
BRANCH   7  10
ATOM     10  N   UNL d   1     -47.261  12.639  22.502  0.00  0.00    -0.208 NA
ATOM     11  C   UNL d   1     -46.627  12.874  22.974  0.00  0.00     0.283 C 
ATOM     12  O   UNL d   1     -46.741  13.238  23.696  0.00  0.00    -0.265 OA
BRANCH  11  13
ATOM     13  C   UNL d   1     -45.852  12.735  22.706  0.00  0.00     0.113 A 
ATOM     14  C   UNL d   1     -45.479  13.309  22.246  0.00  0.00     0.147 A 
ATOM     15  F   UNL d   1     -45.869  14.028  22.045  0.00  0.00    -0.204 F 
ATOM     16  C   UNL d   1     -44.695  13.168  21.976  0.00  0.00     0.030 A 
ATOM     17  C   UNL d   1     -44.327  12.462  22.180  0.00  0.00     0.005 A 
ATOM     18  C   UNL d   1     -44.695  11.895  22.634  0.00  0.00     0.030 A 
ATOM     19  C   UNL d   1     -45.479  12.036  22.905  0.00  0.00     0.147 A 
ATOM     20  F   UNL d   1     -45.870  11.464  23.372  0.00  0.00    -0.204 F 
ENDBRANCH  11  13
ENDBRANCH   7  10
BRANCH   1  21
ATOM     21  S   UNL d   1     -51.064  14.537  23.130  0.00  0.00    -0.087 SA
ATOM     22  C   UNL d   1     -51.001  15.306  23.383  0.00  0.00     0.076 C 
ENDBRANCH   1  21
TORSDOF 3
ENDMDL
MODEL 5
REMARK VINA RESULT:      -6.5      9.071      9.841
REMARK  3 active torsions:
REMARK  status: ('A' for Active; 'I' for Inactive)
REMARK    1  A    between atoms: C_4  and  C_1 
REMARK       I    between atoms: N_8  and  C_1 
REMARK    2  A    between atoms: S_14  and  C_2 
REMARK    3  A    between atoms: C_10  and  N_8 
ROOT
ATOM      1  C   UNL d   1     -40.950  15.517  16.926  0.00  0.00     0.136 A 
ATOM      2  N   UNL d   1     -40.723  14.726  16.971  0.00  0.00    -0.232 NA
ATOM      3  S   UNL d   1     -40.750  15.921  17.589  0.00  0.00    -0.060 SA
ATOM      4  C   UNL d   1     -40.378  15.369  18.087  0.00  0.00     0.051 A 
ATOM      5  C   UNL d   1     -40.364  14.633  17.701  0.00  0.00     0.089 A 
ATOM      6  C   UNL d   1     -40.053  15.444  18.838  0.00  0.00     0.027 A 
ATOM      7  C   UNL d   1     -39.709  14.783  19.213  0.00  0.00     0.085 A 
ATOM      8  C   UNL d   1     -40.024  13.980  18.071  0.00  0.00     0.021 A 
ATOM      9  C   UNL d   1     -39.699  14.054  18.822  0.00  0.00     0.021 A 
ENDROOT
BRANCH   7  10
ATOM     10  N   UNL d   1     -39.378  14.859  19.977  0.00  0.00    -0.208 NA
ATOM     11  C   UNL d   1     -39.785  14.545  20.622  0.00  0.00     0.283 C 
ATOM     12  O   UNL d   1     -40.501  14.163  20.532  0.00  0.00    -0.265 OA
BRANCH  11  13
ATOM     13  C   UNL d   1     -39.455  14.620  21.382  0.00  0.00     0.113 A 
ATOM     14  C   UNL d   1     -39.000  14.002  21.684  0.00  0.00     0.147 A 
ATOM     15  F   UNL d   1     -38.864  13.302  21.236  0.00  0.00    -0.204 F 
ATOM     16  C   UNL d   1     -38.667  14.079  22.452  0.00  0.00     0.030 A 
ATOM     17  C   UNL d   1     -38.808  14.768  22.877  0.00  0.00     0.005 A 
ATOM     18  C   UNL d   1     -39.258  15.378  22.580  0.00  0.00     0.030 A 
ATOM     19  C   UNL d   1     -39.591  15.302  21.811  0.00  0.00     0.147 A 
ATOM     20  F   UNL d   1     -40.054  15.918  21.492  0.00  0.00    -0.204 F 
ENDBRANCH  11  13
ENDBRANCH   7  10
BRANCH   1  21
ATOM     21  S   UNL d   1     -41.331  15.845  16.279  0.00  0.00    -0.087 SA
ATOM     22  C   UNL d   1     -42.141  15.919  16.286  0.00  0.00     0.076 C 
ENDBRANCH   1  21
TORSDOF 3
ENDMDL
MODEL 6
REMARK VINA RESULT:      -6.2      8.374      9.331
REMARK  3 active torsions:
REMARK  status: ('A' for Active; 'I' for Inactive)
REMARK    1  A    between atoms: C_4  and  C_1 
REMARK       I    between atoms: N_8  and  C_1 
REMARK    2  A    between atoms: S_14  and  C_2 
REMARK    3  A    between atoms: C_10  and  N_8 
ROOT
ATOM      1  C   UNL d   1     -38.788  13.650  22.155  0.00  0.00     0.136 A 
ATOM      2  N   UNL d   1     -39.597  13.803  22.196  0.00  0.00    -0.232 NA
ATOM      3  S   UNL d   1     -38.479  13.875  21.450  0.00  0.00    -0.060 SA
ATOM      4  C   UNL d   1     -39.115  14.187  21.014  0.00  0.00     0.051 A 
ATOM      5  C   UNL d   1     -39.802  14.140  21.480  0.00  0.00     0.089 A 
ATOM      6  C   UNL d   1     -39.154  14.506  20.258  0.00  0.00     0.027 A 
ATOM      7  C   UNL d   1     -39.881  14.782  19.957  0.00  0.00     0.085 A 
ATOM      8  C   UNL d   1     -40.521  14.413  21.182  0.00  0.00     0.021 A 
ATOM      9  C   UNL d   1     -40.560  14.732  20.426  0.00  0.00     0.021 A 
ENDROOT
BRANCH   7  10
ATOM     10  N   UNL d   1     -39.921  15.106  19.187  0.00  0.00    -0.208 NA
ATOM     11  C   UNL d   1     -40.336  14.699  18.602  0.00  0.00     0.283 C 
ATOM     12  O   UNL d   1     -40.708  13.988  18.757  0.00  0.00    -0.265 OA
BRANCH  11  13
ATOM     13  C   UNL d   1     -40.376  15.022  17.837  0.00  0.00     0.113 A 
ATOM     14  C   UNL d   1     -39.844  14.759  17.264  0.00  0.00     0.147 A 
ATOM     15  F   UNL d   1     -39.266  14.173  17.442  0.00  0.00    -0.204 F 
ATOM     16  C   UNL d   1     -39.884  15.085  16.490  0.00  0.00     0.030 A 
ATOM     17  C   UNL d   1     -40.454  15.656  16.331  0.00  0.00     0.005 A 
ATOM     18  C   UNL d   1     -40.980  15.915  16.896  0.00  0.00     0.030 A 
ATOM     19  C   UNL d   1     -40.939  15.589  17.670  0.00  0.00     0.147 A 
ATOM     20  F   UNL d   1     -41.471  15.845  18.261  0.00  0.00    -0.204 F 
ENDBRANCH  11  13
ENDBRANCH   7  10
BRANCH   1  21
ATOM     21  S   UNL d   1     -38.357  13.311  22.763  0.00  0.00    -0.087 SA
ATOM     22  C   UNL d   1     -38.197  13.743  23.433  0.00  0.00     0.076 C 
ENDBRANCH   1  21
TORSDOF 3
ENDMDL
MODEL 7
REMARK VINA RESULT:      -6.0      8.860      9.874
REMARK  3 active torsions:
REMARK  status: ('A' for Active; 'I' for Inactive)
REMARK    1  A    between atoms: C_4  and  C_1 
REMARK       I    between atoms: N_8  and  C_1 
REMARK    2  A    between atoms: S_14  and  C_2 
REMARK    3  A    between atoms: C_10  and  N_8 
ROOT
ATOM      1  C   UNL d   1     -40.626  15.233  17.994  0.00  0.00     0.136 A 
ATOM      2  N   UNL d   1     -40.853  15.831  18.514  0.00  0.00    -0.232 NA
ATOM      3  S   UNL d   1     -40.280  14.620  18.380  0.00  0.00    -0.060 SA
ATOM      4  C   UNL d   1     -40.283  14.829  19.184  0.00  0.00     0.051 A 
ATOM      5  C   UNL d   1     -40.638  15.577  19.261  0.00  0.00     0.089 A 
ATOM      6  C   UNL d   1     -40.010  14.435  19.851  0.00  0.00     0.027 A 
ATOM      7  C   UNL d   1     -40.087  14.783  20.605  0.00  0.00     0.085 A 
ATOM      8  C   UNL d   1     -40.715  15.922  20.006  0.00  0.00     0.021 A 
ATOM      9  C   UNL d   1     -40.441  15.528  20.673  0.00  0.00     0.021 A 
ENDROOT
BRANCH   7  10
ATOM     10  N   UNL d   1     -39.809  14.383  21.284  0.00  0.00    -0.208 NA
ATOM     11  C   UNL d   1     -39.046  14.537  21.555  0.00  0.00     0.283 C 
ATOM     12  O   UNL d   1     -38.557  15.071  21.177  0.00  0.00    -0.265 OA
BRANCH  11  13
ATOM     13  C   UNL d   1     -38.770  14.138  22.231  0.00  0.00     0.113 A 
ATOM     14  C   UNL d   1     -38.417  13.398  22.142  0.00  0.00     0.147 A 
ATOM     15  F   UNL d   1     -38.334  13.043  21.382  0.00  0.00    -0.204 F 
ATOM     16  C   UNL d   1     -38.137  12.995  22.825  0.00  0.00     0.030 A 
ATOM     17  C   UNL d   1     -38.225  13.354  23.559  0.00  0.00     0.005 A 
ATOM     18  C   UNL d   1     -38.573  14.085  23.647  0.00  0.00     0.030 A 
ATOM     19  C   UNL d   1     -38.853  14.488  22.964  0.00  0.00     0.147 A 
ATOM     20  F   UNL d   1     -39.212  15.238  23.038  0.00  0.00    -0.204 F 
ENDBRANCH  11  13
ENDBRANCH   7  10
BRANCH   1  21
ATOM     21  S   UNL d   1     -40.741  15.266  17.184  0.00  0.00    -0.087 SA
ATOM     22  C   UNL d   1     -40.104  15.383  16.692  0.00  0.00     0.076 C 
ENDBRANCH   1  21
TORSDOF 3
ENDMDL
MODEL 8
REMARK VINA RESULT:      -5.6      8.770     10.205
REMARK  3 active torsions:
REMARK  status: ('A' for Active; 'I' for Inactive)
REMARK    1  A    between atoms: C_4  and  C_1 
REMARK       I    between atoms: N_8  and  C_1 
REMARK    2  A    between atoms: S_14  and  C_2 
REMARK    3  A    between atoms: C_10  and  N_8 
ROOT
ATOM      1  C   UNL d   1     -38.171  13.836  15.854  0.00  0.00     0.136 A 
ATOM      2  N   UNL d   1     -38.150  13.177  16.349  0.00  0.00    -0.232 NA
ATOM      3  S   UNL d   1     -38.445  14.485  16.236  0.00  0.00    -0.060 SA
ATOM      4  C   UNL d   1     -38.609  14.239  17.012  0.00  0.00     0.051 A 
ATOM      5  C   UNL d   1     -38.425  13.430  17.076  0.00  0.00     0.089 A 
ATOM      6  C   UNL d   1     -38.901  14.645  17.665  0.00  0.00     0.027 A 
ATOM      7  C   UNL d   1     -39.012  14.249  18.390  0.00  0.00     0.085 A 
ATOM      8  C   UNL d   1     -38.536  13.038  17.793  0.00  0.00     0.021 A 
ATOM      9  C   UNL d   1     -38.827  13.445  18.445  0.00  0.00     0.021 A 
ENDROOT
BRANCH   7  10
ATOM     10  N   UNL d   1     -39.309  14.662  19.053  0.00  0.00    -0.208 NA
ATOM     11  C   UNL d   1     -40.069  14.491  19.324  0.00  0.00     0.283 C 
ATOM     12  O   UNL d   1     -40.538  13.930  18.960  0.00  0.00    -0.265 OA
BRANCH  11  13
ATOM     13  C   UNL d   1     -40.364  14.903  19.984  0.00  0.00     0.113 A 
ATOM     14  C   UNL d   1     -40.914  15.506  19.866  0.00  0.00     0.147 A 
ATOM     15  F   UNL d   1     -41.180  15.709  19.093  0.00  0.00    -0.204 F 
ATOM     16  C   UNL d   1     -41.213  15.921  20.534  0.00  0.00     0.030 A 
ATOM     17  C   UNL d   1     -40.945  15.712  21.282  0.00  0.00     0.005 A 
ATOM     18  C   UNL d   1     -40.401  15.117  21.398  0.00  0.00     0.030 A 
ATOM     19  C   UNL d   1     -40.103  14.701  20.731  0.00  0.00     0.147 A 
ATOM     20  F   UNL d   1     -39.545  14.088  20.834  0.00  0.00    -0.204 F 
ENDBRANCH  11  13
ENDBRANCH   7  10
BRANCH   1  21
ATOM     21  S   UNL d   1     -37.940  13.822  15.068  0.00  0.00    -0.087 SA
ATOM     22  C   UNL d   1     -38.466  14.044  14.490  0.00  0.00     0.076 C 
ENDBRANCH   1  21
TORSDOF 3
ENDMDL
MODEL 9
REMARK VINA RESULT:      -5.4      9.100     10.606
REMARK  3 active torsions:
REMARK  status: ('A' for Active; 'I' for Inactive)
REMARK    1  A    between atoms: C_4  and  C_1 
REMARK       I    between atoms: N_8  and  C_1 
REMARK    2  A    between atoms: S_14  and  C_2 
REMARK    3  A    between atoms: C_10  and  N_8 
ROOT
ATOM      1  C   UNL d   1     -39.362  14.340  21.551  0.00  0.00     0.136 A 
ATOM      2  N   UNL d   1     -40.052  14.524  21.140  0.00  0.00    -0.232 NA
ATOM      3  S   UNL d   1     -38.741  14.228  21.055  0.00  0.00    -0.060 SA
ATOM      4  C   UNL d   1     -39.041  14.343  20.289  0.00  0.00     0.051 A 
ATOM      5  C   UNL d   1     -39.850  14.526  20.347  0.00  0.00     0.089 A 
ATOM      6  C   UNL d   1     -38.682  14.306  19.551  0.00  0.00     0.027 A 
ATOM      7  C   UNL d   1     -39.127  14.451  18.860  0.00  0.00     0.085 A 
ATOM      8  C   UNL d   1     -40.291  14.669  19.665  0.00  0.00     0.021 A 
ATOM      9  C   UNL d   1     -39.931  14.632  18.926  0.00  0.00     0.021 A 
ENDROOT
BRANCH   7  10
ATOM     10  N   UNL d   1     -38.762  14.413  18.109  0.00  0.00    -0.208 NA
ATOM     11  C   UNL d   1     -39.103  13.946  17.522  0.00  0.00     0.283 C 
ATOM     12  O   UNL d   1     -39.787  13.521  17.655  0.00  0.00    -0.265 OA
BRANCH  11  13
ATOM     13  C   UNL d   1     -38.739  13.909  16.774  0.00  0.00     0.113 A 
ATOM     14  C   UNL d   1     -38.825  14.543  16.255  0.00  0.00     0.147 A 
ATOM     15  F   UNL d   1     -39.273  15.224  16.470  0.00  0.00    -0.204 F 
ATOM     16  C   UNL d   1     -38.458  14.505  15.500  0.00  0.00     0.030 A 
ATOM     17  C   UNL d   1     -38.024  13.834  15.305  0.00  0.00     0.005 A 
ATOM     18  C   UNL d   1     -37.940  13.208  15.817  0.00  0.00     0.030 A 
ATOM     19  C   UNL d   1     -38.307  13.246  16.573  0.00  0.00     0.147 A 
ATOM     20  F   UNL d   1     -38.229  12.611  17.109  0.00  0.00    -0.204 F 
ENDBRANCH  11  13
ENDBRANCH   7  10
BRANCH   1  21
ATOM     21  S   UNL d   1     -39.320  14.280  22.367  0.00  0.00    -0.087 SA
ATOM     22  C   UNL d   1     -39.135  13.566  22.709  0.00  0.00     0.076 C 
ENDBRANCH   1  21
TORSDOF 3
ENDMDL
