MODEL 1
REMARK VINA RESULT:      14.6      0.000      0.000
REMARK  3 active torsions:
REMARK  status: ('A' for Active; 'I' for Inactive)
REMARK       I    between atoms: C_2  and  N_1 
REMARK    1  A    between atoms: C_4  and  N_1 
REMARK    2  A    between atoms: C_5  and  N_1 
REMARK    3  A    between atoms: C_6  and  C_2 
ROOT
ATOM      1  N   UNL d   1     -58.469 -98.767 -44.307  0.00  0.00    -0.274 N 
ATOM      2  C   UNL d   1     -58.792 -98.766 -43.531  0.00  0.00     0.276 C 
ATOM      3  O   UNL d   1     -58.295 -98.770 -42.888  0.00  0.00    -0.266 OA
ENDROOT
BRANCH   1   4
ATOM      4  C   UNL d   1     -57.653 -98.772 -44.417  0.00  0.00     0.067 A 
ATOM      5  C   UNL d   1     -57.140 -98.778 -43.771  0.00  0.00     0.018 A 
ATOM      6  C   UNL d   1     -56.323 -98.783 -43.916  0.00  0.00     0.002 A 
ATOM      7  C   UNL d   1     -56.029 -98.783 -44.686  0.00  0.00     0.000 A 
ATOM      8  C   UNL d   1     -56.544 -98.777 -45.316  0.00  0.00     0.002 A 
ATOM      9  C   UNL d   1     -57.362 -98.772 -45.188  0.00  0.00     0.018 A 
ENDBRANCH   1   4
BRANCH   1  10
ATOM     10  C   UNL d   1     -58.983 -98.763 -44.944  0.00  0.00     0.067 C 
ATOM     11  C   UNL d   1     -58.659 -98.765 -45.725  0.00  0.00     0.019 C 
ATOM     12  C   UNL d   1     -59.801 -98.757 -44.857  0.00  0.00     0.019 C 
ENDBRANCH   1  10
BRANCH   2  13
ATOM     13  C   UNL d   1     -59.607 -98.761 -43.438  0.00  0.00     0.129 C 
ATOM     14 CL   UNL d   1     -59.917 -98.804 -42.671  0.00  0.00    -0.076 Cl
ENDBRANCH   2  13
TORSDOF 3
ENDMDL
MODEL 2
REMARK VINA RESULT:      16.3      2.410      3.419
REMARK  3 active torsions:
REMARK  status: ('A' for Active; 'I' for Inactive)
REMARK       I    between atoms: C_2  and  N_1 
REMARK    1  A    between atoms: C_4  and  N_1 
REMARK    2  A    between atoms: C_5  and  N_1 
REMARK    3  A    between atoms: C_6  and  C_2 
ROOT
ATOM      1  N   UNL d   1     -55.581 -99.787 -44.387  0.00  0.00    -0.274 N 
ATOM      2  C   UNL d   1     -56.409 -99.647 -44.383  0.00  0.00     0.276 C 
ATOM      3  O   UNL d   1     -56.923-100.275 -44.323  0.00  0.00    -0.266 OA
ENDROOT
BRANCH   1   4
ATOM      4  C   UNL d   1     -55.289-100.555 -44.332  0.00  0.00     0.067 A 
ATOM      5  C   UNL d   1     -55.054-100.867 -43.605  0.00  0.00     0.018 A 
ATOM      6  C   UNL d   1     -54.765-101.644 -43.585  0.00  0.00     0.002 A 
ATOM      7  C   UNL d   1     -54.713-102.096 -44.272  0.00  0.00     0.000 A 
ATOM      8  C   UNL d   1     -54.947-101.779 -44.983  0.00  0.00     0.002 A 
ATOM      9  C   UNL d   1     -55.238-101.005 -45.022  0.00  0.00     0.018 A 
ENDBRANCH   1   4
BRANCH   1  10
ATOM     10  C   UNL d   1     -55.077 -99.144 -44.448  0.00  0.00     0.067 C 
ATOM     11  C   UNL d   1     -54.744 -98.825 -43.740  0.00  0.00     0.019 C 
ATOM     12  C   UNL d   1     -54.882 -98.797 -45.167  0.00  0.00     0.019 C 
ENDBRANCH   1  10
BRANCH   2  13
ATOM     13  C   UNL d   1     -56.686 -98.877 -44.439  0.00  0.00     0.129 C 
ATOM     14 CL   UNL d   1     -57.481 -98.755 -44.634  0.00  0.00    -0.076 Cl
ENDBRANCH   2  13
TORSDOF 3
ENDMDL
