MODEL 1
REMARK VINA RESULT:      -8.7      0.000      0.000
REMARK  3 active torsions:
REMARK  status: ('A' for Active; 'I' for Inactive)
REMARK    1  A    between atoms: C_7  and  C_1 
REMARK    2  A    between atoms: C_6  and  C_3 
REMARK    3  A    between atoms: O_15  and  C_7 
ROOT
ATOM      1  C   UNL d   1      52.907  30.615  53.240  0.00  0.00     0.167 A 
ATOM      2  C   UNL d   1      52.869  31.325  53.664  0.00  0.00     0.047 A 
ATOM      3  C   UNL d   1      52.887  31.946  53.120  0.00  0.00     0.105 A 
ATOM      4  N   UNL d   1      52.936  31.620  52.359  0.00  0.00    -0.148 NA
ATOM      5  N   UNL d   1      52.948  30.800  52.442  0.00  0.00    -0.143 NA
ENDROOT
BRANCH   3   6
ATOM      6  C   UNL d   1      52.860  32.754  53.303  0.00  0.00     0.030 A 
ATOM      7  C   UNL d   1      53.560  33.163  53.461  0.00  0.00     0.060 A 
ATOM      8  C   UNL d   1      53.539  33.964  53.642  0.00  0.00     0.023 A 
ATOM      9 CL   UNL d   1      54.282  32.762  53.436  0.00  0.00    -0.082 Cl
ATOM     10  C   UNL d   1      52.807  34.365  53.666  0.00  0.00     0.059 A 
ATOM     11  C   UNL d   1      52.110  33.947  53.506  0.00  0.00     0.011 A 
ATOM     12 CL   UNL d   1      52.786  35.166  53.847  0.00  0.00    -0.082 Cl
ATOM     13  C   UNL d   1      52.138  33.144  53.325  0.00  0.00     0.003 A 
ENDBRANCH   3   6
BRANCH   1  14
ATOM     14  C   UNL d   1      52.905  29.858  53.567  0.00  0.00     0.316 C 
ATOM     15  O   UNL d   1      52.377  29.293  53.279  0.00  0.00    -0.257 OA
BRANCH  14  16
ATOM     16  O   UNL d   1      53.427  29.666  54.177  0.00  0.00    -0.294 OA
ATOM     17  C   UNL d   1      53.389  28.931  54.542  0.00  0.00     0.185 C 
ENDBRANCH  14  16
ENDBRANCH   1  14
TORSDOF 3
ENDMDL
MODEL 2
REMARK VINA RESULT:      -8.3      2.715      3.439
REMARK  3 active torsions:
REMARK  status: ('A' for Active; 'I' for Inactive)
REMARK    1  A    between atoms: C_7  and  C_1 
REMARK    2  A    between atoms: C_6  and  C_3 
REMARK    3  A    between atoms: O_15  and  C_7 
ROOT
ATOM      1  C   UNL d   1      51.540  33.689  52.936  0.00  0.00     0.167 A 
ATOM      2  C   UNL d   1      52.217  34.015  53.284  0.00  0.00     0.047 A 
ATOM      3  C   UNL d   1      52.620  33.409  53.672  0.00  0.00     0.105 A 
ATOM      4  N   UNL d   1      52.193  32.706  53.565  0.00  0.00    -0.148 NA
ATOM      5  N   UNL d   1      51.529  32.888  53.111  0.00  0.00    -0.143 NA
ENDROOT
BRANCH   3   6
ATOM      6  C   UNL d   1      53.328  33.487  54.095  0.00  0.00     0.030 A 
ATOM      7  C   UNL d   1      53.995  33.058  53.864  0.00  0.00     0.060 A 
ATOM      8  C   UNL d   1      54.699  33.132  54.281  0.00  0.00     0.023 A 
ATOM      9 CL   UNL d   1      53.949  32.553  53.212  0.00  0.00    -0.082 Cl
ATOM     10  C   UNL d   1      54.741  33.643  54.939  0.00  0.00     0.059 A 
ATOM     11  C   UNL d   1      54.067  34.070  55.163  0.00  0.00     0.011 A 
ATOM     12 CL   UNL d   1      55.445  33.717  55.355  0.00  0.00    -0.082 Cl
ATOM     13  C   UNL d   1      53.364  33.992  54.742  0.00  0.00     0.003 A 
ENDBRANCH   3   6
BRANCH   1  14
ATOM     14  C   UNL d   1      50.980  34.101  52.494  0.00  0.00     0.316 C 
ATOM     15  O   UNL d   1      51.137  34.283  51.705  0.00  0.00    -0.257 OA
BRANCH  14  16
ATOM     16  O   UNL d   1      50.264  34.329  52.838  0.00  0.00    -0.294 OA
ATOM     17  C   UNL d   1      49.675  34.677  52.382  0.00  0.00     0.185 C 
ENDBRANCH  14  16
ENDBRANCH   1  14
TORSDOF 3
ENDMDL
MODEL 3
REMARK VINA RESULT:      -8.3      2.383      3.888
REMARK  3 active torsions:
REMARK  status: ('A' for Active; 'I' for Inactive)
REMARK    1  A    between atoms: C_7  and  C_1 
REMARK    2  A    between atoms: C_6  and  C_3 
REMARK    3  A    between atoms: O_15  and  C_7 
ROOT
ATOM      1  C   UNL d   1      53.835  33.622  54.214  0.00  0.00     0.167 A 
ATOM      2  C   UNL d   1      53.374  32.934  54.220  0.00  0.00     0.047 A 
ATOM      3  C   UNL d   1      53.753  32.371  53.752  0.00  0.00     0.105 A 
ATOM      4  N   UNL d   1      54.450  32.709  53.454  0.00  0.00    -0.148 NA
ATOM      5  N   UNL d   1      54.492  33.480  53.744  0.00  0.00    -0.143 NA
ENDROOT
BRANCH   3   6
ATOM      6  C   UNL d   1      53.485  31.600  53.603  0.00  0.00     0.030 A 
ATOM      7  C   UNL d   1      52.911  31.469  53.025  0.00  0.00     0.060 A 
ATOM      8  C   UNL d   1      52.642  30.707  52.874  0.00  0.00     0.023 A 
ATOM      9 CL   UNL d   1      52.608  32.109  52.598  0.00  0.00    -0.082 Cl
ATOM     10  C   UNL d   1      52.951  30.065  53.307  0.00  0.00     0.059 A 
ATOM     11  C   UNL d   1      53.527  30.206  53.886  0.00  0.00     0.011 A 
ATOM     12 CL   UNL d   1      52.682  29.303  53.156  0.00  0.00    -0.082 Cl
ATOM     13  C   UNL d   1      53.793  30.971  54.033  0.00  0.00     0.003 A 
ENDBRANCH   3   6
BRANCH   1  14
ATOM     14  C   UNL d   1      53.661  34.323  54.611  0.00  0.00     0.316 C 
ATOM     15  O   UNL d   1      53.987  34.460  55.356  0.00  0.00    -0.257 OA
BRANCH  14  16
ATOM     16  O   UNL d   1      53.163  34.884  54.266  0.00  0.00    -0.294 OA
ATOM     17  C   UNL d   1      52.988  35.584  54.658  0.00  0.00     0.185 C 
ENDBRANCH  14  16
ENDBRANCH   1  14
TORSDOF 3
ENDMDL
MODEL 4
REMARK VINA RESULT:      -8.2      2.279      2.873
REMARK  3 active torsions:
REMARK  status: ('A' for Active; 'I' for Inactive)
REMARK    1  A    between atoms: C_7  and  C_1 
REMARK    2  A    between atoms: C_6  and  C_3 
REMARK    3  A    between atoms: O_15  and  C_7 
ROOT
ATOM      1  C   UNL d   1      53.744  33.004  54.200  0.00  0.00     0.167 A 
ATOM      2  C   UNL d   1      53.044  33.445  54.163  0.00  0.00     0.047 A 
ATOM      3  C   UNL d   1      52.654  33.243  53.465  0.00  0.00     0.105 A 
ATOM      4  N   UNL d   1      53.112  32.676  53.068  0.00  0.00    -0.148 NA
ATOM      5  N   UNL d   1      53.781  32.535  53.528  0.00  0.00    -0.143 NA
ENDROOT
BRANCH   3   6
ATOM      6  C   UNL d   1      51.930  33.552  53.204  0.00  0.00     0.030 A 
ATOM      7  C   UNL d   1      51.918  34.236  52.741  0.00  0.00     0.060 A 
ATOM      8  C   UNL d   1      51.204  34.546  52.480  0.00  0.00     0.023 A 
ATOM      9 CL   UNL d   1      52.630  34.605  52.541  0.00  0.00    -0.082 Cl
ATOM     10  C   UNL d   1      50.488  34.169  52.684  0.00  0.00     0.059 A 
ATOM     11  C   UNL d   1      50.510  33.484  53.150  0.00  0.00     0.011 A 
ATOM     12 CL   UNL d   1      49.773  34.480  52.424  0.00  0.00    -0.082 Cl
ATOM     13  C   UNL d   1      51.229  33.177  53.408  0.00  0.00     0.003 A 
ENDBRANCH   3   6
BRANCH   1  14
ATOM     14  C   UNL d   1      54.301  33.033  54.807  0.00  0.00     0.316 C 
ATOM     15  O   UNL d   1      54.179  32.592  55.493  0.00  0.00    -0.257 OA
BRANCH  14  16
ATOM     16  O   UNL d   1      54.977  33.501  54.728  0.00  0.00    -0.294 OA
ATOM     17  C   UNL d   1      55.366  33.788  55.393  0.00  0.00     0.185 C 
ENDBRANCH  14  16
ENDBRANCH   1  14
TORSDOF 3
ENDMDL
MODEL 5
REMARK VINA RESULT:      -8.1      2.213      3.727
REMARK  3 active torsions:
REMARK  status: ('A' for Active; 'I' for Inactive)
REMARK    1  A    between atoms: C_7  and  C_1 
REMARK    2  A    between atoms: C_6  and  C_3 
REMARK    3  A    between atoms: O_15  and  C_7 
ROOT
ATOM      1  C   UNL d   1      51.979  33.473  52.876  0.00  0.00     0.167 A 
ATOM      2  C   UNL d   1      51.981  32.730  53.242  0.00  0.00     0.047 A 
ATOM      3  C   UNL d   1      52.659  32.329  52.997  0.00  0.00     0.105 A 
ATOM      4  N   UNL d   1      53.078  32.823  52.479  0.00  0.00    -0.148 NA
ATOM      5  N   UNL d   1      52.653  33.526  52.411  0.00  0.00    -0.143 NA
ENDROOT
BRANCH   3   6
ATOM      6  C   UNL d   1      52.883  31.565  53.227  0.00  0.00     0.030 A 
ATOM      7  C   UNL d   1      53.477  31.463  53.792  0.00  0.00     0.060 A 
ATOM      8  C   UNL d   1      53.703  30.708  54.024  0.00  0.00     0.023 A 
ATOM      9 CL   UNL d   1      53.844  32.126  54.122  0.00  0.00    -0.082 Cl
ATOM     10  C   UNL d   1      53.330  30.042  53.688  0.00  0.00     0.059 A 
ATOM     11  C   UNL d   1      52.734  30.153  53.122  0.00  0.00     0.011 A 
ATOM     12 CL   UNL d   1      53.555  29.286  53.920  0.00  0.00    -0.082 Cl
ATOM     13  C   UNL d   1      52.512  30.912  52.893  0.00  0.00     0.003 A 
ENDBRANCH   3   6
BRANCH   1  14
ATOM     14  C   UNL d   1      51.402  34.054  52.967  0.00  0.00     0.316 C 
ATOM     15  O   UNL d   1      51.608  34.786  53.285  0.00  0.00    -0.257 OA
BRANCH  14  16
ATOM     16  O   UNL d   1      50.622  33.904  52.741  0.00  0.00    -0.294 OA
ATOM     17  C   UNL d   1      50.058  34.502  52.767  0.00  0.00     0.185 C 
ENDBRANCH  14  16
ENDBRANCH   1  14
TORSDOF 3
ENDMDL
