MODEL 1
REMARK VINA RESULT:      -2.5      0.000      0.000
REMARK  1 active torsions:
REMARK  status: ('A' for Active; 'I' for Inactive)
REMARK       I    between atoms: N_2  and  C_1 
REMARK    1  A    between atoms: C_4  and  N_2 
ROOT
ATOM      1  C   UNL d   1      32.854  22.352 -20.968  0.00  0.00     0.101 A 
ATOM      2  C   UNL d   1      33.052  22.568 -20.196  0.00  0.00     0.031 A 
ATOM      3  C   UNL d   1      32.707  23.241 -19.854  0.00  0.00     0.059 A 
ATOM      4 CL   UNL d   1      32.906  23.456 -19.082  0.00  0.00    -0.082 Cl
ATOM      5  C   UNL d   1      31.969  23.478 -21.054  0.00  0.00     0.002 A 
ATOM      6  C   UNL d   1      32.310  22.811 -21.396  0.00  0.00     0.020 A 
ATOM      7  C   UNL d   1      32.168  23.693 -20.283  0.00  0.00     0.011 A 
ENDROOT
BRANCH   1   8
ATOM      8  N   UNL d   1      33.193  21.685 -21.314  0.00  0.00    -0.056 NA
ATOM      9  C   UNL d   1      32.785  20.970 -21.324  0.00  0.00     0.787 C 
ATOM     10  N   UNL d   1      33.122  20.303 -21.669  0.00  0.00     0.064 N 
ATOM     11  N   UNL d   1      32.035  20.927 -20.985  0.00  0.00     0.064 N 
ENDBRANCH   1   8
TORSDOF 1
ENDMDL
MODEL 2
REMARK VINA RESULT:      -2.3      7.056      7.377
REMARK  1 active torsions:
REMARK  status: ('A' for Active; 'I' for Inactive)
REMARK       I    between atoms: N_2  and  C_1 
REMARK    1  A    between atoms: C_4  and  N_2 
ROOT
ATOM      1  C   UNL d   1      29.987  16.349 -24.334  0.00  0.00     0.101 A 
ATOM      2  C   UNL d   1      29.327  16.222 -23.856  0.00  0.00     0.031 A 
ATOM      3  C   UNL d   1      28.698  16.765 -23.867  0.00  0.00     0.059 A 
ATOM      4 CL   UNL d   1      28.038  16.638 -23.389  0.00  0.00    -0.082 Cl
ATOM      5  C   UNL d   1      29.393  17.555 -24.834  0.00  0.00     0.002 A 
ATOM      6  C   UNL d   1      30.018  17.019 -24.824  0.00  0.00     0.020 A 
ATOM      7  C   UNL d   1      28.733  17.428 -24.355  0.00  0.00     0.011 A 
ENDROOT
BRANCH   1   8
ATOM      8  N   UNL d   1      30.615  15.814 -24.328  0.00  0.00    -0.056 NA
ATOM      9  C   UNL d   1      31.303  15.986 -23.910  0.00  0.00     0.787 C 
ATOM     10  N   UNL d   1      31.931  15.454 -23.902  0.00  0.00     0.064 N 
ATOM     11  N   UNL d   1      31.359  16.699 -23.498  0.00  0.00     0.064 N 
ENDBRANCH   1   8
TORSDOF 1
ENDMDL
MODEL 3
REMARK VINA RESULT:      -2.2      2.091      2.656
REMARK  1 active torsions:
REMARK  status: ('A' for Active; 'I' for Inactive)
REMARK       I    between atoms: N_2  and  C_1 
REMARK    1  A    between atoms: C_4  and  N_2 
ROOT
ATOM      1  C   UNL d   1      32.910  22.756 -19.782  0.00  0.00     0.101 A 
ATOM      2  C   UNL d   1      32.679  22.006 -20.039  0.00  0.00     0.031 A 
ATOM      3  C   UNL d   1      32.348  21.913 -20.795  0.00  0.00     0.059 A 
ATOM      4 CL   UNL d   1      32.117  21.164 -21.052  0.00  0.00    -0.082 Cl
ATOM      5  C   UNL d   1      32.480  23.316 -21.031  0.00  0.00     0.002 A 
ATOM      6  C   UNL d   1      32.809  23.412 -20.282  0.00  0.00     0.020 A 
ATOM      7  C   UNL d   1      32.249  22.566 -21.287  0.00  0.00     0.011 A 
ENDROOT
BRANCH   1   8
ATOM      8  N   UNL d   1      33.239  22.856 -19.033  0.00  0.00    -0.056 NA
ATOM      9  C   UNL d   1      32.861  23.324 -18.472  0.00  0.00     0.787 C 
ATOM     10  N   UNL d   1      33.188  23.425 -17.723  0.00  0.00     0.064 N 
ATOM     11  N   UNL d   1      32.149  23.693 -18.666  0.00  0.00     0.064 N 
ENDBRANCH   1   8
TORSDOF 1
ENDMDL
MODEL 4
REMARK VINA RESULT:      -2.2      7.177      7.548
REMARK  1 active torsions:
REMARK  status: ('A' for Active; 'I' for Inactive)
REMARK       I    between atoms: N_2  and  C_1 
REMARK    1  A    between atoms: C_4  and  N_2 
ROOT
ATOM      1  C   UNL d   1      29.803  16.160 -24.280  0.00  0.00     0.101 A 
ATOM      2  C   UNL d   1      29.589  16.910 -24.549  0.00  0.00     0.031 A 
ATOM      3  C   UNL d   1      28.892  17.265 -24.270  0.00  0.00     0.059 A 
ATOM      4 CL   UNL d   1      28.678  18.015 -24.539  0.00  0.00    -0.082 Cl
ATOM      5  C   UNL d   1      28.629  16.120 -23.457  0.00  0.00     0.002 A 
ATOM      6  C   UNL d   1      29.319  15.765 -23.732  0.00  0.00     0.020 A 
ATOM      7  C   UNL d   1      28.415  16.870 -23.726  0.00  0.00     0.011 A 
ENDROOT
BRANCH   1   8
ATOM      8  N   UNL d   1      30.493  15.801 -24.553  0.00  0.00    -0.056 NA
ATOM      9  C   UNL d   1      31.176  15.810 -24.093  0.00  0.00     0.787 C 
ATOM     10  N   UNL d   1      31.866  15.453 -24.363  0.00  0.00     0.064 N 
ATOM     11  N   UNL d   1      31.163  16.182 -23.357  0.00  0.00     0.064 N 
ENDBRANCH   1   8
TORSDOF 1
ENDMDL
MODEL 5
REMARK VINA RESULT:      -2.1      6.634      7.301
REMARK  1 active torsions:
REMARK  status: ('A' for Active; 'I' for Inactive)
REMARK       I    between atoms: N_2  and  C_1 
REMARK    1  A    between atoms: C_4  and  N_2 
ROOT
ATOM      1  C   UNL d   1      30.630  16.113 -23.901  0.00  0.00     0.101 A 
ATOM      2  C   UNL d   1      30.949  16.873 -23.869  0.00  0.00     0.031 A 
ATOM      3  C   UNL d   1      31.757  16.975 -23.701  0.00  0.00     0.059 A 
ATOM      4 CL   UNL d   1      32.076  17.734 -23.669  0.00  0.00    -0.082 Cl
ATOM      5  C   UNL d   1      31.917  15.559 -23.600  0.00  0.00     0.002 A 
ATOM      6  C   UNL d   1      31.117  15.455 -23.766  0.00  0.00     0.020 A 
ATOM      7  C   UNL d   1      32.237  16.318 -23.568  0.00  0.00     0.011 A 
ENDROOT
BRANCH   1   8
ATOM      8  N   UNL d   1      29.829  16.005 -24.067  0.00  0.00    -0.056 NA
ATOM      9  C   UNL d   1      29.311  15.765 -23.474  0.00  0.00     0.787 C 
ATOM     10  N   UNL d   1      28.511  15.657 -23.637  0.00  0.00     0.064 N 
ATOM     11  N   UNL d   1      29.600  15.633 -22.713  0.00  0.00     0.064 N 
ENDBRANCH   1   8
TORSDOF 1
ENDMDL
MODEL 6
REMARK VINA RESULT:      -2.1      4.536      5.231
REMARK  1 active torsions:
REMARK  status: ('A' for Active; 'I' for Inactive)
REMARK       I    between atoms: N_2  and  C_1 
REMARK    1  A    between atoms: C_4  and  N_2 
ROOT
ATOM      1  C   UNL d   1      32.733  17.780 -23.510  0.00  0.00     0.101 A 
ATOM      2  C   UNL d   1      32.748  18.289 -22.861  0.00  0.00     0.031 A 
ATOM      3  C   UNL d   1      33.003  19.074 -22.957  0.00  0.00     0.059 A 
ATOM      4 CL   UNL d   1      33.018  19.582 -22.307  0.00  0.00    -0.082 Cl
ATOM      5  C   UNL d   1      33.225  18.835 -24.348  0.00  0.00     0.002 A 
ATOM      6  C   UNL d   1      32.973  18.056 -24.256  0.00  0.00     0.020 A 
ATOM      7  C   UNL d   1      33.240  19.344 -23.698  0.00  0.00     0.011 A 
ENDROOT
BRANCH   1   8
ATOM      8  N   UNL d   1      32.481  17.000 -23.422  0.00  0.00    -0.056 NA
ATOM      9  C   UNL d   1      31.728  16.776 -23.668  0.00  0.00     0.787 C 
ATOM     10  N   UNL d   1      31.474  15.998 -23.581  0.00  0.00     0.064 N 
ATOM     11  N   UNL d   1      31.228  17.340 -24.005  0.00  0.00     0.064 N 
ENDBRANCH   1   8
TORSDOF 1
ENDMDL
MODEL 7
REMARK VINA RESULT:      -1.2      6.910      7.522
REMARK  1 active torsions:
REMARK  status: ('A' for Active; 'I' for Inactive)
REMARK       I    between atoms: N_2  and  C_1 
REMARK    1  A    between atoms: C_4  and  N_2 
ROOT
ATOM      1  C   UNL d   1      29.631  16.300 -24.284  0.00  0.00     0.101 A 
ATOM      2  C   UNL d   1      30.346  16.173 -23.893  0.00  0.00     0.031 A 
ATOM      3  C   UNL d   1      30.975  16.706 -23.999  0.00  0.00     0.059 A 
ATOM      4 CL   UNL d   1      31.690  16.579 -23.608  0.00  0.00    -0.082 Cl
ATOM      5  C   UNL d   1      30.169  17.486 -24.884  0.00  0.00     0.002 A 
ATOM      6  C   UNL d   1      29.544  16.960 -24.781  0.00  0.00     0.020 A 
ATOM      7  C   UNL d   1      30.884  17.359 -24.493  0.00  0.00     0.011 A 
ENDROOT
BRANCH   1   8
ATOM      8  N   UNL d   1      29.003  15.775 -24.183  0.00  0.00    -0.056 NA
ATOM      9  C   UNL d   1      28.368  15.975 -23.699  0.00  0.00     0.787 C 
ATOM     10  N   UNL d   1      27.740  15.452 -23.597  0.00  0.00     0.064 N 
ATOM     11  N   UNL d   1      28.366  16.705 -23.316  0.00  0.00     0.064 N 
ENDBRANCH   1   8
TORSDOF 1
ENDMDL
