MODEL 1
REMARK VINA RESULT:      -4.9      0.000      0.000
REMARK  4 active torsions:
REMARK  status: ('A' for Active; 'I' for Inactive)
REMARK    1  A    between atoms: S_7  and  C_1 
REMARK       I    between atoms: N_5  and  C_9 
REMARK    2  A    between atoms: C_10  and  S_7 
REMARK    3  A    between atoms: C_15  and  N_8 
REMARK    4  A    between atoms: C_9  and  C_10 
ROOT
ATOM      1  N   UNL d   1      57.614   0.000  30.662  0.00  0.00    -0.269 N 
ATOM      2  N   UNL d   1      56.734   0.103  32.060  0.00  0.00    -0.301 N 
ATOM      3  C   UNL d   1      58.054  -0.047  29.957  0.00  0.00     0.271 C 
ATOM      4  C   UNL d   1      57.694  -0.580  31.247  0.00  0.00     0.102 A 
ATOM      5  C   UNL d   1      57.095   0.633  30.772  0.00  0.00     0.102 A 
ATOM      6  C   UNL d   1      56.657   0.682  31.471  0.00  0.00     0.100 A 
ATOM      7  C   UNL d   1      57.258  -0.530  31.940  0.00  0.00     0.100 A 
ATOM      8  O   UNL d   1      57.971   0.536  29.375  0.00  0.00    -0.266 OA
ENDROOT
BRANCH   3   9
ATOM      9  C   UNL d   1      58.573  -0.683  29.850  0.00  0.00     0.097 C 
BRANCH   9  10
ATOM     10  S   UNL d   1      58.986  -0.750  29.138  0.00  0.00    -0.080 SA
BRANCH  10  11
ATOM     11  C   UNL d   1      59.579  -1.329  29.062  0.00  0.00     0.049 A 
ATOM     12  C   UNL d   1      60.383  -1.218  29.187  0.00  0.00     0.087 A 
ATOM     13  N   UNL d   1      60.768  -1.935  29.051  0.00  0.00    -0.245 NA
ATOM     14  C   UNL d   1      60.738  -0.508  29.409  0.00  0.00     0.021 C 
ATOM     15  C   UNL d   1      60.184  -2.490  28.841  0.00  0.00     0.082 A 
ATOM     16  C   UNL d   1      59.453  -2.111  28.849  0.00  0.00     0.025 A 
ATOM     17  C   UNL d   1      60.236  -3.291  28.644  0.00  0.00     0.019 A 
ATOM     18  C   UNL d   1      58.775  -2.533  28.661  0.00  0.00     0.002 A 
ATOM     19  C   UNL d   1      58.813  -3.331  28.463  0.00  0.00     0.000 A 
ATOM     20  C   UNL d   1      59.558  -3.708  28.457  0.00  0.00     0.002 A 
ENDBRANCH  10  11
ENDBRANCH   9  10
ENDBRANCH   3   9
BRANCH   2  21
ATOM     21  C   UNL d   1      56.294   0.159  32.753  0.00  0.00     0.064 A 
ATOM     22  C   UNL d   1      56.566   0.626  33.377  0.00  0.00     0.018 A 
ATOM     23  C   UNL d   1      56.117   0.679  34.079  0.00  0.00     0.002 A 
ATOM     24  C   UNL d   1      55.403   0.264  34.143  0.00  0.00     0.000 A 
ATOM     25  C   UNL d   1      55.136  -0.200  33.519  0.00  0.00     0.002 A 
ATOM     26  C   UNL d   1      55.578  -0.252  32.829  0.00  0.00     0.018 A 
ENDBRANCH   2  21
TORSDOF 4
ENDMDL
MODEL 2
REMARK VINA RESULT:      -3.9      1.487      2.041
REMARK  4 active torsions:
REMARK  status: ('A' for Active; 'I' for Inactive)
REMARK    1  A    between atoms: S_7  and  C_1 
REMARK       I    between atoms: N_5  and  C_9 
REMARK    2  A    between atoms: C_10  and  S_7 
REMARK    3  A    between atoms: C_15  and  N_8 
REMARK    4  A    between atoms: C_9  and  C_10 
ROOT
ATOM      1  N   UNL d   1      57.017  -0.796  31.602  0.00  0.00    -0.269 N 
ATOM      2  N   UNL d   1      56.216  -0.199  32.921  0.00  0.00    -0.301 N 
ATOM      3  C   UNL d   1      57.417  -1.103  30.939  0.00  0.00     0.271 C 
ATOM      4  C   UNL d   1      57.132  -0.011  31.837  0.00  0.00     0.102 A 
ATOM      5  C   UNL d   1      56.502  -1.285  32.023  0.00  0.00     0.102 A 
ATOM      6  C   UNL d   1      56.103  -0.984  32.681  0.00  0.00     0.100 A 
ATOM      7  C   UNL d   1      56.736   0.286  32.491  0.00  0.00     0.100 A 
ATOM      8  O   UNL d   1      57.298  -1.888  30.707  0.00  0.00    -0.266 OA
ENDROOT
BRANCH   3   9
ATOM      9  C   UNL d   1      57.932  -0.609  30.519  0.00  0.00     0.097 C 
BRANCH   9  10
ATOM     10  S   UNL d   1      58.251  -0.875  29.805  0.00  0.00    -0.080 SA
BRANCH  10  11
ATOM     11  C   UNL d   1      58.756  -0.375  29.371  0.00  0.00     0.049 A 
ATOM     12  C   UNL d   1      58.549   0.340  29.024  0.00  0.00     0.087 A 
ATOM     13  N   UNL d   1      59.216   0.650  28.651  0.00  0.00    -0.245 NA
ATOM     14  C   UNL d   1      57.800   0.682  29.048  0.00  0.00     0.021 C 
ATOM     15  C   UNL d   1      59.839   0.112  28.776  0.00  0.00     0.082 A 
ATOM     16  C   UNL d   1      59.549  -0.518  29.220  0.00  0.00     0.025 A 
ATOM     17  C   UNL d   1      60.630   0.124  28.537  0.00  0.00     0.019 A 
ATOM     18  C   UNL d   1      60.051  -1.135  29.425  0.00  0.00     0.002 A 
ATOM     19  C   UNL d   1      60.841  -1.134  29.193  0.00  0.00     0.000 A 
ATOM     20  C   UNL d   1      61.126  -0.492  28.743  0.00  0.00     0.002 A 
ENDBRANCH  10  11
ENDBRANCH   9  10
ENDBRANCH   3   9
BRANCH   2  21
ATOM     21  C   UNL d   1      55.816   0.094  33.577  0.00  0.00     0.064 A 
ATOM     22  C   UNL d   1      56.240   0.385  34.223  0.00  0.00     0.018 A 
ATOM     23  C   UNL d   1      55.830   0.682  34.887  0.00  0.00     0.002 A 
ATOM     24  C   UNL d   1      55.002   0.682  34.893  0.00  0.00     0.000 A 
ATOM     25  C   UNL d   1      54.583   0.391  34.247  0.00  0.00     0.002 A 
ATOM     26  C   UNL d   1      54.987   0.100  33.595  0.00  0.00     0.018 A 
ENDBRANCH   2  21
TORSDOF 4
ENDMDL
