MODEL 1
REMARK VINA RESULT:      36.4      0.000      0.000
REMARK  3 active torsions:
REMARK  status: ('A' for Active; 'I' for Inactive)
REMARK    1  A    between atoms: N_4  and  C_2 
REMARK    2  A    between atoms: C_9  and  C_3 
REMARK       I    between atoms: C_7  and  N_4 
REMARK    3  A    between atoms: C_8  and  C_7 
ROOT
ATOM      1  N   UNL d   1     -54.793-100.906 -41.914  0.00  0.00    -0.051 NA
ATOM      2  C   UNL d   1     -54.801-101.517 -41.366  0.00  0.00     0.760 A 
ATOM      3  C   UNL d   1     -54.880-101.235 -42.666  0.00  0.00     0.147 A 
ATOM      4  N   UNL d   1     -54.892-102.227 -41.776  0.00  0.00    -0.019 NA
ATOM      5  S   UNL d   1     -54.942-102.057 -42.579  0.00  0.00     0.052 SA
ENDROOT
BRANCH   2   6
ATOM      6  N   UNL d   1     -54.735-101.520 -40.537  0.00  0.00    -0.018 NA
ATOM      7  C   UNL d   1     -55.020-102.161 -40.105  0.00  0.00     0.295 C 
ATOM      8  O   UNL d   1     -55.369-102.799 -40.495  0.00  0.00    -0.265 OA
BRANCH   7   9
ATOM      9  C   UNL d   1     -54.955-102.164 -39.285  0.00  0.00     0.059 A 
ATOM     10  C   UNL d   1     -54.894-102.880 -38.881  0.00  0.00     0.007 A 
ATOM     11  C   UNL d   1     -54.829-102.875 -38.056  0.00  0.00     0.030 A 
ATOM     12  C   UNL d   1     -54.824-102.163 -37.639  0.00  0.00     0.140 A 
ATOM     13  C   UNL d   1     -54.885-101.448 -38.042  0.00  0.00     0.030 A 
ATOM     14  F   UNL d   1     -54.759-102.176 -36.819  0.00  0.00    -0.204 F 
ATOM     15  C   UNL d   1     -54.950-101.445 -38.864  0.00  0.00     0.007 A 
ENDBRANCH   7   9
ENDBRANCH   2   6
BRANCH   3  16
ATOM     16  C   UNL d   1     -54.902-100.822 -43.375  0.00  0.00     0.026 A 
ATOM     17  C   UNL d   1     -54.711-101.201 -44.084  0.00  0.00     0.002 A 
ATOM     18  C   UNL d   1     -54.733-100.786 -44.797  0.00  0.00     0.000 A 
ATOM     19  C   UNL d   1     -54.948 -99.989 -44.799  0.00  0.00     0.000 A 
ATOM     20  C   UNL d   1     -55.139 -99.607 -44.099  0.00  0.00     0.000 A 
ATOM     21  C   UNL d   1     -55.117-100.022 -43.386  0.00  0.00     0.002 A 
ENDBRANCH   3  16
TORSDOF 3
ENDMDL
MODEL 2
REMARK VINA RESULT:      37.5      0.920      1.263
REMARK  3 active torsions:
REMARK  status: ('A' for Active; 'I' for Inactive)
REMARK    1  A    between atoms: N_4  and  C_2 
REMARK    2  A    between atoms: C_9  and  C_3 
REMARK       I    between atoms: C_7  and  N_4 
REMARK    3  A    between atoms: C_8  and  C_7 
ROOT
ATOM      1  N   UNL d   1     -54.852-100.821 -42.810  0.00  0.00    -0.051 NA
ATOM      2  C   UNL d   1     -54.827-101.596 -42.543  0.00  0.00     0.760 A 
ATOM      3  C   UNL d   1     -54.881-100.834 -43.634  0.00  0.00     0.147 A 
ATOM      4  N   UNL d   1     -54.838-102.093 -43.202  0.00  0.00    -0.019 NA
ATOM      5  S   UNL d   1     -54.872-101.626 -43.877  0.00  0.00     0.052 SA
ENDROOT
BRANCH   2   6
ATOM      6  N   UNL d   1     -54.793-101.920 -41.777  0.00  0.00    -0.018 NA
ATOM      7  C   UNL d   1     -54.868-101.427 -41.121  0.00  0.00     0.295 C 
ATOM      8  O   UNL d   1     -54.975-100.616 -41.223  0.00  0.00    -0.265 OA
BRANCH   7   9
ATOM      9  C   UNL d   1     -54.834-101.747 -40.363  0.00  0.00     0.059 A 
ATOM     10  C   UNL d   1     -54.880-102.564 -40.262  0.00  0.00     0.007 A 
ATOM     11  C   UNL d   1     -54.846-102.879 -39.498  0.00  0.00     0.030 A 
ATOM     12  C   UNL d   1     -54.768-102.385 -38.842  0.00  0.00     0.140 A 
ATOM     13  C   UNL d   1     -54.722-101.569 -38.943  0.00  0.00     0.030 A 
ATOM     14  F   UNL d   1     -54.735-102.714 -38.089  0.00  0.00    -0.204 F 
ATOM     15  C   UNL d   1     -54.756-101.248 -39.701  0.00  0.00     0.007 A 
ENDBRANCH   7   9
ENDBRANCH   2   6
BRANCH   3  16
ATOM     16  C   UNL d   1     -54.912-100.179 -44.128  0.00  0.00     0.026 A 
ATOM     17  C   UNL d   1     -54.712-100.248 -44.927  0.00  0.00     0.002 A 
ATOM     18  C   UNL d   1     -54.743 -99.590 -45.423  0.00  0.00     0.000 A 
ATOM     19  C   UNL d   1     -54.976 -98.860 -45.118  0.00  0.00     0.000 A 
ATOM     20  C   UNL d   1     -55.175 -98.783 -44.326  0.00  0.00     0.000 A 
ATOM     21  C   UNL d   1     -55.144 -99.442 -43.829  0.00  0.00     0.002 A 
ENDBRANCH   3  16
TORSDOF 3
ENDMDL
