MODEL 1
REMARK VINA RESULT:      28.6      0.000      0.000
REMARK  4 active torsions:
REMARK  status: ('A' for Active; 'I' for Inactive)
REMARK    1  A    between atoms: C_2  and  C_1 
REMARK    2  A    between atoms: C_4  and  C_3 
REMARK       I    between atoms: N_6  and  C_4 
REMARK    3  A    between atoms: C_5  and  C_10 
REMARK       I    between atoms: N_9  and  C_5 
REMARK    4  A    between atoms: C_10  and  N_6 
ROOT
ATOM      1  C   UNL d   1     -54.954-101.335 -43.894  0.00  0.00     0.076 A 
ATOM      2  C   UNL d   1     -55.022-100.513 -43.993  0.00  0.00     0.062 A 
ATOM      3  C   UNL d   1     -54.803-101.646 -43.152  0.00  0.00     0.004 A 
ATOM      4  C   UNL d   1     -54.935-100.014 -43.334  0.00  0.00     0.005 A 
ATOM      5  C   UNL d   1     -54.780-100.341 -42.580  0.00  0.00     0.000 A 
ATOM      6  C   UNL d   1     -54.717-101.154 -42.501  0.00  0.00    -0.000 A 
ENDROOT
BRANCH   2   7
ATOM      7  C   UNL d   1     -55.174-100.191 -44.737  0.00  0.00     0.279 C 
ATOM      8  N   UNL d   1     -55.784 -99.644 -44.832  0.00  0.00    -0.201 NA
ATOM      9  O   UNL d   1     -54.711-100.422 -45.381  0.00  0.00    -0.265 OA
BRANCH   8  10
ATOM     10  C   UNL d   1     -56.244 -99.416 -44.185  0.00  0.00     0.166 C 
BRANCH  10  11
ATOM     11  C   UNL d   1     -57.001 -99.113 -44.304  0.00  0.00     0.318 C 
ATOM     12  O   UNL d   1     -57.227 -98.866 -45.053  0.00  0.00    -0.262 OA
ATOM     13  N   UNL d   1     -57.529 -99.060 -43.669  0.00  0.00    -0.083 NA
ATOM     14  N   UNL d   1     -58.284 -98.758 -43.788  0.00  0.00    -0.019 N 
ENDBRANCH  10  11
ENDBRANCH   8  10
ENDBRANCH   2   7
BRANCH   1  15
ATOM     15  C   UNL d   1     -55.041-101.834 -44.553  0.00  0.00     0.419 C 
ATOM     16  F   UNL d   1     -55.120-102.289 -45.154  0.00  0.00    -0.166 F 
ATOM     17  F   UNL d   1     -55.403-101.654 -45.321  0.00  0.00    -0.166 F 
ATOM     18  F   UNL d   1     -54.801-102.646 -44.650  0.00  0.00    -0.166 F 
ENDBRANCH   1  15
TORSDOF 4
ENDMDL
