MODEL 1
REMARK VINA RESULT:      -4.0      0.000      0.000
REMARK  6 active torsions:
REMARK  status: ('A' for Active; 'I' for Inactive)
REMARK    1  A    between atoms: N_3  and  C_1 
REMARK       I    between atoms: C_7  and  N_3 
REMARK    2  A    between atoms: S_13  and  C_4 
REMARK    3  A    between atoms: C_20  and  C_7 
REMARK    4  A    between atoms: C_10  and  C_21 
REMARK       I    between atoms: N_12  and  C_10 
REMARK    5  A    between atoms: C_14  and  N_12 
REMARK    6  A    between atoms: C_21  and  S_13 
ROOT
ATOM      1  C   UNL d   1      57.331  -0.012  31.658  0.00  0.00     0.286 C 
ATOM      2  N   UNL d   1      57.330   0.491  32.316  0.00  0.00    -0.207 NA
ATOM      3  O   UNL d   1      56.675  -0.487  31.495  0.00  0.00    -0.265 OA
ENDROOT
BRANCH   1   4
ATOM      4  C   UNL d   1      57.992  -0.033  31.171  0.00  0.00     0.100 C 
BRANCH   4   5
ATOM      5  S   UNL d   1      57.898  -0.017  30.347  0.00  0.00    -0.054 SA
BRANCH   5   6
ATOM      6  C   UNL d   1      58.478  -0.356  29.868  0.00  0.00     0.165 A 
ATOM      7  S   UNL d   1      58.492  -1.132  29.608  0.00  0.00    -0.019 SA
ATOM      8  C   UNL d   1      59.162  -1.244  29.145  0.00  0.00     0.219 A 
ATOM      9  N   UNL d   1      59.568  -0.524  29.119  0.00  0.00    -0.120 NA
ATOM     10  N   UNL d   1      59.146   0.025  29.565  0.00  0.00    -0.133 NA
BRANCH   8  11
ATOM     11  N   UNL d   1      59.385  -1.950  28.775  0.00  0.00    -0.181 NA
ATOM     12  C   UNL d   1      60.077  -2.333  29.019  0.00  0.00     0.281 C 
ATOM     13  O   UNL d   1      60.536  -2.016  29.622  0.00  0.00    -0.265 OA
BRANCH  12  14
ATOM     14  C   UNL d   1      60.304  -3.038  28.653  0.00  0.00     0.058 C 
ATOM     15  C   UNL d   1      59.733  -3.614  28.489  0.00  0.00     0.005 C 
ATOM     16  C   UNL d   1      61.089  -3.160  28.456  0.00  0.00     0.005 C 
ENDBRANCH  12  14
ENDBRANCH   8  11
ENDBRANCH   5   6
ENDBRANCH   4   5
ENDBRANCH   1   4
BRANCH   2  17
ATOM     17  C   UNL d   1      56.666   0.513  32.806  0.00  0.00     0.087 A 
ATOM     18  C   UNL d   1      56.766   0.575  33.621  0.00  0.00     0.046 A 
ATOM     19  C   UNL d   1      56.115   0.597  34.117  0.00  0.00     0.124 A 
ATOM     20  O   UNL d   1      56.218   0.660  34.935  0.00  0.00    -0.301 OA
ATOM     21  C   UNL d   1      55.353   0.557  33.797  0.00  0.00     0.123 A 
ATOM     22  C   UNL d   1      55.552   0.682  35.429  0.00  0.00     0.149 A 
ATOM     23  C   UNL d   1      54.789   0.642  35.109  0.00  0.00     0.149 A 
ATOM     24  O   UNL d   1      54.695   0.579  34.281  0.00  0.00    -0.301 OA
ATOM     25  C   UNL d   1      55.254   0.495  32.978  0.00  0.00     0.028 A 
ATOM     26  C   UNL d   1      55.912   0.473  32.483  0.00  0.00     0.021 A 
ENDBRANCH   2  17
TORSDOF 6
ENDMDL
MODEL 2
REMARK VINA RESULT:      -3.4      1.236      6.301
REMARK  6 active torsions:
REMARK  status: ('A' for Active; 'I' for Inactive)
REMARK    1  A    between atoms: N_3  and  C_1 
REMARK       I    between atoms: C_7  and  N_3 
REMARK    2  A    between atoms: S_13  and  C_4 
REMARK    3  A    between atoms: C_20  and  C_7 
REMARK    4  A    between atoms: C_10  and  C_21 
REMARK       I    between atoms: N_12  and  C_10 
REMARK    5  A    between atoms: C_14  and  N_12 
REMARK    6  A    between atoms: C_21  and  S_13 
ROOT
ATOM      1  C   UNL d   1      58.481  -1.410  29.756  0.00  0.00     0.286 C 
ATOM      2  N   UNL d   1      58.930  -1.577  29.082  0.00  0.00    -0.207 NA
ATOM      3  O   UNL d   1      58.252  -2.017  30.268  0.00  0.00    -0.265 OA
ENDROOT
BRANCH   1   4
ATOM      4  C   UNL d   1      58.266  -0.632  29.911  0.00  0.00     0.100 C 
BRANCH   4   5
ATOM      5  S   UNL d   1      58.331  -0.331  30.682  0.00  0.00    -0.054 SA
BRANCH   5   6
ATOM      6  C   UNL d   1      57.676   0.031  31.030  0.00  0.00     0.165 A 
ATOM      7  S   UNL d   1      57.532   0.087  31.834  0.00  0.00    -0.019 SA
ATOM      8  C   UNL d   1      56.823   0.487  31.949  0.00  0.00     0.219 A 
ATOM      9  N   UNL d   1      56.526   0.682  31.201  0.00  0.00    -0.120 NA
ATOM     10  N   UNL d   1      57.053   0.400  30.635  0.00  0.00    -0.133 NA
BRANCH   8  11
ATOM     11  N   UNL d   1      56.475   0.662  32.679  0.00  0.00    -0.181 NA
ATOM     12  C   UNL d   1      55.881   0.165  32.972  0.00  0.00     0.281 C 
ATOM     13  O   UNL d   1      55.641  -0.492  32.543  0.00  0.00    -0.265 OA
BRANCH  12  14
ATOM     14  C   UNL d   1      55.531   0.336  33.701  0.00  0.00     0.058 C 
ATOM     15  C   UNL d   1      54.709   0.409  33.750  0.00  0.00     0.005 C 
ATOM     16  C   UNL d   1      56.000   0.430  34.366  0.00  0.00     0.005 C 
ENDBRANCH  12  14
ENDBRANCH   8  11
ENDBRANCH   5   6
ENDBRANCH   4   5
ENDBRANCH   1   4
BRANCH   2  17
ATOM     17  C   UNL d   1      59.147  -2.359  28.926  0.00  0.00     0.087 A 
ATOM     18  C   UNL d   1      59.915  -2.607  29.089  0.00  0.00     0.046 A 
ATOM     19  C   UNL d   1      60.140  -3.379  28.938  0.00  0.00     0.124 A 
ATOM     20  O   UNL d   1      60.912  -3.626  29.103  0.00  0.00    -0.301 OA
ATOM     21  C   UNL d   1      59.594  -3.913  28.620  0.00  0.00     0.123 A 
ATOM     22  C   UNL d   1      61.131  -4.411  28.947  0.00  0.00     0.149 A 
ATOM     23  C   UNL d   1      60.584  -4.944  28.628  0.00  0.00     0.149 A 
ATOM     24  O   UNL d   1      59.807  -4.686  28.465  0.00  0.00    -0.301 OA
ATOM     25  C   UNL d   1      58.823  -3.662  28.456  0.00  0.00     0.028 A 
ATOM     26  C   UNL d   1      58.600  -2.883  28.610  0.00  0.00     0.021 A 
ENDBRANCH   2  17
TORSDOF 6
ENDMDL
MODEL 3
REMARK VINA RESULT:      -2.4      1.049      1.432
REMARK  6 active torsions:
REMARK  status: ('A' for Active; 'I' for Inactive)
REMARK    1  A    between atoms: N_3  and  C_1 
REMARK       I    between atoms: C_7  and  N_3 
REMARK    2  A    between atoms: S_13  and  C_4 
REMARK    3  A    between atoms: C_20  and  C_7 
REMARK    4  A    between atoms: C_10  and  C_21 
REMARK       I    between atoms: N_12  and  C_10 
REMARK    5  A    between atoms: C_14  and  N_12 
REMARK    6  A    between atoms: C_21  and  S_13 
ROOT
ATOM      1  C   UNL d   1      56.774  -0.331  32.484  0.00  0.00     0.286 C 
ATOM      2  N   UNL d   1      56.662   0.340  32.957  0.00  0.00    -0.207 NA
ATOM      3  O   UNL d   1      56.260  -0.974  32.544  0.00  0.00    -0.265 OA
ENDROOT
BRANCH   1   4
ATOM      4  C   UNL d   1      57.403  -0.347  31.955  0.00  0.00     0.100 C 
BRANCH   4   5
ATOM      5  S   UNL d   1      57.285  -0.623  31.182  0.00  0.00    -0.054 SA
BRANCH   5   6
ATOM      6  C   UNL d   1      57.759  -0.332  30.573  0.00  0.00     0.165 A 
ATOM      7  S   UNL d   1      58.307  -0.765  30.145  0.00  0.00    -0.019 SA
ATOM      8  C   UNL d   1      58.661  -0.270  29.592  0.00  0.00     0.219 A 
ATOM      9  N   UNL d   1      58.325   0.480  29.681  0.00  0.00    -0.120 NA
ATOM     10  N   UNL d   1      57.769   0.442  30.286  0.00  0.00    -0.133 NA
BRANCH   8  11
ATOM     11  N   UNL d   1      59.245  -0.488  29.048  0.00  0.00    -0.181 NA
ATOM     12  C   UNL d   1      60.031  -0.548  29.301  0.00  0.00     0.281 C 
ATOM     13  O   UNL d   1      60.227  -0.393  30.083  0.00  0.00    -0.265 OA
BRANCH  12  14
ATOM     14  C   UNL d   1      60.618  -0.765  28.762  0.00  0.00     0.058 C 
ATOM     15  C   UNL d   1      61.129  -0.188  28.462  0.00  0.00     0.005 C 
ATOM     16  C   UNL d   1      60.688  -1.547  28.529  0.00  0.00     0.005 C 
ENDBRANCH  12  14
ENDBRANCH   8  11
ENDBRANCH   5   6
ENDBRANCH   4   5
ENDBRANCH   1   4
BRANCH   2  17
ATOM     17  C   UNL d   1      56.030   0.357  33.488  0.00  0.00     0.087 A 
ATOM     18  C   UNL d   1      56.176   0.500  34.286  0.00  0.00     0.046 A 
ATOM     19  C   UNL d   1      55.558   0.520  34.822  0.00  0.00     0.124 A 
ATOM     20  O   UNL d   1      55.706   0.664  35.623  0.00  0.00    -0.301 OA
ATOM     21  C   UNL d   1      54.783   0.396  34.561  0.00  0.00     0.123 A 
ATOM     22  C   UNL d   1      55.073   0.682  36.158  0.00  0.00     0.149 A 
ATOM     23  C   UNL d   1      54.298   0.557  35.896  0.00  0.00     0.149 A 
ATOM     24  O   UNL d   1      54.156   0.413  35.085  0.00  0.00    -0.301 OA
ATOM     25  C   UNL d   1      54.638   0.252  33.759  0.00  0.00     0.028 A 
ATOM     26  C   UNL d   1      55.264   0.233  33.223  0.00  0.00     0.021 A 
ENDBRANCH   2  17
TORSDOF 6
ENDMDL
