MODEL 1
REMARK VINA RESULT:      87.0      0.000      0.000
REMARK  4 active torsions:
REMARK  status: ('A' for Active; 'I' for Inactive)
REMARK    1  A    between atoms: C_9  and  C_3 
REMARK    2  A    between atoms: N_10  and  C_9 
REMARK    3  A    between atoms: C_19  and  C_9 
REMARK    4  A    between atoms: C_12  and  N_11 
ROOT
ATOM      1  C   UNL d   1      14.351  15.472  -3.174  0.00  0.00     0.075 C 
ENDROOT
BRANCH   1   2
ATOM      2  C   UNL d   1      14.053  14.747  -3.440  0.00  0.00     0.106 A 
ATOM      3  C   UNL d   1      13.330  14.632  -3.840  0.00  0.00     0.289 A 
ATOM      4  N   UNL d   1      13.254  13.826  -4.001  0.00  0.00    -0.169 N 
ATOM      5  O   UNL d   1      12.787  15.223  -4.040  0.00  0.00    -0.265 OA
ATOM      6  C   UNL d   1      13.923  13.442  -3.703  0.00  0.00     0.200 A 
ATOM      7  N   UNL d   1      12.769  13.257  -4.342  0.00  0.00    -0.141 NA
ATOM      8  S   UNL d   1      14.415  14.007  -3.358  0.00  0.00    -0.042 SA
ATOM      9  N   UNL d   1      13.847  12.637  -3.863  0.00  0.00    -0.200 NA
ATOM     10  C   UNL d   1      13.132  12.520  -4.259  0.00  0.00     0.184 A 
ATOM     11  C   UNL d   1      12.828  11.799  -4.528  0.00  0.00     0.044 C 
ENDBRANCH   1   2
BRANCH   1  12
ATOM     12  N   UNL d   1      14.367  16.115  -3.690  0.00  0.00    -0.301 N 
ATOM     13  C   UNL d   1      14.355  16.884  -3.400  0.00  0.00     0.100 A 
ATOM     14  C   UNL d   1      14.371  17.525  -3.923  0.00  0.00     0.100 A 
ATOM     15  N   UNL d   1      14.400  17.406  -4.742  0.00  0.00    -0.299 N 
ATOM     16  C   UNL d   1      14.412  16.631  -5.023  0.00  0.00     0.100 A 
ATOM     17  C   UNL d   1      14.396  15.984  -4.506  0.00  0.00     0.100 A 
BRANCH  15  18
ATOM     18  C   UNL d   1      14.416  18.043  -5.248  0.00  0.00     0.092 A 
ATOM     19  C   UNL d   1      13.903  18.096  -5.881  0.00  0.00     0.156 A 
ATOM     20  F   UNL d   1      13.351  17.481  -6.010  0.00  0.00    -0.203 F 
ATOM     21  C   UNL d   1      13.926  18.745  -6.387  0.00  0.00     0.031 A 
ATOM     22  C   UNL d   1      14.473  19.346  -6.254  0.00  0.00     0.002 A 
ATOM     23  C   UNL d   1      14.986  19.293  -5.620  0.00  0.00     0.002 A 
ATOM     24  C   UNL d   1      14.963  18.650  -5.117  0.00  0.00     0.020 A 
ENDBRANCH  15  18
ENDBRANCH   1  12
BRANCH   1  25
ATOM     25  C   UNL d   1      14.626  15.546  -2.404  0.00  0.00     0.017 A 
ATOM     26  C   UNL d   1      14.649  14.895  -1.915  0.00  0.00     0.002 A 
ATOM     27  C   UNL d   1      14.922  14.977  -1.160  0.00  0.00     0.000 A 
ATOM     28  C   UNL d   1      15.181  15.721  -0.872  0.00  0.00     0.000 A 
ATOM     29  C   UNL d   1      15.155  16.361  -1.361  0.00  0.00     0.000 A 
ATOM     30  C   UNL d   1      14.878  16.290  -2.138  0.00  0.00     0.002 A 
ENDBRANCH   1  25
TORSDOF 4
ENDMDL
