MODEL 1
REMARK VINA RESULT:       1.3      0.000      0.000
REMARK  6 active torsions:
REMARK  status: ('A' for Active; 'I' for Inactive)
REMARK    1  A    between atoms: N_2  and  S_1 
REMARK    2  A    between atoms: C_7  and  S_1 
REMARK    3  A    between atoms: C_3  and  N_2 
REMARK    4  A    between atoms: C_4  and  C_3 
REMARK    5  A    between atoms: N_5  and  C_4 
REMARK    6  A    between atoms: C_6  and  C_4 
ROOT
ATOM      1  C   UNL d   1     -42.559-122.317 -50.937  0.00  0.00     0.110 C 
ATOM      2  C   UNL d   1     -43.357-122.132 -51.040  0.00  0.00     0.023 C 
ENDROOT
BRANCH   1   3
ATOM      3  N   UNL d   1     -42.326-122.788 -50.310  0.00  0.00    -0.157 NA
BRANCH   3   4
ATOM      4  S   UNL d   1     -42.860-123.290 -49.938  0.00  0.00     0.285 S 
ATOM      5  O   UNL d   1     -43.538-123.755 -50.025  0.00  0.00    -0.198 OA
ATOM      6  O   UNL d   1     -43.239-123.340 -50.675  0.00  0.00    -0.198 OA
BRANCH   4   7
ATOM      7  C   UNL d   1     -42.535-123.284 -49.184  0.00  0.00     0.105 A 
ATOM      8  C   UNL d   1     -41.875-123.764 -49.016  0.00  0.00     0.013 A 
ATOM      9  C   UNL d   1     -41.551-123.754 -48.254  0.00  0.00     0.007 A 
ATOM     10  C   UNL d   1     -41.876-123.277 -47.668  0.00  0.00     0.035 A 
ATOM     11  C   UNL d   1     -42.529-122.801 -47.835  0.00  0.00     0.007 A 
ATOM     12 BR   UNL d   1     -41.545-123.272 -46.904  0.00  0.00    -0.049 Br
ATOM     13  C   UNL d   1     -42.860-122.806 -48.598  0.00  0.00     0.013 A 
ENDBRANCH   4   7
ENDBRANCH   3   4
ENDBRANCH   1   3
BRANCH   1  14
ATOM     14  C   UNL d   1     -41.999-122.026 -51.465  0.00  0.00     0.089 C 
BRANCH  14  15
ATOM     15  N   UNL d   1     -41.782-122.469 -52.120  0.00  0.00    -0.300 N 
ATOM     16  C   UNL d   1     -41.385-123.186 -52.025  0.00  0.00     0.100 A 
ATOM     17  C   UNL d   1     -41.167-123.631 -52.688  0.00  0.00     0.100 A 
ATOM     18  N   UNL d   1     -41.343-123.363 -53.444  0.00  0.00    -0.299 N 
ATOM     19  C   UNL d   1     -41.742-122.643 -53.541  0.00  0.00     0.100 A 
ATOM     20  C   UNL d   1     -41.123-123.812 -54.106  0.00  0.00     0.100 C 
ATOM     21  C   UNL d   1     -41.959-122.201 -52.886  0.00  0.00     0.100 A 
ENDBRANCH  14  15
BRANCH  14  22
ATOM     22  C   UNL d   1     -41.656-121.289 -51.334  0.00  0.00     0.047 A 
ATOM     23  S   UNL d   1     -41.453-120.734 -51.915  0.00  0.00    -0.085 SA
ATOM     24  C   UNL d   1     -41.126-120.079 -51.531  0.00  0.00     0.035 A 
ATOM     25  C   UNL d   1     -41.123-120.216 -50.726  0.00  0.00     0.007 A 
ATOM     26  C   UNL d   1     -41.453-120.969 -50.599  0.00  0.00     0.009 A 
ENDBRANCH  14  22
ENDBRANCH   1  14
TORSDOF 6
ENDMDL
MODEL 2
REMARK VINA RESULT:       3.8      2.236      4.286
REMARK  6 active torsions:
REMARK  status: ('A' for Active; 'I' for Inactive)
REMARK    1  A    between atoms: N_2  and  S_1 
REMARK    2  A    between atoms: C_7  and  S_1 
REMARK    3  A    between atoms: C_3  and  N_2 
REMARK    4  A    between atoms: C_4  and  C_3 
REMARK    5  A    between atoms: N_5  and  C_4 
REMARK    6  A    between atoms: C_6  and  C_4 
ROOT
ATOM      1  C   UNL d   1     -41.662-122.775 -51.779  0.00  0.00     0.110 C 
ATOM      2  C   UNL d   1     -41.367-123.517 -51.567  0.00  0.00     0.023 C 
ENDROOT
BRANCH   1   3
ATOM      3  N   UNL d   1     -41.778-122.592 -52.567  0.00  0.00    -0.157 NA
BRANCH   3   4
ATOM      4  S   UNL d   1     -41.526-123.102 -53.161  0.00  0.00     0.285 S 
ATOM      5  O   UNL d   1     -41.150-123.817 -53.336  0.00  0.00    -0.198 OA
ATOM      6  O   UNL d   1     -41.247-123.586 -52.548  0.00  0.00    -0.198 OA
BRANCH   4   7
ATOM      7  C   UNL d   1     -41.778-122.671 -53.813  0.00  0.00     0.105 A 
ATOM      8  C   UNL d   1     -41.216-122.361 -54.345  0.00  0.00     0.013 A 
ATOM      9  C   UNL d   1     -41.475-121.928 -55.000  0.00  0.00     0.007 A 
ATOM     10  C   UNL d   1     -42.278-121.804 -55.128  0.00  0.00     0.035 A 
ATOM     11  C   UNL d   1     -42.834-122.110 -54.602  0.00  0.00     0.007 A 
ATOM     12 BR   UNL d   1     -42.532-121.367 -55.790  0.00  0.00    -0.049 Br
ATOM     13  C   UNL d   1     -42.581-122.547 -53.941  0.00  0.00     0.013 A 
ENDBRANCH   4   7
ENDBRANCH   3   4
ENDBRANCH   1   3
BRANCH   1  14
ATOM     14  C   UNL d   1     -41.839-122.222 -51.197  0.00  0.00     0.089 C 
BRANCH  14  15
ATOM     15  N   UNL d   1     -42.285-122.440 -50.543  0.00  0.00    -0.300 N 
ATOM     16  C   UNL d   1     -41.915-122.734 -49.867  0.00  0.00     0.100 A 
ATOM     17  C   UNL d   1     -42.367-122.953 -49.209  0.00  0.00     0.100 A 
ATOM     18  N   UNL d   1     -43.185-122.880 -49.224  0.00  0.00    -0.299 N 
ATOM     19  C   UNL d   1     -43.558-122.584 -49.903  0.00  0.00     0.100 A 
ATOM     20  C   UNL d   1     -43.634-123.100 -48.562  0.00  0.00     0.100 C 
ATOM     21  C   UNL d   1     -43.112-122.367 -50.556  0.00  0.00     0.100 A 
ENDBRANCH  14  15
BRANCH  14  22
ATOM     22  C   UNL d   1     -41.568-121.448 -51.271  0.00  0.00     0.047 A 
ATOM     23  S   UNL d   1     -41.365-120.939 -50.649  0.00  0.00    -0.085 SA
ATOM     24  C   UNL d   1     -41.124-120.222 -50.981  0.00  0.00     0.035 A 
ATOM     25  C   UNL d   1     -41.173-120.276 -51.795  0.00  0.00     0.007 A 
ATOM     26  C   UNL d   1     -41.450-121.039 -51.979  0.00  0.00     0.009 A 
ENDBRANCH  14  22
ENDBRANCH   1  14
TORSDOF 6
ENDMDL
MODEL 3
REMARK VINA RESULT:       3.9      1.971      4.253
REMARK  6 active torsions:
REMARK  status: ('A' for Active; 'I' for Inactive)
REMARK    1  A    between atoms: N_2  and  S_1 
REMARK    2  A    between atoms: C_7  and  S_1 
REMARK    3  A    between atoms: C_3  and  N_2 
REMARK    4  A    between atoms: C_4  and  C_3 
REMARK    5  A    between atoms: N_5  and  C_4 
REMARK    6  A    between atoms: C_6  and  C_4 
ROOT
ATOM      1  C   UNL d   1     -41.884-122.032 -50.315  0.00  0.00     0.110 C 
ATOM      2  C   UNL d   1     -41.571-121.320 -50.037  0.00  0.00     0.023 C 
ENDROOT
BRANCH   1   3
ATOM      3  N   UNL d   1     -41.727-122.276 -51.080  0.00  0.00    -0.157 NA
BRANCH   3   4
ATOM      4  S   UNL d   1     -41.400-121.759 -51.630  0.00  0.00     0.285 S 
ATOM      5  O   UNL d   1     -41.124-120.993 -51.769  0.00  0.00    -0.198 OA
ATOM      6  O   UNL d   1     -41.416-121.194 -51.022  0.00  0.00    -0.198 OA
BRANCH   4   7
ATOM      7  C   UNL d   1     -41.355-122.268 -52.271  0.00  0.00     0.105 A 
ATOM      8  C   UNL d   1     -41.181-123.074 -52.148  0.00  0.00     0.013 A 
ATOM      9  C   UNL d   1     -41.138-123.583 -52.799  0.00  0.00     0.007 A 
ATOM     10  C   UNL d   1     -41.264-123.299 -53.561  0.00  0.00     0.035 A 
ATOM     11  C   UNL d   1     -41.436-122.502 -53.683  0.00  0.00     0.007 A 
ATOM     12 BR   UNL d   1     -41.219-123.817 -54.211  0.00  0.00    -0.049 Br
ATOM     13  C   UNL d   1     -41.482-121.984 -53.033  0.00  0.00     0.013 A 
ENDBRANCH   4   7
ENDBRANCH   3   4
ENDBRANCH   1   3
BRANCH   1  14
ATOM     14  C   UNL d   1     -42.354-122.494 -49.824  0.00  0.00     0.089 C 
BRANCH  14  15
ATOM     15  N   UNL d   1     -42.049-122.791 -49.123  0.00  0.00    -0.300 N 
ATOM     16  C   UNL d   1     -42.318-123.512 -48.825  0.00  0.00     0.100 A 
ATOM     17  C   UNL d   1     -42.008-123.809 -48.117  0.00  0.00     0.100 A 
ATOM     18  N   UNL d   1     -41.433-123.391 -47.707  0.00  0.00    -0.299 N 
ATOM     19  C   UNL d   1     -41.161-122.666 -48.005  0.00  0.00     0.100 A 
ATOM     20  C   UNL d   1     -41.125-123.692 -46.998  0.00  0.00     0.100 C 
ATOM     21  C   UNL d   1     -41.467-122.370 -48.706  0.00  0.00     0.100 A 
ENDBRANCH  14  15
BRANCH  14  22
ATOM     22  C   UNL d   1     -43.133-122.658 -50.036  0.00  0.00     0.047 A 
ATOM     23  S   UNL d   1     -43.426-123.391 -50.289  0.00  0.00    -0.085 SA
ATOM     24  C   UNL d   1     -44.233-123.298 -50.442  0.00  0.00     0.035 A 
ATOM     25  C   UNL d   1     -44.445-122.523 -50.289  0.00  0.00     0.007 A 
ATOM     26  C   UNL d   1     -43.762-122.122 -50.036  0.00  0.00     0.009 A 
ENDBRANCH  14  22
ENDBRANCH   1  14
TORSDOF 6
ENDMDL
