MODEL 1
REMARK VINA RESULT:       8.4      0.000      0.000
REMARK  4 active torsions:
REMARK  status: ('A' for Active; 'I' for Inactive)
REMARK       I    between atoms: N_3  and  C_1 
REMARK    1  A    between atoms: C_13  and  C_1 
REMARK    2  A    between atoms: C_2  and  N_5 
REMARK    3  A    between atoms: C_14  and  N_3 
REMARK    4  A    between atoms: C_4  and  C_14 
REMARK       I    between atoms: N_5  and  C_4 
ROOT
ATOM      1  C   UNL d   1      45.841 -16.481  44.315  0.00  0.00     0.299 C 
ATOM      2  N   UNL d   1      45.906 -15.960  44.949  0.00  0.00    -0.207 NA
ATOM      3  O   UNL d   1      45.528 -16.230  43.594  0.00  0.00    -0.263 OA
ENDROOT
BRANCH   1   4
ATOM      4  C   UNL d   1      46.092 -17.262  44.401  0.00  0.00     0.165 C 
BRANCH   4   5
ATOM      5  N   UNL d   1      46.157 -17.749  43.735  0.00  0.00    -0.201 NA
ATOM      6  C   UNL d   1      46.418 -18.528  43.833  0.00  0.00     0.279 C 
ATOM      7  O   UNL d   1      46.610 -18.811  44.584  0.00  0.00    -0.265 OA
BRANCH   6   8
ATOM      8  C   UNL d   1      46.487 -19.025  43.171  0.00  0.00     0.058 A 
ATOM      9  C   UNL d   1      46.464 -19.844  43.265  0.00  0.00     0.005 A 
ATOM     10  C   UNL d   1      46.532 -20.325  42.609  0.00  0.00     0.000 A 
ATOM     11  C   UNL d   1      46.623 -19.997  41.858  0.00  0.00     0.000 A 
ATOM     12  C   UNL d   1      46.645 -19.187  41.762  0.00  0.00     0.000 A 
ATOM     13  C   UNL d   1      46.577 -18.697  42.420  0.00  0.00     0.005 A 
ENDBRANCH   6   8
ENDBRANCH   4   5
ENDBRANCH   1   4
BRANCH   2  14
ATOM     14  C   UNL d   1      45.653 -15.178  44.859  0.00  0.00     0.086 A 
ATOM     15  C   UNL d   1      46.203 -14.582  44.706  0.00  0.00     0.031 A 
ATOM     16  C   UNL d   1      45.939 -13.806  44.618  0.00  0.00     0.060 A 
ATOM     17 CL   UNL d   1      46.507 -13.277  44.473  0.00  0.00    -0.082 Cl
ATOM     18  C   UNL d   1      45.138 -13.622  44.680  0.00  0.00     0.023 A 
ATOM     19  C   UNL d   1      44.592 -14.227  44.834  0.00  0.00     0.060 A 
ATOM     20  C   UNL d   1      44.848 -15.006  44.923  0.00  0.00     0.031 A 
ATOM     21 CL   UNL d   1      43.785 -14.049  44.898  0.00  0.00    -0.082 Cl
ENDBRANCH   2  14
TORSDOF 4
ENDMDL
MODEL 2
REMARK VINA RESULT:       9.4      2.145      5.102
REMARK  4 active torsions:
REMARK  status: ('A' for Active; 'I' for Inactive)
REMARK       I    between atoms: N_3  and  C_1 
REMARK    1  A    between atoms: C_13  and  C_1 
REMARK    2  A    between atoms: C_2  and  N_5 
REMARK    3  A    between atoms: C_14  and  N_3 
REMARK    4  A    between atoms: C_4  and  C_14 
REMARK       I    between atoms: N_5  and  C_4 
ROOT
ATOM      1  C   UNL d   1      45.806 -16.542  44.352  0.00  0.00     0.299 C 
ATOM      2  N   UNL d   1      45.392 -17.186  44.049  0.00  0.00    -0.207 NA
ATOM      3  O   UNL d   1      46.631 -16.542  44.371  0.00  0.00    -0.263 OA
ENDROOT
BRANCH   1   4
ATOM      4  C   UNL d   1      45.392 -15.888  44.639  0.00  0.00     0.165 C 
BRANCH   4   5
ATOM      5  N   UNL d   1      45.636 -15.124  44.435  0.00  0.00    -0.201 NA
ATOM      6  C   UNL d   1      45.133 -14.488  44.597  0.00  0.00     0.279 C 
ATOM      7  O   UNL d   1      44.401 -14.616  44.955  0.00  0.00    -0.265 OA
BRANCH   6   8
ATOM      8  C   UNL d   1      45.369 -13.717  44.396  0.00  0.00     0.058 A 
ATOM      9  C   UNL d   1      45.105 -13.372  43.696  0.00  0.00     0.005 A 
ATOM     10  C   UNL d   1      45.341 -12.615  43.506  0.00  0.00     0.000 A 
ATOM     11  C   UNL d   1      45.841 -12.194  44.011  0.00  0.00     0.000 A 
ATOM     12  C   UNL d   1      46.104 -12.532  44.705  0.00  0.00     0.000 A 
ATOM     13  C   UNL d   1      45.869 -13.297  44.901  0.00  0.00     0.005 A 
ENDBRANCH   6   8
ENDBRANCH   4   5
ENDBRANCH   1   4
BRANCH   2  14
ATOM     14  C   UNL d   1      45.811 -17.839  43.762  0.00  0.00     0.086 A 
ATOM     15  C   UNL d   1      46.022 -17.875  42.966  0.00  0.00     0.031 A 
ATOM     16  C   UNL d   1      46.440 -18.532  42.692  0.00  0.00     0.060 A 
ATOM     17 CL   UNL d   1      46.616 -18.515  41.922  0.00  0.00    -0.082 Cl
ATOM     18  C   UNL d   1      46.647 -19.144  43.201  0.00  0.00     0.023 A 
ATOM     19  C   UNL d   1      46.431 -19.100  44.002  0.00  0.00     0.060 A 
ATOM     20  C   UNL d   1      46.013 -18.447  44.284  0.00  0.00     0.031 A 
ATOM     21 CL   UNL d   1      46.636 -19.712  44.520  0.00  0.00    -0.082 Cl
ENDBRANCH   2  14
TORSDOF 4
ENDMDL
