MODEL 1
REMARK VINA RESULT:      -5.2      0.000      0.000
REMARK  2 active torsions:
REMARK  status: ('A' for Active; 'I' for Inactive)
REMARK    1  A    between atoms: C_4  and  S_1 
REMARK    2  A    between atoms: C_6  and  C_4 
ROOT
ATOM      1  C   UNL d   1      55.743   0.056  32.994  0.00  0.00     0.013 A 
ATOM      2  C   UNL d   1      55.523  -0.721  33.173  0.00  0.00     0.001 A 
ATOM      3  C   UNL d   1      56.314   0.206  32.430  0.00  0.00     0.001 A 
ATOM      4  C   UNL d   1      56.674  -0.416  32.035  0.00  0.00     0.000 A 
ATOM      5  C   UNL d   1      55.882  -1.347  32.778  0.00  0.00     0.000 A 
ATOM      6  C   UNL d   1      56.460  -1.200  32.207  0.00  0.00     0.000 A 
ENDROOT
BRANCH   1   7
ATOM      7  C   UNL d   1      55.380   0.681  33.392  0.00  0.00     0.119 C 
BRANCH   7   8
ATOM      8  S   UNL d   1      55.253   0.636  34.207  0.00  0.00     0.303 S 
ATOM      9  O   UNL d   1      54.380   0.587  34.057  0.00  0.00    -0.197 OA
ATOM     10  O   UNL d   1      56.134   0.682  34.427  0.00  0.00    -0.197 OA
ATOM     11  N   UNL d   1      55.114   0.592  34.981  0.00  0.00    -0.043 N 
ENDBRANCH   7   8
ENDBRANCH   1   7
TORSDOF 2
ENDMDL
MODEL 2
REMARK VINA RESULT:      -4.7      0.789      1.169
REMARK  2 active torsions:
REMARK  status: ('A' for Active; 'I' for Inactive)
REMARK    1  A    between atoms: C_4  and  S_1 
REMARK    2  A    between atoms: C_6  and  C_4 
ROOT
ATOM      1  C   UNL d   1      56.342  -0.404  32.979  0.00  0.00     0.013 A 
ATOM      2  C   UNL d   1      56.263  -1.087  32.519  0.00  0.00     0.001 A 
ATOM      3  C   UNL d   1      56.777   0.232  32.706  0.00  0.00     0.001 A 
ATOM      4  C   UNL d   1      57.140   0.195  31.971  0.00  0.00     0.000 A 
ATOM      5  C   UNL d   1      56.626  -1.126  31.782  0.00  0.00     0.000 A 
ATOM      6  C   UNL d   1      57.066  -0.486  31.502  0.00  0.00     0.000 A 
ENDROOT
BRANCH   1   7
ATOM      7  C   UNL d   1      55.977  -0.369  33.718  0.00  0.00     0.119 C 
BRANCH   7   8
ATOM      8  S   UNL d   1      55.359   0.163  33.850  0.00  0.00     0.303 S 
ATOM      9  O   UNL d   1      55.917   0.680  34.306  0.00  0.00    -0.197 OA
ATOM     10  O   UNL d   1      54.739  -0.322  33.395  0.00  0.00    -0.197 OA
ATOM     11  N   UNL d   1      54.781   0.680  33.985  0.00  0.00    -0.043 N 
ENDBRANCH   7   8
ENDBRANCH   1   7
TORSDOF 2
ENDMDL
MODEL 3
REMARK VINA RESULT:      -4.6      2.434      2.770
REMARK  2 active torsions:
REMARK  status: ('A' for Active; 'I' for Inactive)
REMARK    1  A    between atoms: C_4  and  S_1 
REMARK    2  A    between atoms: C_6  and  C_4 
ROOT
ATOM      1  C   UNL d   1      56.592  -0.299  32.574  0.00  0.00     0.013 A 
ATOM      2  C   UNL d   1      56.181  -0.991  32.764  0.00  0.00     0.001 A 
ATOM      3  C   UNL d   1      56.292   0.433  32.780  0.00  0.00     0.001 A 
ATOM      4  C   UNL d   1      55.578   0.485  33.179  0.00  0.00     0.000 A 
ATOM      5  C   UNL d   1      55.464  -0.941  33.164  0.00  0.00     0.000 A 
ATOM      6  C   UNL d   1      55.157  -0.204  33.374  0.00  0.00     0.000 A 
ENDROOT
BRANCH   1   7
ATOM      7  C   UNL d   1      57.311  -0.352  32.172  0.00  0.00     0.119 C 
BRANCH   7   8
ATOM      8  S   UNL d   1      57.379  -0.061  31.402  0.00  0.00     0.303 S 
ATOM      9  O   UNL d   1      57.739   0.682  31.728  0.00  0.00    -0.197 OA
ATOM     10  O   UNL d   1      57.017  -0.795  31.008  0.00  0.00    -0.197 OA
ATOM     11  N   UNL d   1      57.451   0.232  30.675  0.00  0.00    -0.043 N 
ENDBRANCH   7   8
ENDBRANCH   1   7
TORSDOF 2
ENDMDL
MODEL 4
REMARK VINA RESULT:      -3.9      9.293      9.828
REMARK  2 active torsions:
REMARK  status: ('A' for Active; 'I' for Inactive)
REMARK    1  A    between atoms: C_4  and  S_1 
REMARK    2  A    between atoms: C_6  and  C_4 
ROOT
ATOM      1  C   UNL d   1      59.974  -8.092  36.299  0.00  0.00     0.013 A 
ATOM      2  C   UNL d   1      60.706  -7.706  36.310  0.00  0.00     0.001 A 
ATOM      3  C   UNL d   1      59.280  -7.663  36.257  0.00  0.00     0.001 A 
ATOM      4  C   UNL d   1      59.305  -6.844  36.226  0.00  0.00     0.000 A 
ATOM      5  C   UNL d   1      60.734  -6.885  36.279  0.00  0.00     0.000 A 
ATOM      6  C   UNL d   1      60.034  -6.448  36.237  0.00  0.00     0.000 A 
ENDROOT
BRANCH   1   7
ATOM      7  C   UNL d   1      59.951  -8.916  36.330  0.00  0.00     0.119 C 
BRANCH   7   8
ATOM      8  S   UNL d   1      59.558  -9.342  35.741  0.00  0.00     0.303 S 
ATOM      9  O   UNL d   1      58.862  -9.428  36.285  0.00  0.00    -0.197 OA
ATOM     10  O   UNL d   1      60.236  -9.289  35.139  0.00  0.00    -0.197 OA
ATOM     11  N   UNL d   1      59.169  -9.750  35.192  0.00  0.00    -0.043 N 
ENDBRANCH   7   8
ENDBRANCH   1   7
TORSDOF 2
ENDMDL
MODEL 5
REMARK VINA RESULT:      -3.7      2.352      2.611
REMARK  2 active torsions:
REMARK  status: ('A' for Active; 'I' for Inactive)
REMARK    1  A    between atoms: C_4  and  S_1 
REMARK    2  A    between atoms: C_6  and  C_4 
ROOT
ATOM      1  C   UNL d   1      56.325   0.138  32.325  0.00  0.00     0.013 A 
ATOM      2  C   UNL d   1      55.870   0.420  32.955  0.00  0.00     0.001 A 
ATOM      3  C   UNL d   1      56.403  -0.665  32.195  0.00  0.00     0.001 A 
ATOM      4  C   UNL d   1      56.027  -1.198  32.692  0.00  0.00     0.000 A 
ATOM      5  C   UNL d   1      55.492  -0.113  33.455  0.00  0.00     0.000 A 
ATOM      6  C   UNL d   1      55.568  -0.925  33.328  0.00  0.00     0.000 A 
ENDROOT
BRANCH   1   7
ATOM      7  C   UNL d   1      56.703   0.676  31.825  0.00  0.00     0.119 C 
BRANCH   7   8
ATOM      8  S   UNL d   1      57.436   0.490  31.494  0.00  0.00     0.303 S 
ATOM      9  O   UNL d   1      57.027   0.287  30.733  0.00  0.00    -0.197 OA
ATOM     10  O   UNL d   1      57.912   0.682  32.243  0.00  0.00    -0.197 OA
ATOM     11  N   UNL d   1      58.126   0.308  31.162  0.00  0.00    -0.043 N 
ENDBRANCH   7   8
ENDBRANCH   1   7
TORSDOF 2
ENDMDL
MODEL 6
REMARK VINA RESULT:      -3.5      9.220      9.454
REMARK  2 active torsions:
REMARK  status: ('A' for Active; 'I' for Inactive)
REMARK    1  A    between atoms: C_4  and  S_1 
REMARK    2  A    between atoms: C_6  and  C_4 
ROOT
ATOM      1  C   UNL d   1      60.304  -8.384  35.312  0.00  0.00     0.013 A 
ATOM      2  C   UNL d   1      61.032  -8.544  34.956  0.00  0.00     0.001 A 
ATOM      3  C   UNL d   1      59.611  -8.677  34.992  0.00  0.00     0.001 A 
ATOM      4  C   UNL d   1      59.636  -9.132  34.310  0.00  0.00     0.000 A 
ATOM      5  C   UNL d   1      61.060  -9.001  34.272  0.00  0.00     0.000 A 
ATOM      6  C   UNL d   1      60.362  -9.298  33.944  0.00  0.00     0.000 A 
ENDROOT
BRANCH   1   7
ATOM      7  C   UNL d   1      60.280  -7.925  35.998  0.00  0.00     0.119 C 
BRANCH   7   8
ATOM      8  S   UNL d   1      59.952  -7.168  35.979  0.00  0.00     0.303 S 
ATOM      9  O   UNL d   1      59.205  -7.496  36.330  0.00  0.00    -0.197 OA
ATOM     10  O   UNL d   1      60.686  -6.772  35.620  0.00  0.00    -0.197 OA
ATOM     11  N   UNL d   1      59.622  -6.453  35.969  0.00  0.00    -0.043 N 
ENDBRANCH   7   8
ENDBRANCH   1   7
TORSDOF 2
ENDMDL
