MODEL 1
REMARK VINA RESULT:      12.8      0.000      0.000
REMARK  3 active torsions:
REMARK  status: ('A' for Active; 'I' for Inactive)
REMARK    1  A    between atoms: C_7  and  C_3 
REMARK    2  A    between atoms: N_5  and  C_8 
REMARK    3  A    between atoms: C_13  and  C_7 
ROOT
ATOM      1  C   UNL d   1      14.531  12.285  -1.137  0.00  0.00     0.127 A 
ATOM      2  C   UNL d   1      13.694  11.954  -2.269  0.00  0.00     0.002 A 
ATOM      3  C   UNL d   1      14.444  12.214  -1.955  0.00  0.00     0.024 A 
ATOM      4  C   UNL d   1      13.912  12.111  -0.638  0.00  0.00     0.024 A 
ATOM      5  C   UNL d   1      13.176  11.854  -0.962  0.00  0.00     0.002 A 
ATOM      6  C   UNL d   1      13.088  11.782  -1.784  0.00  0.00     0.000 A 
ENDROOT
BRANCH   2   7
ATOM      7  C   UNL d   1      13.617  11.886  -3.085  0.00  0.00     0.011 C 
BRANCH   7   8
ATOM      8  C   UNL d   1      13.405  12.568  -3.525  0.00  0.00     0.092 A 
ATOM      9  C   UNL d   1      13.122  12.500  -4.248  0.00  0.00     0.288 A 
ATOM     10  N   UNL d   1      12.969  13.260  -4.529  0.00  0.00    -0.163 NA
ATOM     11  O   UNL d   1      12.994  11.779  -4.668  0.00  0.00    -0.265 OA
ATOM     12  C   UNL d   1      13.171  13.787  -3.948  0.00  0.00     0.313 A 
ATOM     13  S   UNL d   1      13.445  13.385  -3.312  0.00  0.00    -0.021 SA
ATOM     14  O   UNL d   1      13.111  14.631  -3.987  0.00  0.00    -0.258 OA
ENDBRANCH   7   8
ENDBRANCH   2   7
BRANCH   1  15
ATOM     15  N   UNL d   1      15.243  12.533  -0.816  0.00  0.00    -0.114 N 
ATOM     16  O   UNL d   1      15.267  13.180  -0.304  0.00  0.00    -0.532 OA
ATOM     17  O   UNL d   1      15.930  12.139  -1.003  0.00  0.00    -0.532 OA
ENDBRANCH   1  15
TORSDOF 3
ENDMDL
