MODEL 1
REMARK VINA RESULT:      -6.2      0.000      0.000
REMARK  5 active torsions:
REMARK  status: ('A' for Active; 'I' for Inactive)
REMARK    1  A    between atoms: C_11  and  N_4 
REMARK    2  A    between atoms: C_12  and  N_10 
REMARK    3  A    between atoms: C_14  and  C_11 
REMARK    4  A    between atoms: O_26  and  C_13 
REMARK    5  A    between atoms: O_28  and  C_24 
ROOT
ATOM      1  C   UNL d   1      49.053  34.835  52.208  0.00  0.00     0.191 A 
ATOM      2  C   UNL d   1      49.293  35.115  52.947  0.00  0.00     0.173 A 
ATOM      3  C   UNL d   1      47.899  35.611  52.734  0.00  0.00     0.722 A 
ATOM      4  N   UNL d   1      50.550  34.481  52.779  0.00  0.00    -0.224 N 
ATOM      5  N   UNL d   1      48.293  35.091  52.064  0.00  0.00    -0.042 NA
ATOM      6  N   UNL d   1      48.677  35.540  53.247  0.00  0.00    -0.132 N 
ATOM      7  N   UNL d   1      49.552  34.376  51.743  0.00  0.00    -0.240 N 
ATOM      8  C   UNL d   1      50.310  34.201  52.040  0.00  0.00     0.343 A 
ATOM      9  C   UNL d   1      50.032  34.937  53.221  0.00  0.00     0.288 A 
ATOM     10  N   UNL d   1      47.287  36.040  53.047  0.00  0.00    -0.138 N 
ATOM     11  C   UNL d   1      48.681  35.912  53.966  0.00  0.00     0.100 A 
ATOM     12  C   UNL d   1      47.324  36.410  53.788  0.00  0.00     0.100 A 
ATOM     13  O   UNL d   1      50.821  33.735  51.573  0.00  0.00    -0.245 OA
ATOM     14  O   UNL d   1      50.272  35.217  53.960  0.00  0.00    -0.265 OA
ATOM     15  C   UNL d   1      48.038  36.344  54.258  0.00  0.00     0.036 A 
ATOM     16  C   UNL d   1      49.312  34.096  51.004  0.00  0.00     0.105 C 
ATOM     17  C   UNL d   1      48.087  36.709  55.001  0.00  0.00     0.003 C 
ENDROOT
BRANCH  10  18
ATOM     18  C   UNL d   1      46.603  36.098  52.585  0.00  0.00     0.104 A 
ATOM     19  C   UNL d   1      45.886  35.811  52.876  0.00  0.00     0.113 A 
ATOM     20  C   UNL d   1      45.198  35.850  52.455  0.00  0.00     0.050 A 
ATOM     21  C   UNL d   1      45.200  36.192  51.693  0.00  0.00     0.096 A 
ATOM     22  C   UNL d   1      45.926  36.488  51.388  0.00  0.00     0.026 A 
ATOM     23  C   UNL d   1      46.608  36.435  51.836  0.00  0.00     0.022 A 
BRANCH  19  24
ATOM     24  O   UNL d   1      45.868  35.470  53.627  0.00  0.00    -0.327 OA
ATOM     25  C   UNL d   1      45.153  35.264  53.953  0.00  0.00     0.181 C 
ENDBRANCH  19  24
BRANCH  21  26
ATOM     26  O   UNL d   1      44.502  36.246  51.233  0.00  0.00    -0.328 OA
ATOM     27  C   UNL d   1      44.326  35.662  50.676  0.00  0.00     0.181 C 
ENDBRANCH  21  26
ENDBRANCH  10  18
BRANCH   4  28
ATOM     28  C   UNL d   1      51.283  34.111  52.681  0.00  0.00     0.090 C 
BRANCH  28  29
ATOM     29  C   UNL d   1      51.899  34.271  53.208  0.00  0.00     0.045 A 
ATOM     30  C   UNL d   1      52.203  33.665  53.666  0.00  0.00     0.141 A 
ATOM     31  F   UNL d   1      51.896  32.902  53.602  0.00  0.00    -0.204 F 
ATOM     32  C   UNL d   1      52.816  33.821  54.191  0.00  0.00     0.030 A 
ATOM     33  C   UNL d   1      53.124  34.581  54.257  0.00  0.00     0.002 A 
ATOM     34  C   UNL d   1      52.812  35.188  53.791  0.00  0.00     0.000 A 
ATOM     35  C   UNL d   1      52.198  35.031  53.266  0.00  0.00     0.004 A 
ENDBRANCH  28  29
ENDBRANCH   4  28
TORSDOF 5
ENDMDL
MODEL 2
REMARK VINA RESULT:      -4.8      1.577      5.769
REMARK  5 active torsions:
REMARK  status: ('A' for Active; 'I' for Inactive)
REMARK    1  A    between atoms: C_11  and  N_4 
REMARK    2  A    between atoms: C_12  and  N_10 
REMARK    3  A    between atoms: C_14  and  C_11 
REMARK    4  A    between atoms: O_26  and  C_13 
REMARK    5  A    between atoms: O_28  and  C_24 
ROOT
ATOM      1  C   UNL d   1      48.711  35.643  53.585  0.00  0.00     0.191 A 
ATOM      2  C   UNL d   1      48.412  35.380  52.862  0.00  0.00     0.173 A 
ATOM      3  C   UNL d   1      49.823  34.891  52.943  0.00  0.00     0.722 A 
ATOM      4  N   UNL d   1      47.169  35.997  53.151  0.00  0.00    -0.224 N 
ATOM      5  N   UNL d   1      49.483  35.390  53.657  0.00  0.00    -0.042 NA
ATOM      6  N   UNL d   1      49.004  34.968  52.499  0.00  0.00    -0.132 N 
ATOM      7  N   UNL d   1      48.251  36.085  54.102  0.00  0.00    -0.240 N 
ATOM      8  C   UNL d   1      47.468  36.261  53.874  0.00  0.00     0.343 A 
ATOM      9  C   UNL d   1      47.652  35.558  52.656  0.00  0.00     0.288 A 
ATOM     10  N   UNL d   1      50.409  34.476  52.569  0.00  0.00    -0.138 N 
ATOM     11  C   UNL d   1      48.942  34.614  51.774  0.00  0.00     0.100 A 
ATOM     12  C   UNL d   1      50.312  34.125  51.824  0.00  0.00     0.100 A 
ATOM     13  O   UNL d   1      46.995  36.709  54.394  0.00  0.00    -0.245 OA
ATOM     14  O   UNL d   1      47.352  35.294  51.931  0.00  0.00    -0.265 OA
ATOM     15  C   UNL d   1      49.561  34.196  51.417  0.00  0.00     0.036 A 
ATOM     16  C   UNL d   1      48.550  36.349  54.826  0.00  0.00     0.105 C 
ATOM     17  C   UNL d   1      49.452  33.850  50.672  0.00  0.00     0.003 C 
ENDROOT
BRANCH  10  18
ATOM     18  C   UNL d   1      51.130  34.413  52.969  0.00  0.00     0.104 A 
ATOM     19  C   UNL d   1      51.345  33.697  53.318  0.00  0.00     0.113 A 
ATOM     20  C   UNL d   1      52.041  33.598  53.717  0.00  0.00     0.050 A 
ATOM     21  C   UNL d   1      52.571  34.240  53.785  0.00  0.00     0.096 A 
ATOM     22  C   UNL d   1      52.361  34.974  53.433  0.00  0.00     0.026 A 
ATOM     23  C   UNL d   1      51.650  35.046  53.035  0.00  0.00     0.022 A 
BRANCH  19  24
ATOM     24  O   UNL d   1      50.831  33.054  53.259  0.00  0.00    -0.327 OA
ATOM     25  C   UNL d   1      51.081  32.323  53.508  0.00  0.00     0.181 C 
ENDBRANCH  19  24
BRANCH  21  26
ATOM     26  O   UNL d   1      53.299  34.166  54.193  0.00  0.00    -0.328 OA
ATOM     27  C   UNL d   1      53.383  34.478  54.953  0.00  0.00     0.181 C 
ENDBRANCH  21  26
ENDBRANCH  10  18
BRANCH   4  28
ATOM     28  C   UNL d   1      46.445  36.357  53.320  0.00  0.00     0.090 C 
BRANCH  28  29
ATOM     29  C   UNL d   1      45.820  36.300  52.781  0.00  0.00     0.045 A 
ATOM     30  C   UNL d   1      45.169  35.841  52.969  0.00  0.00     0.141 A 
ATOM     31  F   UNL d   1      45.137  35.440  53.688  0.00  0.00    -0.204 F 
ATOM     32  C   UNL d   1      44.547  35.783  52.436  0.00  0.00     0.030 A 
ATOM     33  C   UNL d   1      44.575  36.183  51.717  0.00  0.00     0.002 A 
ATOM     34  C   UNL d   1      45.236  36.644  51.534  0.00  0.00     0.000 A 
ATOM     35  C   UNL d   1      45.860  36.702  52.069  0.00  0.00     0.004 A 
ENDBRANCH  28  29
ENDBRANCH   4  28
TORSDOF 5
ENDMDL
