MODEL 1
REMARK VINA RESULT:      92.2      0.000      0.000
REMARK  5 active torsions:
REMARK  status: ('A' for Active; 'I' for Inactive)
REMARK    1  A    between atoms: C_11  and  N_5 
REMARK    2  A    between atoms: C_15  and  C_8 
REMARK    3  A    between atoms: C_12  and  C_11 
REMARK    4  A    between atoms: O_20  and  C_15 
REMARK    5  A    between atoms: C_23  and  O_20 
ROOT
ATOM      1  C   UNL d   1     -54.713-100.690 -41.727  0.00  0.00     0.130 A 
ATOM      2  C   UNL d   1     -54.713-101.480 -41.949  0.00  0.00     0.157 A 
ATOM      3  C   UNL d   1     -54.714-100.097 -42.306  0.00  0.00     0.272 A 
ATOM      4  N   UNL d   1     -54.713-101.683 -42.745  0.00  0.00    -0.208 NA
ATOM      5  N   UNL d   1     -54.714-100.299 -43.101  0.00  0.00    -0.254 N 
ATOM      6  C   UNL d   1     -54.713-100.482 -40.926  0.00  0.00     0.204 A 
ATOM      7  N   UNL d   1     -54.713-102.076 -41.368  0.00  0.00    -0.289 N 
ATOM      8  C   UNL d   1     -54.713-101.090 -43.323  0.00  0.00     0.177 A 
ATOM      9  C   UNL d   1     -54.713-101.077 -40.345  0.00  0.00     0.055 A 
ATOM     10  C   UNL d   1     -54.713-101.874 -40.572  0.00  0.00     0.069 A 
ATOM     11  O   UNL d   1     -54.714 -99.289 -42.084  0.00  0.00    -0.266 OA
ATOM     12  O   UNL d   1     -54.713 -99.685 -40.704  0.00  0.00    -0.286 OA
ATOM     13  C   UNL d   1     -54.712-102.872 -41.590  0.00  0.00     0.101 C 
ATOM     14  C   UNL d   1     -54.713-100.872 -39.546  0.00  0.00     0.005 A 
ATOM     15  C   UNL d   1     -54.712-102.463 -39.997  0.00  0.00     0.018 A 
ATOM     16  C   UNL d   1     -54.713-101.461 -38.971  0.00  0.00     0.000 A 
ATOM     17  C   UNL d   1     -54.712-102.261 -39.201  0.00  0.00     0.002 A 
ENDROOT
BRANCH   8  18
ATOM     18  C   UNL d   1     -54.713-101.294 -44.134  0.00  0.00     0.160 C 
BRANCH  18  19
ATOM     19  O   UNL d   1     -54.819-102.081 -44.360  0.00  0.00    -0.302 OA
BRANCH  19  20
ATOM     20  C   UNL d   1     -55.108-102.255 -45.111  0.00  0.00     0.100 A 
ATOM     21  C   UNL d   1     -54.712-101.973 -45.774  0.00  0.00     0.025 A 
ATOM     22  C   UNL d   1     -54.998-102.144 -46.533  0.00  0.00     0.002 A 
ATOM     23  C   UNL d   1     -55.680-102.597 -46.613  0.00  0.00     0.000 A 
ATOM     24  C   UNL d   1     -56.075-102.879 -45.947  0.00  0.00     0.002 A 
ATOM     25  C   UNL d   1     -55.790-102.708 -45.196  0.00  0.00     0.025 A 
ENDBRANCH  19  20
ENDBRANCH  18  19
ENDBRANCH   8  18
BRANCH   5  26
ATOM     26  C   UNL d   1     -54.714 -99.710 -43.676  0.00  0.00     0.109 C 
BRANCH  26  27
ATOM     27  C   UNL d   1     -55.401 -99.544 -44.096  0.00  0.00     0.118 A 
ATOM     28  O   UNL d   1     -55.629 -99.703 -44.872  0.00  0.00    -0.304 OA
ATOM     29  C   UNL d   1     -56.386 -99.400 -44.977  0.00  0.00     0.123 A 
ATOM     30  C   UNL d   1     -56.636 -99.055 -44.283  0.00  0.00     0.029 A 
ATOM     31  C   UNL d   1     -56.025 -99.142 -43.728  0.00  0.00     0.028 A 
ENDBRANCH  26  27
ENDBRANCH   5  26
TORSDOF 5
ENDMDL
MODEL 2
REMARK VINA RESULT:      93.9      2.803      5.806
REMARK  5 active torsions:
REMARK  status: ('A' for Active; 'I' for Inactive)
REMARK    1  A    between atoms: C_11  and  N_5 
REMARK    2  A    between atoms: C_15  and  C_8 
REMARK    3  A    between atoms: C_12  and  C_11 
REMARK    4  A    between atoms: O_20  and  C_15 
REMARK    5  A    between atoms: C_23  and  O_20 
ROOT
ATOM      1  C   UNL d   1     -58.228 -98.756 -45.691  0.00  0.00     0.130 A 
ATOM      2  C   UNL d   1     -57.573 -98.756 -46.187  0.00  0.00     0.157 A 
ATOM      3  C   UNL d   1     -58.126 -98.755 -44.870  0.00  0.00     0.272 A 
ATOM      4  N   UNL d   1     -56.816 -98.756 -45.867  0.00  0.00    -0.208 NA
ATOM      5  N   UNL d   1     -57.369 -98.756 -44.549  0.00  0.00    -0.254 N 
ATOM      6  C   UNL d   1     -58.992 -98.755 -46.011  0.00  0.00     0.204 A 
ATOM      7  N   UNL d   1     -57.675 -98.756 -47.013  0.00  0.00    -0.289 N 
ATOM      8  C   UNL d   1     -56.715 -98.756 -45.045  0.00  0.00     0.177 A 
ATOM      9  C   UNL d   1     -59.094 -98.756 -46.836  0.00  0.00     0.055 A 
ATOM     10  C   UNL d   1     -58.431 -98.756 -47.333  0.00  0.00     0.069 A 
ATOM     11  O   UNL d   1     -58.791 -98.755 -44.360  0.00  0.00    -0.266 OA
ATOM     12  O   UNL d   1     -59.650 -98.755 -45.510  0.00  0.00    -0.286 OA
ATOM     13  C   UNL d   1     -57.017 -98.756 -47.512  0.00  0.00     0.101 C 
ATOM     14  C   UNL d   1     -59.854 -98.756 -47.156  0.00  0.00     0.005 A 
ATOM     15  C   UNL d   1     -58.533 -98.756 -48.150  0.00  0.00     0.018 A 
ATOM     16  C   UNL d   1     -59.956 -98.756 -47.973  0.00  0.00     0.000 A 
ATOM     17  C   UNL d   1     -59.289 -98.756 -48.471  0.00  0.00     0.002 A 
ENDROOT
BRANCH   8  18
ATOM     18  C   UNL d   1     -55.945 -98.756 -44.717  0.00  0.00     0.160 C 
BRANCH  18  19
ATOM     19  O   UNL d   1     -55.407 -99.344 -44.931  0.00  0.00    -0.302 OA
BRANCH  19  20
ATOM     20  C   UNL d   1     -55.187 -99.916 -44.381  0.00  0.00     0.100 A 
ATOM     21  C   UNL d   1     -55.160 -99.722 -43.583  0.00  0.00     0.025 A 
ATOM     22  C   UNL d   1     -54.940-100.293 -43.024  0.00  0.00     0.002 A 
ATOM     23  C   UNL d   1     -54.750-101.053 -43.278  0.00  0.00     0.000 A 
ATOM     24  C   UNL d   1     -54.779-101.245 -44.080  0.00  0.00     0.002 A 
ATOM     25  C   UNL d   1     -54.997-100.677 -44.631  0.00  0.00     0.025 A 
ENDBRANCH  19  20
ENDBRANCH  18  19
ENDBRANCH   8  18
BRANCH   5  26
ATOM     26  C   UNL d   1     -57.268 -98.755 -43.733  0.00  0.00     0.109 C 
BRANCH  26  27
ATOM     27  C   UNL d   1     -57.916 -98.851 -43.237  0.00  0.00     0.118 A 
ATOM     28  O   UNL d   1     -58.012 -98.756 -42.424  0.00  0.00    -0.304 OA
ATOM     29  C   UNL d   1     -58.794 -98.933 -42.241  0.00  0.00     0.123 A 
ATOM     30  C   UNL d   1     -59.190 -99.137 -42.924  0.00  0.00     0.029 A 
ATOM     31  C   UNL d   1     -58.647 -99.087 -43.549  0.00  0.00     0.028 A 
ENDBRANCH  26  27
ENDBRANCH   5  26
TORSDOF 5
ENDMDL
