MODEL 1
REMARK VINA RESULT:      24.5      0.000      0.000
REMARK  4 active torsions:
REMARK  status: ('A' for Active; 'I' for Inactive)
REMARK    1  A    between atoms: C_5  and  N_1 
REMARK    2  A    between atoms: C_7  and  C_5 
REMARK    3  A    between atoms: O_10  and  C_9 
REMARK    4  A    between atoms: C_15  and  O_10 
ROOT
ATOM      1  N   UNL d   1      13.670  12.777  -2.436  0.00  0.00    -0.268 N 
ATOM      2  C   UNL d   1      13.241  12.095  -2.229  0.00  0.00     0.296 A 
ATOM      3  S   UNL d   1      12.905  11.793  -2.919  0.00  0.00    -0.025 SA
ATOM      4  C   UNL d   1      13.595  12.889  -3.252  0.00  0.00     0.073 A 
ATOM      5  C   UNL d   1      13.121  12.278  -3.548  0.00  0.00     0.050 A 
ATOM      6  O   UNL d   1      13.166  11.780  -1.471  0.00  0.00    -0.259 OA
ATOM      7  C   UNL d   1      13.896  13.462  -3.755  0.00  0.00     0.018 A 
ATOM      8  C   UNL d   1      12.951  12.251  -4.364  0.00  0.00     0.008 A 
ATOM      9  C   UNL d   1      13.725  13.433  -4.561  0.00  0.00     0.002 A 
ATOM     10  C   UNL d   1      13.257  12.833  -4.863  0.00  0.00     0.001 A 
ENDROOT
BRANCH   1  11
ATOM     11  C   UNL d   1      14.096  13.257  -1.920  0.00  0.00     0.086 C 
BRANCH  11  12
ATOM     12  C   UNL d   1      14.588  12.911  -1.351  0.00  0.00     0.040 A 
ATOM     13  C   UNL d   1      14.850  13.367  -0.722  0.00  0.00     0.102 A 
ATOM     14  C   UNL d   1      15.336  13.027  -0.159  0.00  0.00     0.025 A 
ATOM     15  C   UNL d   1      15.563  12.228  -0.222  0.00  0.00     0.002 A 
ATOM     16  C   UNL d   1      15.293  11.780  -0.859  0.00  0.00     0.000 A 
ATOM     17  C   UNL d   1      14.801  12.126  -1.427  0.00  0.00     0.004 A 
BRANCH  13  18
ATOM     18  O   UNL d   1      14.610  14.152  -0.686  0.00  0.00    -0.305 OA
BRANCH  18  19
ATOM     19  C   UNL d   1      14.948  14.664  -0.131  0.00  0.00     0.123 C 
ATOM     20  C   UNL d   1      15.124  15.444  -0.346  0.00  0.00     0.029 C 
ENDBRANCH  18  19
ENDBRANCH  13  18
ENDBRANCH  11  12
ENDBRANCH   1  11
TORSDOF 4
ENDMDL
MODEL 2
REMARK VINA RESULT:      25.4      1.532      4.011
REMARK  4 active torsions:
REMARK  status: ('A' for Active; 'I' for Inactive)
REMARK    1  A    between atoms: C_5  and  N_1 
REMARK    2  A    between atoms: C_7  and  C_5 
REMARK    3  A    between atoms: O_10  and  C_9 
REMARK    4  A    between atoms: C_15  and  O_10 
ROOT
ATOM      1  N   UNL d   1      14.135  12.607  -2.387  0.00  0.00    -0.268 N 
ATOM      2  C   UNL d   1      14.821  13.071  -2.316  0.00  0.00     0.296 A 
ATOM      3  S   UNL d   1      15.004  13.125  -1.513  0.00  0.00    -0.025 SA
ATOM      4  C   UNL d   1      13.900  12.378  -1.627  0.00  0.00     0.073 A 
ATOM      5  C   UNL d   1      14.441  12.701  -1.089  0.00  0.00     0.050 A 
ATOM      6  O   UNL d   1      15.241  13.415  -2.936  0.00  0.00    -0.259 OA
ATOM      7  C   UNL d   1      13.272  11.923  -1.362  0.00  0.00     0.018 A 
ATOM      8  C   UNL d   1      14.339  12.558  -0.273  0.00  0.00     0.008 A 
ATOM      9  C   UNL d   1      13.175  11.784  -0.555  0.00  0.00     0.002 A 
ATOM     10  C   UNL d   1      13.704  12.099  -0.015  0.00  0.00     0.001 A 
ENDROOT
BRANCH   1  11
ATOM     11  C   UNL d   1      13.754  12.409  -3.089  0.00  0.00     0.086 C 
BRANCH  11  12
ATOM     12  C   UNL d   1      13.439  13.007  -3.566  0.00  0.00     0.040 A 
ATOM     13  C   UNL d   1      13.166  12.816  -4.316  0.00  0.00     0.102 A 
ATOM     14  C   UNL d   1      12.854  13.405  -4.789  0.00  0.00     0.025 A 
ATOM     15  C   UNL d   1      12.812  14.191  -4.515  0.00  0.00     0.002 A 
ATOM     16  C   UNL d   1      13.089  14.370  -3.760  0.00  0.00     0.000 A 
ATOM     17  C   UNL d   1      13.404  13.772  -3.283  0.00  0.00     0.004 A 
BRANCH  13  18
ATOM     18  O   UNL d   1      13.221  12.032  -4.559  0.00  0.00    -0.305 OA
BRANCH  18  19
ATOM     19  C   UNL d   1      12.814  11.779  -5.234  0.00  0.00     0.123 C 
ATOM     20  C   UNL d   1      13.191  11.797  -5.971  0.00  0.00     0.029 C 
ENDBRANCH  18  19
ENDBRANCH  13  18
ENDBRANCH  11  12
ENDBRANCH   1  11
TORSDOF 4
ENDMDL
MODEL 3
REMARK VINA RESULT:      25.6      1.444      1.956
REMARK  4 active torsions:
REMARK  status: ('A' for Active; 'I' for Inactive)
REMARK    1  A    between atoms: C_5  and  N_1 
REMARK    2  A    between atoms: C_7  and  C_5 
REMARK    3  A    between atoms: O_10  and  C_9 
REMARK    4  A    between atoms: C_15  and  O_10 
ROOT
ATOM      1  N   UNL d   1      13.846  12.445  -2.895  0.00  0.00    -0.268 N 
ATOM      2  C   UNL d   1      14.063  13.225  -2.708  0.00  0.00     0.296 A 
ATOM      3  S   UNL d   1      13.819  13.709  -3.330  0.00  0.00    -0.025 SA
ATOM      4  C   UNL d   1      13.470  12.454  -3.632  0.00  0.00     0.073 A 
ATOM      5  C   UNL d   1      13.455  13.238  -3.898  0.00  0.00     0.050 A 
ATOM      6  O   UNL d   1      14.452  13.470  -2.024  0.00  0.00    -0.259 OA
ATOM      7  C   UNL d   1      13.143  11.855  -4.086  0.00  0.00     0.018 A 
ATOM      8  C   UNL d   1      13.105  13.413  -4.634  0.00  0.00     0.008 A 
ATOM      9  C   UNL d   1      12.798  12.031  -4.814  0.00  0.00     0.002 A 
ATOM     10  C   UNL d   1      12.778  12.804  -5.086  0.00  0.00     0.001 A 
ENDROOT
BRANCH   1  11
ATOM     11  C   UNL d   1      13.981  11.779  -2.430  0.00  0.00     0.086 C 
BRANCH  11  12
ATOM     12  C   UNL d   1      13.786  11.796  -1.626  0.00  0.00     0.040 A 
ATOM     13  C   UNL d   1      14.390  11.814  -1.071  0.00  0.00     0.102 A 
ATOM     14  C   UNL d   1      14.200  11.831  -0.276  0.00  0.00     0.025 A 
ATOM     15  C   UNL d   1      13.404  11.829  -0.030  0.00  0.00     0.002 A 
ATOM     16  C   UNL d   1      12.806  11.810  -0.598  0.00  0.00     0.000 A 
ATOM     17  C   UNL d   1      13.001  11.794  -1.402  0.00  0.00     0.004 A 
BRANCH  13  18
ATOM     18  O   UNL d   1      15.166  11.815  -1.343  0.00  0.00    -0.305 OA
BRANCH  18  19
ATOM     19  C   UNL d   1      15.792  11.892  -0.808  0.00  0.00     0.123 C 
ATOM     20  C   UNL d   1      16.573  11.833  -1.079  0.00  0.00     0.029 C 
ENDBRANCH  18  19
ENDBRANCH  13  18
ENDBRANCH  11  12
ENDBRANCH   1  11
TORSDOF 4
ENDMDL
MODEL 4
REMARK VINA RESULT:      27.0      1.626      3.491
REMARK  4 active torsions:
REMARK  status: ('A' for Active; 'I' for Inactive)
REMARK    1  A    between atoms: C_5  and  N_1 
REMARK    2  A    between atoms: C_7  and  C_5 
REMARK    3  A    between atoms: O_10  and  C_9 
REMARK    4  A    between atoms: C_15  and  O_10 
ROOT
ATOM      1  N   UNL d   1      15.146  13.854  -1.043  0.00  0.00    -0.268 N 
ATOM      2  C   UNL d   1      15.631  13.772  -0.373  0.00  0.00     0.296 A 
ATOM      3  S   UNL d   1      15.800  14.529  -0.092  0.00  0.00    -0.025 SA
ATOM      4  C   UNL d   1      15.020  14.662  -1.170  0.00  0.00     0.073 A 
ATOM      5  C   UNL d   1      15.426  15.077  -0.580  0.00  0.00     0.050 A 
ATOM      6  O   UNL d   1      15.895  13.062  -0.048  0.00  0.00    -0.259 OA
ATOM      7  C   UNL d   1      14.591  15.065  -1.741  0.00  0.00     0.018 A 
ATOM      8  C   UNL d   1      15.396  15.910  -0.572  0.00  0.00     0.008 A 
ATOM      9  C   UNL d   1      14.564  15.889  -1.731  0.00  0.00     0.002 A 
ATOM     10  C   UNL d   1      14.962  16.308  -1.151  0.00  0.00     0.001 A 
ENDROOT
BRANCH   1  11
ATOM     11  C   UNL d   1      14.843  13.240  -1.500  0.00  0.00     0.086 C 
BRANCH  11  12
ATOM     12  C   UNL d   1      14.253  12.751  -1.189  0.00  0.00     0.040 A 
ATOM     13  C   UNL d   1      13.801  12.297  -1.701  0.00  0.00     0.102 A 
ATOM     14  C   UNL d   1      13.218  11.813  -1.395  0.00  0.00     0.025 A 
ATOM     15  C   UNL d   1      13.081  11.779  -0.575  0.00  0.00     0.002 A 
ATOM     16  C   UNL d   1      13.542  12.240  -0.070  0.00  0.00     0.000 A 
ATOM     17  C   UNL d   1      14.132  12.730  -0.381  0.00  0.00     0.004 A 
BRANCH  13  18
ATOM     18  O   UNL d   1      13.959  12.350  -2.507  0.00  0.00    -0.305 OA
BRANCH  18  19
ATOM     19  C   UNL d   1      13.653  11.784  -3.026  0.00  0.00     0.123 C 
ATOM     20  C   UNL d   1      13.378  12.018  -3.772  0.00  0.00     0.029 C 
ENDBRANCH  18  19
ENDBRANCH  13  18
ENDBRANCH  11  12
ENDBRANCH   1  11
TORSDOF 4
ENDMDL
