MODEL 1
REMARK VINA RESULT:      86.1      0.000      0.000
REMARK  8 active torsions:
REMARK  status: ('A' for Active; 'I' for Inactive)
REMARK    1  A    between atoms: C_11  and  N_1 
REMARK    2  A    between atoms: S_10  and  C_2 
REMARK    3  A    between atoms: N_8  and  C_9 
REMARK    4  A    between atoms: C_18  and  S_10 
REMARK    5  A    between atoms: C_19  and  C_11 
REMARK    6  A    between atoms: C_13  and  C_18 
REMARK    7  A    between atoms: O_20  and  C_13 
REMARK    8  A    between atoms: C_25  and  O_20 
ROOT
ATOM      1  N   UNL d   1     -48.672  28.718  34.191  0.00  0.00    -0.253 N 
ATOM      2  C   UNL d   1     -49.133  29.339  33.932  0.00  0.00     0.182 A 
ATOM      3  C   UNL d   1     -48.969  27.938  34.170  0.00  0.00     0.268 A 
ATOM      4  C   UNL d   1     -49.751  27.802  33.877  0.00  0.00     0.076 A 
ATOM      5  N   UNL d   1     -49.915  29.202  33.639  0.00  0.00    -0.222 NA
ATOM      6  C   UNL d   1     -50.216  28.436  33.614  0.00  0.00     0.088 A 
ATOM      7  C   UNL d   1     -50.043  27.018  33.857  0.00  0.00     0.024 A 
ATOM      8  C   UNL d   1     -50.807  26.889  33.571  0.00  0.00     0.065 A 
ATOM      9  O   UNL d   1     -48.506  27.305  34.431  0.00  0.00    -0.267 OA
ATOM     10  C   UNL d   1     -50.974  28.287  33.333  0.00  0.00     0.021 A 
ATOM     11  C   UNL d   1     -51.276  27.520  33.307  0.00  0.00     0.019 A 
ENDROOT
BRANCH   1  12
ATOM     12  C   UNL d   1     -47.912  28.851  34.476  0.00  0.00     0.085 C 
BRANCH  12  13
ATOM     13  C   UNL d   1     -47.800  29.095  35.255  0.00  0.00     0.018 A 
ATOM     14  C   UNL d   1     -47.257  29.684  35.423  0.00  0.00     0.002 A 
ATOM     15  C   UNL d   1     -47.151  29.923  36.208  0.00  0.00     0.000 A 
ATOM     16  C   UNL d   1     -47.589  29.571  36.808  0.00  0.00     0.000 A 
ATOM     17  C   UNL d   1     -48.133  28.982  36.637  0.00  0.00     0.000 A 
ATOM     18  C   UNL d   1     -48.238  28.744  35.855  0.00  0.00     0.002 A 
ENDBRANCH  12  13
ENDBRANCH   1  12
BRANCH   2  19
ATOM     19  S   UNL d   1     -48.843  30.104  33.952  0.00  0.00    -0.044 SA
BRANCH  19  20
ATOM     20  C   UNL d   1     -49.325  30.734  33.742  0.00  0.00     0.107 C 
BRANCH  20  21
ATOM     21  C   UNL d   1     -49.151  31.504  34.001  0.00  0.00     0.307 C 
ATOM     22  O   UNL d   1     -49.504  31.807  34.677  0.00  0.00    -0.258 OA
BRANCH  21  23
ATOM     23  O   UNL d   1     -48.623  31.961  33.575  0.00  0.00    -0.271 OA
BRANCH  23  24
ATOM     24  C   UNL d   1     -48.112  32.472  33.969  0.00  0.00     0.126 C 
ATOM     25  C   UNL d   1     -47.608  32.973  33.539  0.00  0.00     0.029 C 
ENDBRANCH  23  24
ENDBRANCH  21  23
ENDBRANCH  20  21
ENDBRANCH  19  20
ENDBRANCH   2  19
BRANCH   8  26
ATOM     26  N   UNL d   1     -51.105  26.122  33.547  0.00  0.00    -0.300 N 
ATOM     27  C   UNL d   1     -51.886  25.988  33.329  0.00  0.00     0.107 A 
ATOM     28  C   UNL d   1     -52.184  25.215  33.306  0.00  0.00     0.142 A 
ATOM     29  O   UNL d   1     -51.697  24.583  33.502  0.00  0.00    -0.300 OA
ATOM     30  C   UNL d   1     -50.918  24.716  33.721  0.00  0.00     0.142 A 
ATOM     31  C   UNL d   1     -50.620  25.478  33.744  0.00  0.00     0.107 A 
ENDBRANCH   8  26
TORSDOF 8
ENDMDL
MODEL 2
REMARK VINA RESULT:      87.2      2.199      3.104
REMARK  8 active torsions:
REMARK  status: ('A' for Active; 'I' for Inactive)
REMARK    1  A    between atoms: C_11  and  N_1 
REMARK    2  A    between atoms: S_10  and  C_2 
REMARK    3  A    between atoms: N_8  and  C_9 
REMARK    4  A    between atoms: C_18  and  S_10 
REMARK    5  A    between atoms: C_19  and  C_11 
REMARK    6  A    between atoms: C_13  and  C_18 
REMARK    7  A    between atoms: O_20  and  C_13 
REMARK    8  A    between atoms: C_25  and  O_20 
ROOT
ATOM      1  N   UNL d   1     -50.367  27.119  35.648  0.00  0.00    -0.253 N 
ATOM      2  C   UNL d   1     -49.726  27.193  35.149  0.00  0.00     0.182 A 
ATOM      3  C   UNL d   1     -50.983  26.588  35.463  0.00  0.00     0.268 A 
ATOM      4  C   UNL d   1     -50.933  26.129  34.753  0.00  0.00     0.076 A 
ATOM      5  N   UNL d   1     -49.676  26.734  34.440  0.00  0.00    -0.222 NA
ATOM      6  C   UNL d   1     -50.280  26.208  34.249  0.00  0.00     0.088 A 
ATOM      7  C   UNL d   1     -51.554  25.598  34.572  0.00  0.00     0.024 A 
ATOM      8  C   UNL d   1     -51.502  25.153  33.878  0.00  0.00     0.065 A 
ATOM      9  O   UNL d   1     -51.635  26.509  35.964  0.00  0.00    -0.267 OA
ATOM     10  C   UNL d   1     -50.246  25.756  33.564  0.00  0.00     0.021 A 
ATOM     11  C   UNL d   1     -50.850  25.228  33.371  0.00  0.00     0.019 A 
ENDROOT
BRANCH   1  12
ATOM     12  C   UNL d   1     -50.415  27.565  36.338  0.00  0.00     0.085 C 
BRANCH  12  13
ATOM     13  C   UNL d   1     -50.617  27.203  37.050  0.00  0.00     0.018 A 
ATOM     14  C   UNL d   1     -51.373  27.293  37.351  0.00  0.00     0.002 A 
ATOM     15  C   UNL d   1     -51.568  26.926  38.066  0.00  0.00     0.000 A 
ATOM     16  C   UNL d   1     -51.007  26.477  38.466  0.00  0.00     0.000 A 
ATOM     17  C   UNL d   1     -50.251  26.389  38.161  0.00  0.00     0.000 A 
ATOM     18  C   UNL d   1     -50.056  26.754  37.449  0.00  0.00     0.002 A 
ENDBRANCH  12  13
ENDBRANCH   1  12
BRANCH   2  19
ATOM     19  S   UNL d   1     -49.120  27.714  35.331  0.00  0.00    -0.044 SA
BRANCH  19  20
ATOM     20  C   UNL d   1     -48.781  28.174  34.742  0.00  0.00     0.107 C 
BRANCH  20  21
ATOM     21  C   UNL d   1     -48.109  28.636  34.900  0.00  0.00     0.307 C 
ATOM     22  O   UNL d   1     -47.386  28.451  34.561  0.00  0.00    -0.258 OA
BRANCH  21  23
ATOM     23  O   UNL d   1     -48.175  29.280  35.400  0.00  0.00    -0.271 OA
BRANCH  23  24
ATOM     24  C   UNL d   1     -47.678  29.930  35.300  0.00  0.00     0.126 C 
ATOM     25  C   UNL d   1     -47.292  30.265  35.954  0.00  0.00     0.029 C 
ENDBRANCH  23  24
ENDBRANCH  21  23
ENDBRANCH  20  21
ENDBRANCH  19  20
ENDBRANCH   2  19
BRANCH   8  26
ATOM     26  N   UNL d   1     -52.107  24.627  33.690  0.00  0.00    -0.300 N 
ATOM     27  C   UNL d   1     -52.855  24.909  33.503  0.00  0.00     0.107 A 
ATOM     28  C   UNL d   1     -53.464  24.378  33.314  0.00  0.00     0.142 A 
ATOM     29  O   UNL d   1     -53.315  23.570  33.314  0.00  0.00    -0.300 OA
ATOM     30  C   UNL d   1     -52.568  23.288  33.501  0.00  0.00     0.142 A 
ATOM     31  C   UNL d   1     -51.966  23.810  33.688  0.00  0.00     0.107 A 
ENDBRANCH   8  26
TORSDOF 8
ENDMDL
MODEL 3
REMARK VINA RESULT:      88.5      3.069      4.382
REMARK  8 active torsions:
REMARK  status: ('A' for Active; 'I' for Inactive)
REMARK    1  A    between atoms: C_11  and  N_1 
REMARK    2  A    between atoms: S_10  and  C_2 
REMARK    3  A    between atoms: N_8  and  C_9 
REMARK    4  A    between atoms: C_18  and  S_10 
REMARK    5  A    between atoms: C_19  and  C_11 
REMARK    6  A    between atoms: C_13  and  C_18 
REMARK    7  A    between atoms: O_20  and  C_13 
REMARK    8  A    between atoms: C_25  and  O_20 
ROOT
ATOM      1  N   UNL d   1     -50.452  27.005  35.292  0.00  0.00    -0.253 N 
ATOM      2  C   UNL d   1     -49.878  27.430  35.687  0.00  0.00     0.182 A 
ATOM      3  C   UNL d   1     -51.034  26.589  35.721  0.00  0.00     0.268 A 
ATOM      4  C   UNL d   1     -51.021  26.614  36.567  0.00  0.00     0.076 A 
ATOM      5  N   UNL d   1     -49.865  27.454  36.533  0.00  0.00    -0.222 NA
ATOM      6  C   UNL d   1     -50.436  27.047  36.964  0.00  0.00     0.088 A 
ATOM      7  C   UNL d   1     -51.608  26.195  36.992  0.00  0.00     0.024 A 
ATOM      8  C   UNL d   1     -51.591  26.221  37.817  0.00  0.00     0.065 A 
ATOM      9  O   UNL d   1     -51.618  26.158  35.327  0.00  0.00    -0.267 OA
ATOM     10  C   UNL d   1     -50.436  27.061  37.786  0.00  0.00     0.021 A 
ATOM     11  C   UNL d   1     -51.008  26.653  38.219  0.00  0.00     0.019 A 
ENDROOT
BRANCH   1  12
ATOM     12  C   UNL d   1     -50.464  26.982  34.470  0.00  0.00     0.085 C 
BRANCH  12  13
ATOM     13  C   UNL d   1     -50.555  26.262  34.080  0.00  0.00     0.018 A 
ATOM     14  C   UNL d   1     -51.299  26.020  33.840  0.00  0.00     0.002 A 
ATOM     15  C   UNL d   1     -51.381  25.296  33.449  0.00  0.00     0.000 A 
ATOM     16  C   UNL d   1     -50.721  24.828  33.306  0.00  0.00     0.000 A 
ATOM     17  C   UNL d   1     -49.976  25.072  33.547  0.00  0.00     0.000 A 
ATOM     18  C   UNL d   1     -49.894  25.794  33.937  0.00  0.00     0.002 A 
ENDBRANCH  12  13
ENDBRANCH   1  12
BRANCH   2  19
ATOM     19  S   UNL d   1     -49.305  27.839  35.268  0.00  0.00    -0.044 SA
BRANCH  19  20
ATOM     20  C   UNL d   1     -48.926  28.482  35.606  0.00  0.00     0.107 C 
BRANCH  20  21
ATOM     21  C   UNL d   1     -48.233  28.790  35.268  0.00  0.00     0.307 C 
ATOM     22  O   UNL d   1     -47.760  28.325  34.786  0.00  0.00    -0.258 OA
BRANCH  21  23
ATOM     23  O   UNL d   1     -48.023  29.566  35.420  0.00  0.00    -0.271 OA
BRANCH  23  24
ATOM     24  C   UNL d   1     -47.261  29.743  35.677  0.00  0.00     0.126 C 
ATOM     25  C   UNL d   1     -47.089  30.493  35.989  0.00  0.00     0.029 C 
ENDBRANCH  23  24
ENDBRANCH  21  23
ENDBRANCH  20  21
ENDBRANCH  19  20
ENDBRANCH   2  19
BRANCH   8  26
ATOM     26  N   UNL d   1     -52.163  25.813  38.246  0.00  0.00    -0.300 N 
ATOM     27  C   UNL d   1     -51.951  25.167  38.707  0.00  0.00     0.107 A 
ATOM     28  C   UNL d   1     -52.529  24.756  39.137  0.00  0.00     0.142 A 
ATOM     29  O   UNL d   1     -53.314  24.997  39.101  0.00  0.00    -0.300 OA
ATOM     30  C   UNL d   1     -53.526  25.642  38.641  0.00  0.00     0.142 A 
ATOM     31  C   UNL d   1     -52.957  26.049  38.215  0.00  0.00     0.107 A 
ENDBRANCH   8  26
TORSDOF 8
ENDMDL
