MODEL 1
REMARK VINA RESULT:      25.2      0.000      0.000
REMARK  3 active torsions:
REMARK  status: ('A' for Active; 'I' for Inactive)
REMARK    1  A    between atoms: C_6  and  C_1 
REMARK    2  A    between atoms: C_8  and  C_4 
REMARK    3  A    between atoms: O_17  and  C_14 
ROOT
ATOM      1  C   UNL d   1      60.795  49.358  51.492  0.00  0.00     0.122 A 
ATOM      2  C   UNL d   1      60.636  49.101  50.716  0.00  0.00     0.285 A 
ATOM      3  N   UNL d   1      59.871  49.150  50.413  0.00  0.00    -0.208 NA
ATOM      4  C   UNL d   1      59.265  49.453  50.880  0.00  0.00     0.085 A 
ATOM      5  C   UNL d   1      60.188  49.662  51.959  0.00  0.00     0.013 A 
ATOM      6  C   UNL d   1      59.422  49.708  51.649  0.00  0.00     0.020 A 
ATOM      7  O   UNL d   1      61.251  48.795  50.248  0.00  0.00    -0.265 OA
ENDROOT
BRANCH   4   8
ATOM      8  C   UNL d   1      58.496  49.503  50.578  0.00  0.00     0.018 A 
ATOM      9  C   UNL d   1      58.383  49.573  49.761  0.00  0.00     0.004 A 
ATOM     10  C   UNL d   1      57.618  49.623  49.462  0.00  0.00     0.024 A 
ATOM     11  C   UNL d   1      56.972  49.602  49.974  0.00  0.00     0.094 A 
ATOM     12  C   UNL d   1      57.094  49.531  50.790  0.00  0.00     0.024 A 
ATOM     13  C   UNL d   1      57.860  49.482  51.088  0.00  0.00     0.004 A 
BRANCH  11  14
ATOM     14  O   UNL d   1      56.201  49.652  49.669  0.00  0.00    -0.328 OA
ATOM     15  C   UNL d   1      56.065  49.568  48.866  0.00  0.00     0.181 C 
ENDBRANCH  11  14
ENDBRANCH   4   8
BRANCH   1  16
ATOM     16  C   UNL d   1      61.559  49.309  51.795  0.00  0.00     0.216 C 
ATOM     17  O   UNL d   1      62.148  48.919  51.370  0.00  0.00    -0.644 OA
ATOM     18  O   UNL d   1      61.742  49.651  52.527  0.00  0.00    -0.644 OA
ENDBRANCH   1  16
TORSDOF 3
ENDMDL
