MODEL 1
REMARK VINA RESULT:       6.3      0.000      0.000
REMARK  3 active torsions:
REMARK  status: ('A' for Active; 'I' for Inactive)
REMARK    1  A    between atoms: CB_6  and  CG_1 
REMARK    2  A    between atoms: C_5  and  CA_8 
REMARK    3  A    between atoms: CA_8  and  CB_6 
ROOT
ATOM      1  CG  TRP d   1      44.432 -15.397  36.604  0.00  0.00     0.022 A 
ATOM      2  NE1 TRP d   1      45.479 -16.178  36.357  0.00  0.00    -0.244 NA
ATOM      3  CD1 TRP d   1      44.657 -16.130  36.337  0.00  0.00     0.099 A 
ATOM      4  CD2 TRP d   1      45.119 -14.972  36.795  0.00  0.00     0.019 A 
ATOM      5  CE2 TRP d   1      45.765 -15.457  36.641  0.00  0.00     0.081 A 
ATOM      6  CE3 TRP d   1      45.235 -14.207  37.089  0.00  0.00     0.002 A 
ATOM      7  CZ2 TRP d   1      46.530 -15.182  36.780  0.00  0.00     0.019 A 
ATOM      8  CZ3 TRP d   1      45.998 -13.932  37.228  0.00  0.00     0.000 A 
ATOM      9  CH2 TRP d   1      46.647 -14.417  37.074  0.00  0.00     0.002 A 
ENDROOT
BRANCH   1  10
ATOM     10  CB  TRP d   1      43.649 -15.135  36.667  0.00  0.00     0.029 C 
BRANCH  10  11
ATOM     11  CA  TRP d   1      43.036 -15.672  36.628  0.00  0.00     0.167 C 
ATOM     12  N   TRP d   1      43.171 -16.430  36.330  0.00  0.00    -0.142 N 
BRANCH  11  13
ATOM     13  C   TRP d   1      42.287 -15.456  36.886  0.00  0.00     0.231 C 
ATOM     14  O   TRP d   1      41.656 -15.464  36.369  0.00  0.00    -0.643 OA
ATOM     15  OXT TRP d   1      42.177 -15.229  37.671  0.00  0.00    -0.643 OA
ENDBRANCH  11  13
ENDBRANCH  10  11
ENDBRANCH   1  10
TORSDOF 3
ENDMDL
MODEL 2
REMARK VINA RESULT:       6.6      7.363      8.002
REMARK  3 active torsions:
REMARK  status: ('A' for Active; 'I' for Inactive)
REMARK    1  A    between atoms: CB_6  and  CG_1 
REMARK    2  A    between atoms: C_5  and  CA_8 
REMARK    3  A    between atoms: CA_8  and  CB_6 
ROOT
ATOM      1  CG  TRP d   1      45.510 -13.904  44.571  0.00  0.00     0.022 A 
ATOM      2  NE1 TRP d   1      46.239 -12.793  44.616  0.00  0.00    -0.244 NA
ATOM      3  CD1 TRP d   1      46.127 -13.537  44.951  0.00  0.00     0.099 A 
ATOM      4  CD2 TRP d   1      45.225 -13.387  43.987  0.00  0.00     0.019 A 
ATOM      5  CE2 TRP d   1      45.678 -12.701  44.017  0.00  0.00     0.081 A 
ATOM      6  CE3 TRP d   1      44.613 -13.455  43.434  0.00  0.00     0.002 A 
ATOM      7  CZ2 TRP d   1      45.522 -12.080  43.496  0.00  0.00     0.019 A 
ATOM      8  CZ3 TRP d   1      44.457 -12.837  42.915  0.00  0.00     0.000 A 
ATOM      9  CH2 TRP d   1      44.909 -12.149  42.943  0.00  0.00     0.002 A 
ENDROOT
BRANCH   1  10
ATOM     10  CB  TRP d   1      45.226 -14.661  44.748  0.00  0.00     0.029 C 
BRANCH  10  11
ATOM     11  CA  TRP d   1      45.741 -15.294  44.760  0.00  0.00     0.167 C 
ATOM     12  N   TRP d   1      46.536 -15.175  44.947  0.00  0.00    -0.142 N 
BRANCH  11  13
ATOM     13  C   TRP d   1      45.464 -16.048  44.586  0.00  0.00     0.231 C 
ATOM     14  O   TRP d   1      44.775 -16.321  44.926  0.00  0.00    -0.643 OA
ATOM     15  OXT TRP d   1      45.887 -16.527  44.066  0.00  0.00    -0.643 OA
ENDBRANCH  11  13
ENDBRANCH  10  11
ENDBRANCH   1  10
TORSDOF 3
ENDMDL
MODEL 3
REMARK VINA RESULT:       8.1      7.345      7.735
REMARK  3 active torsions:
REMARK  status: ('A' for Active; 'I' for Inactive)
REMARK    1  A    between atoms: CB_6  and  CG_1 
REMARK    2  A    between atoms: C_5  and  CA_8 
REMARK    3  A    between atoms: CA_8  and  CB_6 
ROOT
ATOM      1  CG  TRP d   1      46.535 -18.789  42.709  0.00  0.00     0.022 A 
ATOM      2  NE1 TRP d   1      46.329 -17.954  43.722  0.00  0.00    -0.244 NA
ATOM      3  CD1 TRP d   1      46.414 -18.011  42.905  0.00  0.00     0.099 A 
ATOM      4  CD2 TRP d   1      46.526 -19.234  43.410  0.00  0.00     0.019 A 
ATOM      5  CE2 TRP d   1      46.398 -18.715  44.035  0.00  0.00     0.081 A 
ATOM      6  CE3 TRP d   1      46.618 -20.044  43.556  0.00  0.00     0.002 A 
ATOM      7  CZ2 TRP d   1      46.362 -19.001  44.808  0.00  0.00     0.019 A 
ATOM      8  CZ3 TRP d   1      46.582 -20.330  44.326  0.00  0.00     0.000 A 
ATOM      9  CH2 TRP d   1      46.454 -19.811  44.954  0.00  0.00     0.002 A 
ENDROOT
BRANCH   1  10
ATOM     10  CB  TRP d   1      46.645 -19.074  41.939  0.00  0.00     0.029 C 
BRANCH  10  11
ATOM     11  CA  TRP d   1      46.428 -18.613  41.302  0.00  0.00     0.167 C 
ATOM     12  N   TRP d   1      46.102 -17.865  41.425  0.00  0.00    -0.142 N 
BRANCH  11  13
ATOM     13  C   TRP d   1      46.534 -18.898  40.538  0.00  0.00     0.231 C 
ATOM     14  O   TRP d   1      46.575 -19.701  40.401  0.00  0.00    -0.643 OA
ATOM     15  OXT TRP d   1      46.599 -18.366  39.912  0.00  0.00    -0.643 OA
ENDBRANCH  11  13
ENDBRANCH  10  11
ENDBRANCH   1  10
TORSDOF 3
ENDMDL
