MODEL 1
REMARK VINA RESULT:      -8.1      0.000      0.000
REMARK  0 active torsions:
REMARK  status: ('A' for Active; 'I' for Inactive)
ROOT
ATOM      1  N   UNL d   1     -47.755  12.651  23.264  0.00  0.00    -0.300 N 
ATOM      2  C   UNL d   1     -46.383  12.338  23.478  0.00  0.00     0.295 A 
ATOM      3  N   UNL d   1     -46.184  13.112  23.244  0.00  0.00    -0.205 NA
ATOM      4  C   UNL d   1     -47.174  12.104  23.488  0.00  0.00     0.123 A 
ATOM      5  C   UNL d   1     -47.561  13.404  23.036  0.00  0.00     0.082 A 
ATOM      6  C   UNL d   1     -46.778  13.640  23.024  0.00  0.00     0.101 A 
ATOM      7  O   UNL d   1     -45.818  11.803  23.698  0.00  0.00    -0.264 OA
ATOM      8  C   UNL d   1     -48.472  12.278  23.325  0.00  0.00     0.080 A 
ATOM      9  C   UNL d   1     -47.551  11.393  23.688  0.00  0.00     0.024 A 
ATOM     10  C   UNL d   1     -48.164  13.934  22.815  0.00  0.00     0.019 A 
ATOM     11  C   UNL d   1     -46.579  14.414  22.790  0.00  0.00     0.021 A 
ATOM     12  C   UNL d   1     -48.375  11.512  23.581  0.00  0.00     0.021 A 
ATOM     13  C   UNL d   1     -47.964  14.708  22.580  0.00  0.00     0.002 A 
ATOM     14  C   UNL d   1     -47.181  14.931  22.573  0.00  0.00     0.002 A 
ENDROOT
TORSDOF 0
ENDMDL
MODEL 2
REMARK VINA RESULT:      -8.1      0.691      2.277
REMARK  0 active torsions:
REMARK  status: ('A' for Active; 'I' for Inactive)
ROOT
ATOM      1  N   UNL d   1     -47.557  13.217  23.107  0.00  0.00    -0.300 N 
ATOM      2  C   UNL d   1     -46.602  12.247  23.521  0.00  0.00     0.295 A 
ATOM      3  N   UNL d   1     -47.226  11.718  23.676  0.00  0.00    -0.205 NA
ATOM      4  C   UNL d   1     -46.767  13.002  23.234  0.00  0.00     0.123 A 
ATOM      5  C   UNL d   1     -48.164  12.703  23.257  0.00  0.00     0.082 A 
ATOM      6  C   UNL d   1     -48.006  11.953  23.542  0.00  0.00     0.101 A 
ATOM      7  O   UNL d   1     -45.830  12.039  23.645  0.00  0.00    -0.264 OA
ATOM      8  C   UNL d   1     -47.557  13.978  22.828  0.00  0.00     0.080 A 
ATOM      9  C   UNL d   1     -46.287  13.646  23.028  0.00  0.00     0.024 A 
ATOM     10  C   UNL d   1     -48.950  12.944  23.121  0.00  0.00     0.019 A 
ATOM     11  C   UNL d   1     -48.630  11.424  23.697  0.00  0.00     0.021 A 
ATOM     12  C   UNL d   1     -46.796  14.262  22.771  0.00  0.00     0.021 A 
ATOM     13  C   UNL d   1     -49.574  12.415  23.276  0.00  0.00     0.002 A 
ATOM     14  C   UNL d   1     -49.403  11.670  23.559  0.00  0.00     0.002 A 
ENDROOT
TORSDOF 0
ENDMDL
MODEL 3
REMARK VINA RESULT:      -7.7      1.378      1.980
REMARK  0 active torsions:
REMARK  status: ('A' for Active; 'I' for Inactive)
ROOT
ATOM      1  N   UNL d   1     -48.468  13.044  22.178  0.00  0.00    -0.300 N 
ATOM      2  C   UNL d   1     -48.410  11.731  22.724  0.00  0.00     0.295 A 
ATOM      3  N   UNL d   1     -47.692  11.931  23.095  0.00  0.00    -0.205 NA
ATOM      4  C   UNL d   1     -48.802  12.291  22.262  0.00  0.00     0.123 A 
ATOM      5  C   UNL d   1     -47.769  13.239  22.538  0.00  0.00     0.082 A 
ATOM      6  C   UNL d   1     -47.377  12.688  22.997  0.00  0.00     0.101 A 
ATOM      7  O   UNL d   1     -48.738  10.996  22.805  0.00  0.00    -0.264 OA
ATOM      8  C   UNL d   1     -48.963  13.474  21.702  0.00  0.00     0.080 A 
ATOM      9  C   UNL d   1     -49.508  12.270  21.829  0.00  0.00     0.024 A 
ATOM     10  C   UNL d   1     -47.455  14.004  22.437  0.00  0.00     0.019 A 
ATOM     11  C   UNL d   1     -46.658  12.888  23.368  0.00  0.00     0.021 A 
ATOM     12  C   UNL d   1     -49.604  13.026  21.475  0.00  0.00     0.021 A 
ATOM     13  C   UNL d   1     -46.736  14.204  22.808  0.00  0.00     0.002 A 
ATOM     14  C   UNL d   1     -46.355  13.646  23.263  0.00  0.00     0.002 A 
ENDROOT
TORSDOF 0
ENDMDL
MODEL 4
REMARK VINA RESULT:      -7.6      1.336      2.785
REMARK  0 active torsions:
REMARK  status: ('A' for Active; 'I' for Inactive)
ROOT
ATOM      1  N   UNL d   1     -47.467  13.017  23.191  0.00  0.00    -0.300 N 
ATOM      2  C   UNL d   1     -48.177  14.194  22.817  0.00  0.00     0.295 A 
ATOM      3  N   UNL d   1     -48.892  13.787  22.947  0.00  0.00    -0.205 NA
ATOM      4  C   UNL d   1     -47.459  13.807  22.940  0.00  0.00     0.123 A 
ATOM      5  C   UNL d   1     -48.163  12.622  23.316  0.00  0.00     0.082 A 
ATOM      6  C   UNL d   1     -48.877  13.001  23.196  0.00  0.00     0.101 A 
ATOM      7  O   UNL d   1     -48.166  14.964  22.573  0.00  0.00    -0.264 OA
ATOM      8  C   UNL d   1     -46.696  12.781  23.266  0.00  0.00     0.080 A 
ATOM      9  C   UNL d   1     -46.669  14.046  22.864  0.00  0.00     0.024 A 
ATOM     10  C   UNL d   1     -48.144  11.828  23.568  0.00  0.00     0.019 A 
ATOM     11  C   UNL d   1     -49.593  12.594  23.325  0.00  0.00     0.021 A 
ATOM     12  C   UNL d   1     -46.190  13.389  23.073  0.00  0.00     0.021 A 
ATOM     13  C   UNL d   1     -48.859  11.422  23.698  0.00  0.00     0.002 A 
ATOM     14  C   UNL d   1     -49.564  11.810  23.574  0.00  0.00     0.002 A 
ENDROOT
TORSDOF 0
ENDMDL
MODEL 5
REMARK VINA RESULT:      -7.5      1.086      1.775
REMARK  0 active torsions:
REMARK  status: ('A' for Active; 'I' for Inactive)
ROOT
ATOM      1  N   UNL d   1     -47.440  12.615  23.288  0.00  0.00    -0.300 N 
ATOM      2  C   UNL d   1     -48.715  11.982  23.283  0.00  0.00     0.295 A 
ATOM      3  N   UNL d   1     -49.053  12.697  23.022  0.00  0.00    -0.205 NA
ATOM      4  C   UNL d   1     -47.902  11.940  23.418  0.00  0.00     0.123 A 
ATOM      5  C   UNL d   1     -47.769  13.310  23.034  0.00  0.00     0.082 A 
ATOM      6  C   UNL d   1     -48.574  13.357  22.900  0.00  0.00     0.101 A 
ATOM      7  O   UNL d   1     -49.165  11.323  23.410  0.00  0.00    -0.264 OA
ATOM      8  C   UNL d   1     -46.673  12.417  23.462  0.00  0.00     0.080 A 
ATOM      9  C   UNL d   1     -47.404  11.329  23.672  0.00  0.00     0.024 A 
ATOM     10  C   UNL d   1     -47.281  13.974  22.912  0.00  0.00     0.019 A 
ATOM     11  C   UNL d   1     -48.912  14.072  22.638  0.00  0.00     0.021 A 
ATOM     12  C   UNL d   1     -46.624  11.640  23.698  0.00  0.00     0.021 A 
ATOM     13  C   UNL d   1     -47.620  14.689  22.651  0.00  0.00     0.002 A 
ATOM     14  C   UNL d   1     -48.423  14.723  22.520  0.00  0.00     0.002 A 
ENDROOT
TORSDOF 0
ENDMDL
MODEL 6
REMARK VINA RESULT:      -7.4      1.466      2.031
REMARK  0 active torsions:
REMARK  status: ('A' for Active; 'I' for Inactive)
ROOT
ATOM      1  N   UNL d   1     -48.192  12.461  23.341  0.00  0.00    -0.300 N 
ATOM      2  C   UNL d   1     -49.115  13.518  23.104  0.00  0.00     0.295 A 
ATOM      3  N   UNL d   1     -48.475  14.015  22.912  0.00  0.00    -0.205 NA
ATOM      4  C   UNL d   1     -48.974  12.735  23.321  0.00  0.00     0.123 A 
ATOM      5  C   UNL d   1     -47.570  12.944  23.154  0.00  0.00     0.082 A 
ATOM      6  C   UNL d   1     -47.704  13.721  22.939  0.00  0.00     0.101 A 
ATOM      7  O   UNL d   1     -49.878  13.784  23.085  0.00  0.00    -0.264 OA
ATOM      8  C   UNL d   1     -48.217  11.683  23.568  0.00  0.00     0.080 A 
ATOM      9  C   UNL d   1     -49.474  12.111  23.539  0.00  0.00     0.024 A 
ATOM     10  C   UNL d   1     -46.794  12.643  23.183  0.00  0.00     0.019 A 
ATOM     11  C   UNL d   1     -47.064  14.218  22.747  0.00  0.00     0.021 A 
ATOM     12  C   UNL d   1     -48.985  11.445  23.695  0.00  0.00     0.021 A 
ATOM     13  C   UNL d   1     -46.154  13.140  22.990  0.00  0.00     0.002 A 
ATOM     14  C   UNL d   1     -46.301  13.912  22.778  0.00  0.00     0.002 A 
ENDROOT
TORSDOF 0
ENDMDL
MODEL 7
REMARK VINA RESULT:      -7.2      1.774      2.501
REMARK  0 active torsions:
REMARK  status: ('A' for Active; 'I' for Inactive)
ROOT
ATOM      1  N   UNL d   1     -49.007  12.280  22.877  0.00  0.00    -0.300 N 
ATOM      2  C   UNL d   1     -49.056  13.118  21.728  0.00  0.00     0.295 A 
ATOM      3  N   UNL d   1     -48.241  13.267  21.819  0.00  0.00    -0.205 NA
ATOM      4  C   UNL d   1     -49.442  12.621  22.260  0.00  0.00     0.123 A 
ATOM      5  C   UNL d   1     -48.215  12.425  22.966  0.00  0.00     0.082 A 
ATOM      6  C   UNL d   1     -47.827  12.917  22.440  0.00  0.00     0.101 A 
ATOM      7  O   UNL d   1     -49.482  13.449  21.126  0.00  0.00    -0.264 OA
ATOM      8  C   UNL d   1     -49.520  11.825  23.309  0.00  0.00     0.080 A 
ATOM      9  C   UNL d   1     -50.228  12.365  22.325  0.00  0.00     0.024 A 
ATOM     10  C   UNL d   1     -47.800  12.070  23.595  0.00  0.00     0.019 A 
ATOM     11  C   UNL d   1     -47.012  13.066  22.531  0.00  0.00     0.021 A 
ATOM     12  C   UNL d   1     -50.269  11.859  22.994  0.00  0.00     0.021 A 
ATOM     13  C   UNL d   1     -46.986  12.219  23.686  0.00  0.00     0.002 A 
ATOM     14  C   UNL d   1     -46.611  12.711  23.156  0.00  0.00     0.002 A 
ENDROOT
TORSDOF 0
ENDMDL
MODEL 8
REMARK VINA RESULT:      -6.9      1.839      2.714
REMARK  0 active torsions:
REMARK  status: ('A' for Active; 'I' for Inactive)
ROOT
ATOM      1  N   UNL d   1     -48.150  14.062  22.554  0.00  0.00    -0.300 N 
ATOM      2  C   UNL d   1     -48.605  13.136  21.574  0.00  0.00     0.295 A 
ATOM      3  N   UNL d   1     -49.354  13.500  21.597  0.00  0.00    -0.205 NA
ATOM      4  C   UNL d   1     -47.998  13.418  22.055  0.00  0.00     0.123 A 
ATOM      5  C   UNL d   1     -48.878  14.415  22.577  0.00  0.00     0.082 A 
ATOM      6  C   UNL d   1     -49.483  14.139  22.102  0.00  0.00     0.101 A 
ATOM      7  O   UNL d   1     -48.454  12.508  21.087  0.00  0.00    -0.264 OA
ATOM      8  C   UNL d   1     -47.465  14.219  22.958  0.00  0.00     0.080 A 
ATOM      9  C   UNL d   1     -47.209  13.187  22.163  0.00  0.00     0.024 A 
ATOM     10  C   UNL d   1     -49.005  15.061  23.088  0.00  0.00     0.019 A 
ATOM     11  C   UNL d   1     -50.232  14.503  22.125  0.00  0.00     0.021 A 
ATOM     12  C   UNL d   1     -46.877  13.701  22.738  0.00  0.00     0.021 A 
ATOM     13  C   UNL d   1     -49.754  15.425  23.111  0.00  0.00     0.002 A 
ATOM     14  C   UNL d   1     -50.348  15.140  22.633  0.00  0.00     0.002 A 
ENDROOT
TORSDOF 0
ENDMDL
MODEL 9
REMARK VINA RESULT:      -6.9      1.769      3.191
REMARK  0 active torsions:
REMARK  status: ('A' for Active; 'I' for Inactive)
ROOT
ATOM      1  N   UNL d   1     -49.663  14.112  23.197  0.00  0.00    -0.300 N 
ATOM      2  C   UNL d   1     -48.273  14.101  22.889  0.00  0.00     0.295 A 
ATOM      3  N   UNL d   1     -48.272  13.274  22.985  0.00  0.00    -0.205 NA
ATOM      4  C   UNL d   1     -48.973  14.524  22.995  0.00  0.00     0.123 A 
ATOM      5  C   UNL d   1     -49.662  13.308  23.291  0.00  0.00     0.082 A 
ATOM      6  C   UNL d   1     -48.971  12.883  23.186  0.00  0.00     0.101 A 
ATOM      7  O   UNL d   1     -47.601  14.505  22.692  0.00  0.00    -0.264 OA
ATOM      8  C   UNL d   1     -50.257  14.659  23.266  0.00  0.00     0.080 A 
ATOM      9  C   UNL d   1     -49.158  15.330  22.943  0.00  0.00     0.024 A 
ATOM     10  C   UNL d   1     -50.369  12.918  23.494  0.00  0.00     0.019 A 
ATOM     11  C   UNL d   1     -48.970  12.056  23.282  0.00  0.00     0.021 A 
ATOM     12  C   UNL d   1     -49.977  15.408  23.116  0.00  0.00     0.021 A 
ATOM     13  C   UNL d   1     -50.368  12.090  23.590  0.00  0.00     0.002 A 
ATOM     14  C   UNL d   1     -49.673  11.679  23.483  0.00  0.00     0.002 A 
ENDROOT
TORSDOF 0
ENDMDL
