MODEL 1
REMARK VINA RESULT:      22.9      0.000      0.000
REMARK  2 active torsions:
REMARK  status: ('A' for Active; 'I' for Inactive)
REMARK    1  A    between atoms: C_5  and  N_1 
REMARK    2  A    between atoms: C_7  and  C_5 
ROOT
ATOM      1  N   UNL d   1      14.127  12.102  -1.285  0.00  0.00    -0.251 N 
ATOM      2  C   UNL d   1      13.437  11.894  -0.892  0.00  0.00     0.378 A 
ATOM      3  O   UNL d   1      12.844  11.779  -1.455  0.00  0.00    -0.258 OA
ATOM      4  C   UNL d   1      13.962  12.117  -2.099  0.00  0.00     0.092 A 
ATOM      5  C   UNL d   1      13.170  11.918  -2.202  0.00  0.00     0.121 A 
ATOM      6  O   UNL d   1      13.346  11.812  -0.076  0.00  0.00    -0.237 OA
ATOM      7  C   UNL d   1      14.439  12.288  -2.748  0.00  0.00     0.020 A 
ATOM      8  C   UNL d   1      12.851  11.889  -2.965  0.00  0.00     0.026 A 
ATOM      9  C   UNL d   1      14.119  12.259  -3.508  0.00  0.00     0.002 A 
ATOM     10  C   UNL d   1      13.328  12.060  -3.617  0.00  0.00     0.002 A 
ENDROOT
BRANCH   1  11
ATOM     11  C   UNL d   1      14.857  12.268  -0.937  0.00  0.00     0.086 C 
BRANCH  11  12
ATOM     12  C   UNL d   1      15.002  13.013  -0.632  0.00  0.00     0.028 A 
ATOM     13  C   UNL d   1      15.779  13.258  -0.481  0.00  0.00     0.059 A 
ATOM     14 CL   UNL d   1      16.387  12.717  -0.652  0.00  0.00    -0.082 Cl
ATOM     15  C   UNL d   1      15.921  14.003  -0.176  0.00  0.00     0.011 A 
ATOM     16  C   UNL d   1      15.289  14.519  -0.016  0.00  0.00     0.001 A 
ATOM     17  C   UNL d   1      14.513  14.277  -0.166  0.00  0.00     0.000 A 
ATOM     18  C   UNL d   1      14.372  13.526  -0.473  0.00  0.00     0.002 A 
ENDBRANCH  11  12
ENDBRANCH   1  11
TORSDOF 2
ENDMDL
MODEL 2
REMARK VINA RESULT:      25.1      1.873      3.588
REMARK  2 active torsions:
REMARK  status: ('A' for Active; 'I' for Inactive)
REMARK    1  A    between atoms: C_5  and  N_1 
REMARK    2  A    between atoms: C_7  and  C_5 
ROOT
ATOM      1  N   UNL d   1      14.030  13.097  -2.102  0.00  0.00    -0.251 N 
ATOM      2  C   UNL d   1      14.790  13.372  -2.245  0.00  0.00     0.378 A 
ATOM      3  O   UNL d   1      15.286  13.080  -1.652  0.00  0.00    -0.258 OA
ATOM      4  C   UNL d   1      14.052  12.631  -1.416  0.00  0.00     0.092 A 
ATOM      5  C   UNL d   1      14.827  12.622  -1.140  0.00  0.00     0.121 A 
ATOM      6  O   UNL d   1      15.025  13.857  -2.871  0.00  0.00    -0.237 OA
ATOM      7  C   UNL d   1      13.460  12.220  -1.018  0.00  0.00     0.020 A 
ATOM      8  C   UNL d   1      15.013  12.194  -0.455  0.00  0.00     0.026 A 
ATOM      9  C   UNL d   1      13.647  11.794  -0.335  0.00  0.00     0.002 A 
ATOM     10  C   UNL d   1      14.421  11.782  -0.055  0.00  0.00     0.002 A 
ENDROOT
BRANCH   1  11
ATOM     11  C   UNL d   1      13.359  13.255  -2.558  0.00  0.00     0.086 C 
BRANCH  11  12
ATOM     12  C   UNL d   1      13.286  12.923  -3.302  0.00  0.00     0.028 A 
ATOM     13  C   UNL d   1      13.060  13.391  -3.946  0.00  0.00     0.059 A 
ATOM     14 CL   UNL d   1      12.914  14.197  -3.798  0.00  0.00    -0.082 Cl
ATOM     15  C   UNL d   1      12.987  13.058  -4.689  0.00  0.00     0.011 A 
ATOM     16  C   UNL d   1      13.141  12.249  -4.804  0.00  0.00     0.001 A 
ATOM     17  C   UNL d   1      13.367  11.779  -4.161  0.00  0.00     0.000 A 
ATOM     18  C   UNL d   1      13.439  12.117  -3.414  0.00  0.00     0.002 A 
ENDBRANCH  11  12
ENDBRANCH   1  11
TORSDOF 2
ENDMDL
