MODEL 1
REMARK VINA RESULT:      -8.8      0.000      0.000
REMARK  9 active torsions:
REMARK  status: ('A' for Active; 'I' for Inactive)
REMARK    1  A    between atoms: C_6  and  N_1 
REMARK    2  A    between atoms: C_2  and  O_5 
REMARK    3  A    between atoms: C_8  and  C_3 
REMARK    4  A    between atoms: C_4  and  C_9 
REMARK    5  A    between atoms: O_5  and  C_4 
REMARK    6  A    between atoms: C_7  and  C_8 
REMARK    7  A    between atoms: C_13  and  C_7 
REMARK    8  A    between atoms: C_10  and  C_13 
REMARK    9  A    between atoms: O_25  and  C_23 
ROOT
ATOM      1  C   UNL d   1      53.339  32.880  53.855  0.00  0.00     0.108 A 
ATOM      2  C   UNL d   1      53.035  33.613  53.626  0.00  0.00     0.062 A 
ATOM      3  C   UNL d   1      53.855  32.831  54.507  0.00  0.00     0.049 A 
ATOM      4  C   UNL d   1      53.245  34.299  54.049  0.00  0.00     0.007 A 
ATOM      5  C   UNL d   1      54.060  33.513  54.924  0.00  0.00     0.096 A 
ATOM      6  C   UNL d   1      53.756  34.246  54.695  0.00  0.00     0.024 A 
ENDROOT
BRANCH   1   7
ATOM      7  O   UNL d   1      53.135  32.194  53.439  0.00  0.00    -0.273 OA
BRANCH   7   8
ATOM      8  C   UNL d   1      53.637  31.537  53.460  0.00  0.00     0.300 C 
ATOM      9  O   UNL d   1      54.453  31.638  53.500  0.00  0.00    -0.259 OA
BRANCH   8  10
ATOM     10  C   UNL d   1      53.313  30.779  53.439  0.00  0.00     0.065 A 
ATOM     11  C   UNL d   1      53.456  30.264  54.065  0.00  0.00     0.029 A 
ATOM     12  C   UNL d   1      53.136  29.509  54.047  0.00  0.00     0.127 A 
ATOM     13  C   UNL d   1      52.673  29.270  53.405  0.00  0.00     0.024 A 
ATOM     14  C   UNL d   1      52.537  29.790  52.787  0.00  0.00     0.002 A 
ATOM     15  C   UNL d   1      52.856  30.543  52.804  0.00  0.00     0.005 A 
BRANCH  12  16
ATOM     16  N   UNL d   1      53.277  28.989  54.674  0.00  0.00    -0.114 N 
ATOM     17  O   UNL d   1      53.704  28.297  54.545  0.00  0.00    -0.532 OA
ATOM     18  O   UNL d   1      52.988  29.164  55.438  0.00  0.00    -0.532 OA
ENDBRANCH  12  16
ENDBRANCH   8  10
ENDBRANCH   7   8
ENDBRANCH   1   7
BRANCH   2  19
ATOM     19  C   UNL d   1      52.522  33.664  52.977  0.00  0.00     0.198 C 
ATOM     20  O   UNL d   1      52.796  33.482  52.219  0.00  0.00    -0.286 OA
BRANCH  19  21
ATOM     21  C   UNL d   1      51.738  33.896  53.088  0.00  0.00     0.043 C 
BRANCH  21  22
ATOM     22  C   UNL d   1      51.242  33.993  52.436  0.00  0.00     0.010 C 
BRANCH  22  23
ATOM     23  C   UNL d   1      50.493  34.325  52.536  0.00  0.00     0.030 A 
ATOM     24  S   UNL d   1      49.901  34.390  51.962  0.00  0.00    -0.086 SA
ATOM     25  C   UNL d   1      49.244  34.757  52.301  0.00  0.00     0.035 A 
ATOM     26  C   UNL d   1      49.423  34.922  53.090  0.00  0.00     0.007 A 
ATOM     27  C   UNL d   1      50.194  34.656  53.237  0.00  0.00     0.007 A 
ENDBRANCH  22  23
ENDBRANCH  21  22
ENDBRANCH  19  21
ENDBRANCH   2  19
BRANCH   5  28
ATOM     28  O   UNL d   1      54.571  33.461  55.570  0.00  0.00    -0.328 OA
ATOM     29  C   UNL d   1      55.280  33.891  55.573  0.00  0.00     0.181 C 
ENDBRANCH   5  28
TORSDOF 9
ENDMDL
MODEL 2
REMARK VINA RESULT:      -7.9      1.577      3.711
REMARK  9 active torsions:
REMARK  status: ('A' for Active; 'I' for Inactive)
REMARK    1  A    between atoms: C_6  and  N_1 
REMARK    2  A    between atoms: C_2  and  O_5 
REMARK    3  A    between atoms: C_8  and  C_3 
REMARK    4  A    between atoms: C_4  and  C_9 
REMARK    5  A    between atoms: O_5  and  C_4 
REMARK    6  A    between atoms: C_7  and  C_8 
REMARK    7  A    between atoms: C_13  and  C_7 
REMARK    8  A    between atoms: C_10  and  C_13 
REMARK    9  A    between atoms: O_25  and  C_23 
ROOT
ATOM      1  C   UNL d   1      53.401  31.427  53.818  0.00  0.00     0.108 A 
ATOM      2  C   UNL d   1      52.857  31.325  53.205  0.00  0.00     0.062 A 
ATOM      3  C   UNL d   1      53.615  30.778  54.294  0.00  0.00     0.049 A 
ATOM      4  C   UNL d   1      52.527  30.573  53.066  0.00  0.00     0.007 A 
ATOM      5  C   UNL d   1      53.286  30.035  54.153  0.00  0.00     0.096 A 
ATOM      6  C   UNL d   1      52.742  29.932  53.540  0.00  0.00     0.024 A 
ENDROOT
BRANCH   1   7
ATOM      7  O   UNL d   1      53.733  32.171  53.963  0.00  0.00    -0.273 OA
BRANCH   7   8
ATOM      8  C   UNL d   1      53.939  32.386  54.734  0.00  0.00     0.300 C 
ATOM      9  O   UNL d   1      53.844  31.853  55.354  0.00  0.00    -0.259 OA
BRANCH   8  10
ATOM     10  C   UNL d   1      54.241  33.140  54.878  0.00  0.00     0.065 A 
ATOM     11  C   UNL d   1      53.726  33.782  54.895  0.00  0.00     0.029 A 
ATOM     12  C   UNL d   1      54.024  34.533  55.038  0.00  0.00     0.127 A 
ATOM     13  C   UNL d   1      54.835  34.641  55.164  0.00  0.00     0.024 A 
ATOM     14  C   UNL d   1      55.337  33.995  55.145  0.00  0.00     0.002 A 
ATOM     15  C   UNL d   1      55.042  33.246  55.003  0.00  0.00     0.005 A 
BRANCH  12  16
ATOM     16  N   UNL d   1      53.511  35.181  55.056  0.00  0.00    -0.114 N 
ATOM     17  O   UNL d   1      53.470  35.690  54.410  0.00  0.00    -0.532 OA
ATOM     18  O   UNL d   1      53.033  35.320  55.726  0.00  0.00    -0.532 OA
ENDBRANCH  12  16
ENDBRANCH   8  10
ENDBRANCH   7   8
ENDBRANCH   1   7
BRANCH   2  19
ATOM     19  C   UNL d   1      52.642  31.969  52.730  0.00  0.00     0.198 C 
ATOM     20  O   UNL d   1      53.134  32.207  52.110  0.00  0.00    -0.286 OA
BRANCH  19  21
ATOM     21  C   UNL d   1      51.937  32.372  52.877  0.00  0.00     0.043 C 
BRANCH  21  22
ATOM     22  C   UNL d   1      51.697  32.977  52.370  0.00  0.00     0.010 C 
BRANCH  22  23
ATOM     23  C   UNL d   1      51.124  33.517  52.618  0.00  0.00     0.030 A 
ATOM     24  S   UNL d   1      50.900  34.212  52.230  0.00  0.00    -0.086 SA
ATOM     25  C   UNL d   1      50.310  34.582  52.671  0.00  0.00     0.035 A 
ATOM     26  C   UNL d   1      50.161  34.119  53.338  0.00  0.00     0.007 A 
ATOM     27  C   UNL d   1      50.664  33.460  53.307  0.00  0.00     0.007 A 
ENDBRANCH  22  23
ENDBRANCH  21  22
ENDBRANCH  19  21
ENDBRANCH   2  19
BRANCH   5  28
ATOM     28  O   UNL d   1      53.501  29.394  54.627  0.00  0.00    -0.328 OA
ATOM     29  C   UNL d   1      53.304  28.623  54.395  0.00  0.00     0.181 C 
ENDBRANCH   5  28
TORSDOF 9
ENDMDL
MODEL 3
REMARK VINA RESULT:      -7.7      2.321      4.652
REMARK  9 active torsions:
REMARK  status: ('A' for Active; 'I' for Inactive)
REMARK    1  A    between atoms: C_6  and  N_1 
REMARK    2  A    between atoms: C_2  and  O_5 
REMARK    3  A    between atoms: C_8  and  C_3 
REMARK    4  A    between atoms: C_4  and  C_9 
REMARK    5  A    between atoms: O_5  and  C_4 
REMARK    6  A    between atoms: C_7  and  C_8 
REMARK    7  A    between atoms: C_13  and  C_7 
REMARK    8  A    between atoms: C_10  and  C_13 
REMARK    9  A    between atoms: O_25  and  C_23 
ROOT
ATOM      1  C   UNL d   1      52.735  33.756  53.700  0.00  0.00     0.108 A 
ATOM      2  C   UNL d   1      53.400  33.271  53.771  0.00  0.00     0.062 A 
ATOM      3  C   UNL d   1      52.663  34.433  54.181  0.00  0.00     0.049 A 
ATOM      4  C   UNL d   1      53.994  33.462  54.322  0.00  0.00     0.007 A 
ATOM      5  C   UNL d   1      53.254  34.618  54.726  0.00  0.00     0.096 A 
ATOM      6  C   UNL d   1      53.919  34.133  54.797  0.00  0.00     0.024 A 
ENDROOT
BRANCH   1   7
ATOM      7  O   UNL d   1      52.140  33.574  53.155  0.00  0.00    -0.273 OA
BRANCH   7   8
ATOM      8  C   UNL d   1      51.347  33.698  53.355  0.00  0.00     0.300 C 
ATOM      9  O   UNL d   1      51.075  33.519  54.111  0.00  0.00    -0.259 OA
BRANCH   8  10
ATOM     10  C   UNL d   1      50.830  34.005  52.791  0.00  0.00     0.065 A 
ATOM     11  C   UNL d   1      50.190  34.460  53.037  0.00  0.00     0.029 A 
ATOM     12  C   UNL d   1      49.674  34.766  52.477  0.00  0.00     0.127 A 
ATOM     13  C   UNL d   1      49.797  34.616  51.673  0.00  0.00     0.024 A 
ATOM     14  C   UNL d   1      50.437  34.162  51.439  0.00  0.00     0.002 A 
ATOM     15  C   UNL d   1      50.952  33.856  51.996  0.00  0.00     0.005 A 
BRANCH  12  16
ATOM     16  N   UNL d   1      49.031  35.225  52.721  0.00  0.00    -0.114 N 
ATOM     17  O   UNL d   1      48.330  35.211  52.289  0.00  0.00    -0.532 OA
ATOM     18  O   UNL d   1      49.089  35.701  53.405  0.00  0.00    -0.532 OA
ENDBRANCH  12  16
ENDBRANCH   8  10
ENDBRANCH   7   8
ENDBRANCH   1   7
BRANCH   2  19
ATOM     19  C   UNL d   1      53.473  32.598  53.293  0.00  0.00     0.198 C 
ATOM     20  O   UNL d   1      53.668  32.678  52.494  0.00  0.00    -0.286 OA
BRANCH  19  21
ATOM     21  C   UNL d   1      53.352  31.848  53.616  0.00  0.00     0.043 C 
BRANCH  21  22
ATOM     22  C   UNL d   1      53.541  31.176  53.177  0.00  0.00     0.010 C 
BRANCH  22  23
ATOM     23  C   UNL d   1      53.309  30.431  53.446  0.00  0.00     0.030 A 
ATOM     24  S   UNL d   1      52.679  29.978  53.161  0.00  0.00    -0.086 SA
ATOM     25  C   UNL d   1      52.647  29.272  53.588  0.00  0.00     0.035 A 
ATOM     26  C   UNL d   1      53.258  29.282  54.142  0.00  0.00     0.007 A 
ATOM     27  C   UNL d   1      53.668  29.997  54.056  0.00  0.00     0.007 A 
ENDBRANCH  22  23
ENDBRANCH  21  22
ENDBRANCH  19  21
ENDBRANCH   2  19
BRANCH   5  28
ATOM     28  O   UNL d   1      53.179  35.289  55.201  0.00  0.00    -0.328 OA
ATOM     29  C   UNL d   1      53.232  36.043  54.862  0.00  0.00     0.181 C 
ENDBRANCH   5  28
TORSDOF 9
ENDMDL
MODEL 4
REMARK VINA RESULT:      -6.5      2.023      4.524
REMARK  9 active torsions:
REMARK  status: ('A' for Active; 'I' for Inactive)
REMARK    1  A    between atoms: C_6  and  N_1 
REMARK    2  A    between atoms: C_2  and  O_5 
REMARK    3  A    between atoms: C_8  and  C_3 
REMARK    4  A    between atoms: C_4  and  C_9 
REMARK    5  A    between atoms: O_5  and  C_4 
REMARK    6  A    between atoms: C_7  and  C_8 
REMARK    7  A    between atoms: C_13  and  C_7 
REMARK    8  A    between atoms: C_10  and  C_13 
REMARK    9  A    between atoms: O_25  and  C_23 
ROOT
ATOM      1  C   UNL d   1      51.891  33.798  53.081  0.00  0.00     0.108 A 
ATOM      2  C   UNL d   1      51.721  33.071  52.728  0.00  0.00     0.062 A 
ATOM      3  C   UNL d   1      51.280  34.349  53.210  0.00  0.00     0.049 A 
ATOM      4  C   UNL d   1      50.938  32.893  52.505  0.00  0.00     0.007 A 
ATOM      5  C   UNL d   1      50.506  34.169  52.987  0.00  0.00     0.096 A 
ATOM      6  C   UNL d   1      50.335  33.441  52.635  0.00  0.00     0.024 A 
ENDROOT
BRANCH   1   7
ATOM      7  O   UNL d   1      52.666  33.982  53.306  0.00  0.00    -0.273 OA
BRANCH   7   8
ATOM      8  C   UNL d   1      52.827  34.708  53.667  0.00  0.00     0.300 C 
ATOM      9  O   UNL d   1      52.567  35.410  53.325  0.00  0.00    -0.259 OA
BRANCH   8  10
ATOM     10  C   UNL d   1      53.250  34.724  54.375  0.00  0.00     0.065 A 
ATOM     11  C   UNL d   1      53.898  34.226  54.466  0.00  0.00     0.029 A 
ATOM     12  C   UNL d   1      54.321  34.239  55.170  0.00  0.00     0.127 A 
ATOM     13  C   UNL d   1      54.095  34.750  55.780  0.00  0.00     0.024 A 
ATOM     14  C   UNL d   1      53.448  35.241  55.678  0.00  0.00     0.002 A 
ATOM     15  C   UNL d   1      53.026  35.229  54.978  0.00  0.00     0.005 A 
BRANCH  12  16
ATOM     16  N   UNL d   1      54.973  33.740  55.265  0.00  0.00    -0.114 N 
ATOM     17  O   UNL d   1      54.860  32.952  55.476  0.00  0.00    -0.532 OA
ATOM     18  O   UNL d   1      55.747  34.033  55.148  0.00  0.00    -0.532 OA
ENDBRANCH  12  16
ENDBRANCH   8  10
ENDBRANCH   7   8
ENDBRANCH   1   7
BRANCH   2  19
ATOM     19  C   UNL d   1      52.327  32.521  52.599  0.00  0.00     0.198 C 
ATOM     20  O   UNL d   1      52.926  32.688  52.055  0.00  0.00    -0.286 OA
BRANCH  19  21
ATOM     21  C   UNL d   1      52.331  31.807  53.013  0.00  0.00     0.043 C 
BRANCH  21  22
ATOM     22  C   UNL d   1      52.857  31.210  52.795  0.00  0.00     0.010 C 
BRANCH  22  23
ATOM     23  C   UNL d   1      52.939  30.541  53.272  0.00  0.00     0.030 A 
ATOM     24  S   UNL d   1      52.548  29.818  53.180  0.00  0.00    -0.086 SA
ATOM     25  C   UNL d   1      52.795  29.306  53.779  0.00  0.00     0.035 A 
ATOM     26  C   UNL d   1      53.342  29.708  54.248  0.00  0.00     0.007 A 
ATOM     27  C   UNL d   1      53.432  30.471  53.937  0.00  0.00     0.007 A 
ENDBRANCH  22  23
ENDBRANCH  21  22
ENDBRANCH  19  21
ENDBRANCH   2  19
BRANCH   5  28
ATOM     28  O   UNL d   1      49.903  34.717  53.117  0.00  0.00    -0.328 OA
ATOM     29  C   UNL d   1      49.321  34.836  52.539  0.00  0.00     0.181 C 
ENDBRANCH   5  28
TORSDOF 9
ENDMDL
MODEL 5
REMARK VINA RESULT:      -6.3      1.548      3.384
REMARK  9 active torsions:
REMARK  status: ('A' for Active; 'I' for Inactive)
REMARK    1  A    between atoms: C_6  and  N_1 
REMARK    2  A    between atoms: C_2  and  O_5 
REMARK    3  A    between atoms: C_8  and  C_3 
REMARK    4  A    between atoms: C_4  and  C_9 
REMARK    5  A    between atoms: O_5  and  C_4 
REMARK    6  A    between atoms: C_7  and  C_8 
REMARK    7  A    between atoms: C_13  and  C_7 
REMARK    8  A    between atoms: C_10  and  C_13 
REMARK    9  A    between atoms: O_25  and  C_23 
ROOT
ATOM      1  C   UNL d   1      52.046  33.021  52.922  0.00  0.00     0.108 A 
ATOM      2  C   UNL d   1      52.464  33.719  53.065  0.00  0.00     0.062 A 
ATOM      3  C   UNL d   1      51.220  33.047  52.818  0.00  0.00     0.049 A 
ATOM      4  C   UNL d   1      52.056  34.445  53.105  0.00  0.00     0.007 A 
ATOM      5  C   UNL d   1      50.820  33.768  52.858  0.00  0.00     0.096 A 
ATOM      6  C   UNL d   1      51.238  34.466  53.001  0.00  0.00     0.024 A 
ENDROOT
BRANCH   1   7
ATOM      7  O   UNL d   1      52.444  32.297  52.881  0.00  0.00    -0.273 OA
BRANCH   7   8
ATOM      8  C   UNL d   1      52.048  31.600  53.084  0.00  0.00     0.300 C 
ATOM      9  O   UNL d   1      51.241  31.610  53.245  0.00  0.00    -0.259 OA
BRANCH   8  10
ATOM     10  C   UNL d   1      52.469  30.891  53.124  0.00  0.00     0.065 A 
ATOM     11  C   UNL d   1      52.596  30.540  53.858  0.00  0.00     0.029 A 
ATOM     12  C   UNL d   1      53.014  29.836  53.900  0.00  0.00     0.127 A 
ATOM     13  C   UNL d   1      53.306  29.484  53.210  0.00  0.00     0.024 A 
ATOM     14  C   UNL d   1      53.174  29.842  52.486  0.00  0.00     0.002 A 
ATOM     15  C   UNL d   1      52.757  30.544  52.442  0.00  0.00     0.005 A 
BRANCH  12  16
ATOM     16  N   UNL d   1      53.143  29.480  54.635  0.00  0.00    -0.114 N 
ATOM     17  O   UNL d   1      53.334  29.944  55.288  0.00  0.00    -0.532 OA
ATOM     18  O   UNL d   1      53.081  28.651  54.717  0.00  0.00    -0.532 OA
ENDBRANCH  12  16
ENDBRANCH   8  10
ENDBRANCH   7   8
ENDBRANCH   1   7
BRANCH   2  19
ATOM     19  C   UNL d   1      53.286  33.696  53.169  0.00  0.00     0.198 C 
ATOM     20  O   UNL d   1      53.782  33.601  52.515  0.00  0.00    -0.286 OA
BRANCH  19  21
ATOM     21  C   UNL d   1      53.608  33.768  53.925  0.00  0.00     0.043 C 
BRANCH  21  22
ATOM     22  C   UNL d   1      54.421  33.680  54.035  0.00  0.00     0.010 C 
BRANCH  22  23
ATOM     23  C   UNL d   1      54.734  33.678  54.799  0.00  0.00     0.030 A 
ATOM     24  S   UNL d   1      55.389  34.106  55.065  0.00  0.00    -0.086 SA
ATOM     25  C   UNL d   1      55.507  33.939  55.865  0.00  0.00     0.035 A 
ATOM     26  C   UNL d   1      54.924  33.405  56.102  0.00  0.00     0.007 A 
ATOM     27  C   UNL d   1      54.446  33.242  55.445  0.00  0.00     0.007 A 
ENDBRANCH  22  23
ENDBRANCH  21  22
ENDBRANCH  19  21
ENDBRANCH   2  19
BRANCH   5  28
ATOM     28  O   UNL d   1      50.002  33.789  52.755  0.00  0.00    -0.328 OA
ATOM     29  C   UNL d   1      49.621  34.511  52.611  0.00  0.00     0.181 C 
ENDBRANCH   5  28
TORSDOF 9
ENDMDL
MODEL 6
REMARK VINA RESULT:      -6.0      2.186      4.814
REMARK  9 active torsions:
REMARK  status: ('A' for Active; 'I' for Inactive)
REMARK    1  A    between atoms: C_6  and  N_1 
REMARK    2  A    between atoms: C_2  and  O_5 
REMARK    3  A    between atoms: C_8  and  C_3 
REMARK    4  A    between atoms: C_4  and  C_9 
REMARK    5  A    between atoms: O_5  and  C_4 
REMARK    6  A    between atoms: C_7  and  C_8 
REMARK    7  A    between atoms: C_13  and  C_7 
REMARK    8  A    between atoms: C_10  and  C_13 
REMARK    9  A    between atoms: O_25  and  C_23 
ROOT
ATOM      1  C   UNL d   1      52.616  31.636  53.117  0.00  0.00     0.108 A 
ATOM      2  C   UNL d   1      53.429  31.555  53.237  0.00  0.00     0.062 A 
ATOM      3  C   UNL d   1      52.131  30.959  53.096  0.00  0.00     0.049 A 
ATOM      4  C   UNL d   1      53.759  30.797  53.338  0.00  0.00     0.007 A 
ATOM      5  C   UNL d   1      52.462  30.210  53.196  0.00  0.00     0.096 A 
ATOM      6  C   UNL d   1      53.275  30.129  53.316  0.00  0.00     0.024 A 
ENDROOT
BRANCH   1   7
ATOM      7  O   UNL d   1      52.281  32.386  53.016  0.00  0.00    -0.273 OA
BRANCH   7   8
ATOM      8  C   UNL d   1      51.476  32.499  53.166  0.00  0.00     0.300 C 
ATOM      9  O   UNL d   1      51.004  31.869  53.405  0.00  0.00    -0.259 OA
BRANCH   8  10
ATOM     10  C   UNL d   1      51.148  33.251  53.075  0.00  0.00     0.065 A 
ATOM     11  C   UNL d   1      50.703  33.416  52.403  0.00  0.00     0.029 A 
ATOM     12  C   UNL d   1      50.376  34.163  52.310  0.00  0.00     0.127 A 
ATOM     13  C   UNL d   1      50.494  34.743  52.888  0.00  0.00     0.024 A 
ATOM     14  C   UNL d   1      50.938  34.567  53.553  0.00  0.00     0.002 A 
ATOM     15  C   UNL d   1      51.265  33.823  53.647  0.00  0.00     0.005 A 
BRANCH  12  16
ATOM     16  N   UNL d   1      49.928  34.333  51.636  0.00  0.00    -0.114 N 
ATOM     17  O   UNL d   1      49.120  34.476  51.706  0.00  0.00    -0.532 OA
ATOM     18  O   UNL d   1      50.293  34.359  50.885  0.00  0.00    -0.532 OA
ENDBRANCH  12  16
ENDBRANCH   8  10
ENDBRANCH   7   8
ENDBRANCH   1   7
BRANCH   2  19
ATOM     19  C   UNL d   1      53.914  32.227  53.258  0.00  0.00     0.198 C 
ATOM     20  O   UNL d   1      54.122  32.608  52.556  0.00  0.00    -0.286 OA
BRANCH  19  21
ATOM     21  C   UNL d   1      54.188  32.515  53.982  0.00  0.00     0.043 C 
BRANCH  21  22
ATOM     22  C   UNL d   1      54.777  33.092  53.997  0.00  0.00     0.010 C 
BRANCH  22  23
ATOM     23  C   UNL d   1      54.954  33.479  54.704  0.00  0.00     0.030 A 
ATOM     24  S   UNL d   1      55.506  34.086  54.810  0.00  0.00    -0.086 SA
ATOM     25  C   UNL d   1      55.503  34.310  55.604  0.00  0.00     0.035 A 
ATOM     26  C   UNL d   1      54.948  33.843  55.999  0.00  0.00     0.007 A 
ATOM     27  C   UNL d   1      54.608  33.330  55.444  0.00  0.00     0.007 A 
ENDBRANCH  22  23
ENDBRANCH  21  22
ENDBRANCH  19  21
ENDBRANCH   2  19
BRANCH   5  28
ATOM     28  O   UNL d   1      51.978  29.542  53.174  0.00  0.00    -0.328 OA
ATOM     29  C   UNL d   1      52.236  28.833  53.518  0.00  0.00     0.181 C 
ENDBRANCH   5  28
TORSDOF 9
ENDMDL
