MODEL 1
REMARK VINA RESULT:      10.6      0.000      0.000
REMARK  4 active torsions:
REMARK  status: ('A' for Active; 'I' for Inactive)
REMARK    1  A    between atoms: C_13  and  N_1 
REMARK    2  A    between atoms: N_6  and  C_15 
REMARK    3  A    between atoms: C_14  and  C_13 
REMARK    4  A    between atoms: C_15  and  C_14 
ROOT
ATOM      1  C   UNL d   1      45.666 -15.352  44.955  0.00  0.00     0.087 C 
ENDROOT
BRANCH   1   2
ATOM      2  N   UNL d   1      45.503 -14.606  44.641  0.00  0.00    -0.248 N 
ATOM      3  C   UNL d   1      44.790 -14.232  44.668  0.00  0.00     0.208 A 
ATOM      4  N   UNL d   1      44.872 -13.522  44.300  0.00  0.00    -0.212 NA
ATOM      5  S   UNL d   1      44.099 -14.403  44.953  0.00  0.00    -0.038 SA
ATOM      6  C   UNL d   1      45.628 -13.457  44.047  0.00  0.00     0.162 A 
ATOM      7  C   UNL d   1      46.017 -14.134  44.261  0.00  0.00     0.286 A 
ATOM      8  O   UNL d   1      46.640 -14.074  44.050  0.00  0.00    -0.265 OA
ENDBRANCH   1   2
BRANCH   1   9
ATOM      9  C   UNL d   1      45.781 -15.997  44.452  0.00  0.00     0.038 C 
BRANCH   9  10
ATOM     10  C   UNL d   1      45.940 -16.745  44.766  0.00  0.00     0.083 C 
BRANCH  10  11
ATOM     11  N   UNL d   1      46.124 -17.372  44.264  0.00  0.00    -0.285 N 
ATOM     12  C   UNL d   1      46.050 -17.372  43.446  0.00  0.00     0.183 A 
ATOM     13  N   UNL d   1      46.297 -18.116  43.170  0.00  0.00    -0.222 NA
ATOM     14  C   UNL d   1      46.521 -18.568  43.814  0.00  0.00     0.120 A 
ATOM     15  C   UNL d   1      46.414 -18.108  44.491  0.00  0.00     0.102 A 
ENDBRANCH  10  11
ENDBRANCH   9  10
ENDBRANCH   1   9
TORSDOF 4
ENDMDL
MODEL 2
REMARK VINA RESULT:      11.6      1.196      1.710
REMARK  4 active torsions:
REMARK  status: ('A' for Active; 'I' for Inactive)
REMARK    1  A    between atoms: C_13  and  N_1 
REMARK    2  A    between atoms: N_6  and  C_15 
REMARK    3  A    between atoms: C_14  and  C_13 
REMARK    4  A    between atoms: C_15  and  C_14 
ROOT
ATOM      1  C   UNL d   1      44.939 -13.863  44.409  0.00  0.00     0.087 C 
ENDROOT
BRANCH   1   2
ATOM      2  N   UNL d   1      45.258 -13.151  44.138  0.00  0.00    -0.248 N 
ATOM      3  C   UNL d   1      45.000 -12.736  43.497  0.00  0.00     0.208 A 
ATOM      4  N   UNL d   1      45.460 -12.080  43.429  0.00  0.00    -0.212 NA
ATOM      5  S   UNL d   1      44.445 -12.833  42.978  0.00  0.00    -0.038 SA
ATOM      6  C   UNL d   1      45.997 -12.089  44.022  0.00  0.00     0.162 A 
ATOM      7  C   UNL d   1      45.868 -12.757  44.460  0.00  0.00     0.286 A 
ATOM      8  O   UNL d   1      46.315 -12.758  44.947  0.00  0.00    -0.265 OA
ENDBRANCH   1   2
BRANCH   1   9
ATOM      9  C   UNL d   1      45.439 -14.483  44.630  0.00  0.00     0.038 C 
BRANCH   9  10
ATOM     10  C   UNL d   1      45.121 -15.218  44.835  0.00  0.00     0.083 C 
BRANCH  10  11
ATOM     11  N   UNL d   1      45.483 -15.910  44.573  0.00  0.00    -0.285 N 
ATOM     12  C   UNL d   1      45.920 -15.995  43.882  0.00  0.00     0.183 A 
ATOM     13  N   UNL d   1      46.179 -16.782  43.841  0.00  0.00    -0.222 NA
ATOM     14  C   UNL d   1      45.903 -17.179  44.502  0.00  0.00     0.120 A 
ATOM     15  C   UNL d   1      45.473 -16.640  44.955  0.00  0.00     0.102 A 
ENDBRANCH  10  11
ENDBRANCH   9  10
ENDBRANCH   1   9
TORSDOF 4
ENDMDL
MODEL 3
REMARK VINA RESULT:      11.7      7.662      8.224
REMARK  4 active torsions:
REMARK  status: ('A' for Active; 'I' for Inactive)
REMARK    1  A    between atoms: C_13  and  N_1 
REMARK    2  A    between atoms: N_6  and  C_15 
REMARK    3  A    between atoms: C_14  and  C_13 
REMARK    4  A    between atoms: C_15  and  C_14 
ROOT
ATOM      1  C   UNL d   1      44.833 -15.559  37.001  0.00  0.00     0.087 C 
ENDROOT
BRANCH   1   2
ATOM      2  N   UNL d   1      45.467 -15.031  36.956  0.00  0.00    -0.248 N 
ATOM      3  C   UNL d   1      46.194 -15.198  36.653  0.00  0.00     0.208 A 
ATOM      4  N   UNL d   1      46.643 -14.533  36.715  0.00  0.00    -0.212 NA
ATOM      5  S   UNL d   1      46.522 -15.816  36.340  0.00  0.00    -0.038 SA
ATOM      6  C   UNL d   1      46.198 -13.962  37.053  0.00  0.00     0.162 A 
ATOM      7  C   UNL d   1      45.467 -14.275  37.201  0.00  0.00     0.286 A 
ATOM      8  O   UNL d   1      45.104 -13.798  37.480  0.00  0.00    -0.265 OA
ENDBRANCH   1   2
BRANCH   1   9
ATOM      9  C   UNL d   1      44.180 -15.465  36.503  0.00  0.00     0.038 C 
BRANCH   9  10
ATOM     10  C   UNL d   1      43.640 -16.084  36.407  0.00  0.00     0.083 C 
BRANCH  10  11
ATOM     11  N   UNL d   1      42.833 -15.926  36.389  0.00  0.00    -0.285 N 
ATOM     12  C   UNL d   1      42.233 -16.485  36.333  0.00  0.00     0.183 A 
ATOM     13  N   UNL d   1      41.508 -16.080  36.332  0.00  0.00    -0.222 NA
ATOM     14  C   UNL d   1      41.661 -15.277  36.388  0.00  0.00     0.120 A 
ATOM     15  C   UNL d   1      42.481 -15.182  36.423  0.00  0.00     0.102 A 
ENDBRANCH  10  11
ENDBRANCH   9  10
ENDBRANCH   1   9
TORSDOF 4
ENDMDL
MODEL 4
REMARK VINA RESULT:      13.4      1.998      4.036
REMARK  4 active torsions:
REMARK  status: ('A' for Active; 'I' for Inactive)
REMARK    1  A    between atoms: C_13  and  N_1 
REMARK    2  A    between atoms: N_6  and  C_15 
REMARK    3  A    between atoms: C_14  and  C_13 
REMARK    4  A    between atoms: C_15  and  C_14 
ROOT
ATOM      1  C   UNL d   1      45.095 -13.653  44.645  0.00  0.00     0.087 C 
ENDROOT
BRANCH   1   2
ATOM      2  N   UNL d   1      45.205 -14.466  44.745  0.00  0.00    -0.248 N 
ATOM      3  C   UNL d   1      45.916 -14.845  44.753  0.00  0.00     0.208 A 
ATOM      4  N   UNL d   1      45.774 -15.629  44.865  0.00  0.00    -0.212 NA
ATOM      5  S   UNL d   1      46.647 -14.626  44.680  0.00  0.00    -0.038 SA
ATOM      6  C   UNL d   1      44.983 -15.733  44.926  0.00  0.00     0.162 A 
ATOM      7  C   UNL d   1      44.633 -15.007  44.851  0.00  0.00     0.286 A 
ATOM      8  O   UNL d   1      43.981 -15.100  44.903  0.00  0.00    -0.265 OA
ENDBRANCH   1   2
BRANCH   1   9
ATOM      9  C   UNL d   1      45.734 -13.172  44.438  0.00  0.00     0.038 C 
BRANCH   9  10
ATOM     10  C   UNL d   1      45.602 -12.404  44.161  0.00  0.00     0.083 C 
BRANCH  10  11
ATOM     11  N   UNL d   1      45.263 -12.287  43.420  0.00  0.00    -0.285 N 
ATOM     12  C   UNL d   1      45.671 -12.180  42.714  0.00  0.00     0.183 A 
ATOM     13  N   UNL d   1      45.110 -12.082  42.110  0.00  0.00    -0.222 NA
ATOM     14  C   UNL d   1      44.363 -12.128  42.442  0.00  0.00     0.120 A 
ATOM     15  C   UNL d   1      44.458 -12.255  43.252  0.00  0.00     0.102 A 
ENDBRANCH  10  11
ENDBRANCH   9  10
ENDBRANCH   1   9
TORSDOF 4
ENDMDL
