MODEL 1
REMARK VINA RESULT:      -2.5      0.000      0.000
REMARK  4 active torsions:
REMARK  status: ('A' for Active; 'I' for Inactive)
REMARK    1  A    between atoms: C_10  and  C_3 
REMARK    2  A    between atoms: C_12  and  C_5 
REMARK    3  A    between atoms: C_15  and  C_12 
REMARK    4  A    between atoms: C_18  and  C_15 
ROOT
ATOM      1  C   UNL d   1      33.233  21.260 -22.435  0.00  0.00     0.152 A 
ATOM      2  N   UNL d   1      33.236  20.915 -21.674  0.00  0.00    -0.258 N 
ATOM      3  C   UNL d   1      33.233  22.079 -22.516  0.00  0.00     0.056 A 
ATOM      4  C   UNL d   1      33.238  21.396 -21.005  0.00  0.00     0.266 A 
ATOM      5  C   UNL d   1      33.238  22.224 -21.082  0.00  0.00     0.057 A 
ATOM      6  N   UNL d   1      33.231  20.771 -23.108  0.00  0.00    -0.227 NA
ATOM      7  C   UNL d   1      33.236  22.568 -21.844  0.00  0.00     0.009 A 
ATOM      8  C   UNL d   1      33.234  19.602 -22.268  0.00  0.00     0.086 A 
ATOM      9  C   UNL d   1      33.231  19.934 -23.035  0.00  0.00     0.099 A 
ATOM     10  O   UNL d   1      33.241  21.045 -20.230  0.00  0.00    -0.267 OA
ATOM     11  C   UNL d   1      33.235  23.386 -21.930  0.00  0.00     0.000 C 
ATOM     12  C   UNL d   1      33.234  18.774 -22.191  0.00  0.00     0.019 A 
ATOM     13  C   UNL d   1      33.229  19.454 -23.694  0.00  0.00     0.021 A 
ATOM     14  C   UNL d   1      33.231  18.304 -22.870  0.00  0.00     0.002 A 
ATOM     15  C   UNL d   1      33.229  18.639 -23.610  0.00  0.00     0.002 A 
ENDROOT
BRANCH   5  16
ATOM     16  C   UNL d   1      33.241  22.710 -20.415  0.00  0.00     0.005 C 
BRANCH  16  17
ATOM     17  C   UNL d   1      32.625  22.673 -19.874  0.00  0.00     0.000 C 
BRANCH  17  18
ATOM     18  C   UNL d   1      32.603  23.202 -19.248  0.00  0.00     0.000 C 
ATOM     19  C   UNL d   1      31.949  23.702 -19.163  0.00  0.00     0.000 C 
ATOM     20  C   UNL d   1      33.227  23.237 -18.707  0.00  0.00     0.000 C 
ENDBRANCH  17  18
ENDBRANCH  16  17
ENDBRANCH   5  16
BRANCH   3  21
ATOM     21  C   UNL d   1      33.231  22.414 -23.267  0.00  0.00     0.125 C 
ATOM     22  N   UNL d   1      32.663  22.969 -23.471  0.00  0.00    -0.146 N 
ENDBRANCH   3  21
TORSDOF 4
ENDMDL
MODEL 2
REMARK VINA RESULT:      -2.4      1.590      4.816
REMARK  4 active torsions:
REMARK  status: ('A' for Active; 'I' for Inactive)
REMARK    1  A    between atoms: C_10  and  C_3 
REMARK    2  A    between atoms: C_12  and  C_5 
REMARK    3  A    between atoms: C_15  and  C_12 
REMARK    4  A    between atoms: C_18  and  C_15 
ROOT
ATOM      1  C   UNL d   1      33.235  19.801 -23.244  0.00  0.00     0.152 A 
ATOM      2  N   UNL d   1      33.233  19.250 -22.614  0.00  0.00    -0.258 N 
ATOM      3  C   UNL d   1      33.237  19.535 -24.022  0.00  0.00     0.056 A 
ATOM      4  C   UNL d   1      33.233  18.443 -22.774  0.00  0.00     0.266 A 
ATOM      5  C   UNL d   1      33.235  18.169 -23.559  0.00  0.00     0.057 A 
ATOM      6  N   UNL d   1      33.235  20.616 -23.077  0.00  0.00    -0.227 NA
ATOM      7  C   UNL d   1      33.237  18.720 -24.189  0.00  0.00     0.009 A 
ATOM      8  C   UNL d   1      33.231  20.335 -21.666  0.00  0.00     0.086 A 
ATOM      9  C   UNL d   1      33.233  20.896 -22.286  0.00  0.00     0.099 A 
ATOM     10  O   UNL d   1      33.231  17.883 -22.134  0.00  0.00    -0.267 OA
ATOM     11  C   UNL d   1      33.239  18.460 -24.969  0.00  0.00     0.000 C 
ATOM     12  C   UNL d   1      33.229  20.609 -20.880  0.00  0.00     0.019 A 
ATOM     13  C   UNL d   1      33.233  21.694 -22.122  0.00  0.00     0.021 A 
ATOM     14  C   UNL d   1      33.229  21.422 -20.734  0.00  0.00     0.002 A 
ATOM     15  C   UNL d   1      33.231  21.956 -21.345  0.00  0.00     0.002 A 
ENDROOT
BRANCH   5  16
ATOM     16  C   UNL d   1      33.235  17.361 -23.726  0.00  0.00     0.005 C 
BRANCH  16  17
ATOM     17  C   UNL d   1      32.591  16.897 -23.522  0.00  0.00     0.000 C 
BRANCH  17  18
ATOM     18  C   UNL d   1      32.557  16.117 -23.772  0.00  0.00     0.000 C 
ATOM     19  C   UNL d   1      33.210  15.622 -23.647  0.00  0.00     0.000 C 
ATOM     20  C   UNL d   1      31.880  15.826 -24.145  0.00  0.00     0.000 C 
ENDBRANCH  17  18
ENDBRANCH  16  17
ENDBRANCH   5  16
BRANCH   3  21
ATOM     21  C   UNL d   1      33.239  20.079 -24.638  0.00  0.00     0.125 C 
ATOM     22  N   UNL d   1      32.568  20.189 -25.096  0.00  0.00    -0.146 N 
ENDBRANCH   3  21
TORSDOF 4
ENDMDL
MODEL 3
REMARK VINA RESULT:      -2.2      0.839      4.007
REMARK  4 active torsions:
REMARK  status: ('A' for Active; 'I' for Inactive)
REMARK    1  A    between atoms: C_10  and  C_3 
REMARK    2  A    between atoms: C_12  and  C_5 
REMARK    3  A    between atoms: C_15  and  C_12 
REMARK    4  A    between atoms: C_18  and  C_15 
ROOT
ATOM      1  C   UNL d   1      33.142  22.094 -21.923  0.00  0.00     0.152 A 
ATOM      2  N   UNL d   1      33.142  21.404 -21.452  0.00  0.00    -0.258 N 
ATOM      3  C   UNL d   1      33.175  22.033 -22.743  0.00  0.00     0.056 A 
ATOM      4  C   UNL d   1      33.175  20.663 -21.809  0.00  0.00     0.266 A 
ATOM      5  C   UNL d   1      33.208  20.596 -22.637  0.00  0.00     0.057 A 
ATOM      6  N   UNL d   1      33.109  22.841 -21.558  0.00  0.00    -0.227 NA
ATOM      7  C   UNL d   1      33.208  21.286 -23.108  0.00  0.00     0.009 A 
ATOM      8  C   UNL d   1      33.076  22.215 -20.263  0.00  0.00     0.086 A 
ATOM      9  C   UNL d   1      33.075  22.913 -20.722  0.00  0.00     0.099 A 
ATOM     10  O   UNL d   1      33.174  19.960 -21.330  0.00  0.00    -0.267 OA
ATOM     11  C   UNL d   1      33.241  21.231 -23.928  0.00  0.00     0.000 C 
ATOM     12  C   UNL d   1      33.042  22.282 -19.435  0.00  0.00     0.019 A 
ATOM     13  C   UNL d   1      33.042  23.644 -20.364  0.00  0.00     0.021 A 
ATOM     14  C   UNL d   1      33.010  23.032 -19.090  0.00  0.00     0.002 A 
ATOM     15  C   UNL d   1      33.010  23.702 -19.547  0.00  0.00     0.002 A 
ENDROOT
BRANCH   5  16
ATOM     16  C   UNL d   1      33.241  19.855 -23.001  0.00  0.00     0.005 C 
BRANCH  16  17
ATOM     17  C   UNL d   1      32.660  19.296 -22.854  0.00  0.00     0.000 C 
BRANCH  17  18
ATOM     18  C   UNL d   1      32.699  18.564 -23.220  0.00  0.00     0.000 C 
ATOM     19  C   UNL d   1      33.172  17.970 -22.889  0.00  0.00     0.000 C 
ATOM     20  C   UNL d   1      32.272  18.418 -23.912  0.00  0.00     0.000 C 
ENDBRANCH  17  18
ENDBRANCH  16  17
ENDBRANCH   5  16
BRANCH   3  21
ATOM     21  C   UNL d   1      33.175  22.714 -23.203  0.00  0.00     0.125 C 
ATOM     22  N   UNL d   1      32.507  22.929 -23.626  0.00  0.00    -0.146 N 
ENDBRANCH   3  21
TORSDOF 4
ENDMDL
MODEL 4
REMARK VINA RESULT:      -2.2      1.839      2.933
REMARK  4 active torsions:
REMARK  status: ('A' for Active; 'I' for Inactive)
REMARK    1  A    between atoms: C_10  and  C_3 
REMARK    2  A    between atoms: C_12  and  C_5 
REMARK    3  A    between atoms: C_15  and  C_12 
REMARK    4  A    between atoms: C_18  and  C_15 
ROOT
ATOM      1  C   UNL d   1      33.189  18.564 -23.770  0.00  0.00     0.152 A 
ATOM      2  N   UNL d   1      33.188  18.357 -22.960  0.00  0.00    -0.258 N 
ATOM      3  C   UNL d   1      33.206  19.356 -23.991  0.00  0.00     0.056 A 
ATOM      4  C   UNL d   1      33.205  18.945 -22.385  0.00  0.00     0.266 A 
ATOM      5  C   UNL d   1      33.223  19.747 -22.604  0.00  0.00     0.057 A 
ATOM      6  N   UNL d   1      33.171  17.965 -24.347  0.00  0.00    -0.227 NA
ATOM      7  C   UNL d   1      33.224  19.955 -23.414  0.00  0.00     0.009 A 
ATOM      8  C   UNL d   1      33.153  16.961 -23.317  0.00  0.00     0.086 A 
ATOM      9  C   UNL d   1      33.153  17.155 -24.130  0.00  0.00     0.099 A 
ATOM     10  O   UNL d   1      33.205  18.734 -21.561  0.00  0.00    -0.267 OA
ATOM     11  C   UNL d   1      33.241  20.744 -23.642  0.00  0.00     0.000 C 
ATOM     12  C   UNL d   1      33.135  16.159 -23.098  0.00  0.00     0.019 A 
ATOM     13  C   UNL d   1      33.136  16.567 -24.695  0.00  0.00     0.021 A 
ATOM     14  C   UNL d   1      33.118  15.578 -23.685  0.00  0.00     0.002 A 
ATOM     15  C   UNL d   1      33.119  15.780 -24.472  0.00  0.00     0.002 A 
ENDROOT
BRANCH   5  16
ATOM     16  C   UNL d   1      33.240  20.342 -22.032  0.00  0.00     0.005 C 
BRANCH  16  17
ATOM     17  C   UNL d   1      32.561  20.535 -21.616  0.00  0.00     0.000 C 
BRANCH  17  18
ATOM     18  C   UNL d   1      32.587  21.125 -21.046  0.00  0.00     0.000 C 
ATOM     19  C   UNL d   1      31.954  21.654 -20.982  0.00  0.00     0.000 C 
ATOM     20  C   UNL d   1      33.238  21.191 -20.542  0.00  0.00     0.000 C 
ENDBRANCH  17  18
ENDBRANCH  16  17
ENDBRANCH   5  16
BRANCH   3  21
ATOM     21  C   UNL d   1      33.207  19.556 -24.789  0.00  0.00     0.125 C 
ATOM     22  N   UNL d   1      32.740  20.172 -25.062  0.00  0.00    -0.146 N 
ENDBRANCH   3  21
TORSDOF 4
ENDMDL
MODEL 5
REMARK VINA RESULT:      -1.1      1.822      2.810
REMARK  4 active torsions:
REMARK  status: ('A' for Active; 'I' for Inactive)
REMARK    1  A    between atoms: C_10  and  C_3 
REMARK    2  A    between atoms: C_12  and  C_5 
REMARK    3  A    between atoms: C_15  and  C_12 
REMARK    4  A    between atoms: C_18  and  C_15 
ROOT
ATOM      1  C   UNL d   1      33.115  19.546 -22.650  0.00  0.00     0.152 A 
ATOM      2  N   UNL d   1      33.116  19.921 -23.397  0.00  0.00    -0.258 N 
ATOM      3  C   UNL d   1      33.156  19.998 -21.963  0.00  0.00     0.056 A 
ATOM      4  C   UNL d   1      33.157  20.742 -23.445  0.00  0.00     0.266 A 
ATOM      5  C   UNL d   1      33.199  21.202 -22.754  0.00  0.00     0.057 A 
ATOM      6  N   UNL d   1      33.073  18.717 -22.606  0.00  0.00    -0.227 NA
ATOM      7  C   UNL d   1      33.199  20.827 -22.007  0.00  0.00     0.009 A 
ATOM      8  C   UNL d   1      33.032  18.636 -24.042  0.00  0.00     0.086 A 
ATOM      9  C   UNL d   1      33.031  18.248 -23.302  0.00  0.00     0.099 A 
ATOM     10  O   UNL d   1      33.158  21.124 -24.206  0.00  0.00    -0.267 OA
ATOM     11  C   UNL d   1      33.240  21.273 -21.317  0.00  0.00     0.000 C 
ATOM     12  C   UNL d   1      32.990  18.175 -24.734  0.00  0.00     0.019 A 
ATOM     13  C   UNL d   1      32.990  17.435 -23.260  0.00  0.00     0.021 A 
ATOM     14  C   UNL d   1      32.949  17.353 -24.671  0.00  0.00     0.002 A 
ATOM     15  C   UNL d   1      32.949  16.988 -23.945  0.00  0.00     0.002 A 
ENDROOT
BRANCH   5  16
ATOM     16  C   UNL d   1      33.241  22.026 -22.796  0.00  0.00     0.005 C 
BRANCH  16  17
ATOM     17  C   UNL d   1      32.642  22.452 -23.159  0.00  0.00     0.000 C 
BRANCH  17  18
ATOM     18  C   UNL d   1      32.662  23.272 -23.147  0.00  0.00     0.000 C 
ATOM     19  C   UNL d   1      32.238  23.679 -22.564  0.00  0.00     0.000 C 
ATOM     20  C   UNL d   1      33.101  23.688 -23.709  0.00  0.00     0.000 C 
ENDBRANCH  17  18
ENDBRANCH  16  17
ENDBRANCH   5  16
BRANCH   3  21
ATOM     21  C   UNL d   1      33.156  19.626 -21.230  0.00  0.00     0.125 C 
ATOM     22  N   UNL d   1      33.179  20.068 -20.541  0.00  0.00    -0.146 N 
ENDBRANCH   3  21
TORSDOF 4
ENDMDL
