MODEL 1
REMARK VINA RESULT:      -6.6      0.000      0.000
REMARK  5 active torsions:
REMARK  status: ('A' for Active; 'I' for Inactive)
REMARK    1  A    between atoms: C_4  and  C_1 
REMARK    2  A    between atoms: S_2  and  C_4 
REMARK    3  A    between atoms: C_8  and  S_2 
REMARK    4  A    between atoms: N_5  and  C_3 
REMARK    5  A    between atoms: C_9  and  C_4 
ROOT
ATOM      1  C   UNL d   1      52.850  32.809  53.270  0.00  0.00     0.128 A 
ATOM      2  C   UNL d   1      52.931  33.356  53.873  0.00  0.00     0.166 A 
ATOM      3  N   UNL d   1      52.215  32.856  52.749  0.00  0.00    -0.240 NA
ATOM      4  N   UNL d   1      52.379  33.956  53.961  0.00  0.00    -0.225 NA
ATOM      5  C   UNL d   1      51.667  33.457  52.841  0.00  0.00     0.099 A 
ATOM      6  C   UNL d   1      51.742  34.008  53.442  0.00  0.00     0.101 A 
ATOM      7  C   UNL d   1      51.189  34.603  53.525  0.00  0.00     0.021 A 
ATOM      8  C   UNL d   1      51.029  33.507  52.319  0.00  0.00     0.021 A 
ATOM      9  C   UNL d   1      50.559  34.653  53.010  0.00  0.00     0.002 A 
ATOM     10  C   UNL d   1      50.481  34.104  52.409  0.00  0.00     0.002 A 
ENDROOT
BRANCH   1  11
ATOM     11  C   UNL d   1      53.398  32.208  53.177  0.00  0.00     0.129 C 
BRANCH  11  12
ATOM     12  S   UNL d   1      53.103  31.411  52.923  0.00  0.00     0.213 S 
ATOM     13  O   UNL d   1      53.035  31.260  52.053  0.00  0.00    -0.217 OA
ATOM     14  O   UNL d   1      53.247  31.834  52.225  0.00  0.00    -0.217 OA
BRANCH  12  15
ATOM     15  C   UNL d   1      52.864  30.735  53.341  0.00  0.00     0.088 A 
ATOM     16  C   UNL d   1      53.441  30.217  53.642  0.00  0.00     0.011 A 
ATOM     17  C   UNL d   1      53.197  29.547  54.057  0.00  0.00     0.001 A 
ATOM     18  C   UNL d   1      53.758  29.030  54.358  0.00  0.00     0.000 C 
ATOM     19  C   UNL d   1      52.395  29.391  54.172  0.00  0.00     0.000 A 
ATOM     20  C   UNL d   1      51.827  29.917  53.866  0.00  0.00     0.001 A 
ATOM     21  C   UNL d   1      52.073  30.584  53.454  0.00  0.00     0.011 A 
ENDBRANCH  12  15
ENDBRANCH  11  12
BRANCH  11  22
ATOM     22  C   UNL d   1      54.254  32.216  53.289  0.00  0.00     0.135 C 
ATOM     23  N   UNL d   1      54.886  32.076  52.689  0.00  0.00    -0.146 N 
ENDBRANCH  11  22
ENDBRANCH   1  11
BRANCH   2  24
ATOM     24  N   UNL d   1      53.571  33.302  54.393  0.00  0.00    -0.284 N 
ATOM     25  C   UNL d   1      54.268  33.732  54.235  0.00  0.00     0.106 A 
ATOM     26  C   UNL d   1      54.908  33.671  54.766  0.00  0.00     0.118 A 
ATOM     27  C   UNL d   1      55.605  34.101  54.608  0.00  0.00     0.028 C 
ATOM     28  O   UNL d   1      54.852  33.190  55.441  0.00  0.00    -0.304 OA
ATOM     29  C   UNL d   1      54.157  32.770  55.586  0.00  0.00     0.118 A 
ATOM     30  C   UNL d   1      53.516  32.821  55.069  0.00  0.00     0.106 A 
ATOM     31  C   UNL d   1      54.098  32.288  56.260  0.00  0.00     0.028 C 
ENDBRANCH   2  24
TORSDOF 5
ENDMDL
MODEL 2
REMARK VINA RESULT:      -5.8      1.015      3.254
REMARK  5 active torsions:
REMARK  status: ('A' for Active; 'I' for Inactive)
REMARK    1  A    between atoms: C_4  and  C_1 
REMARK    2  A    between atoms: S_2  and  C_4 
REMARK    3  A    between atoms: C_8  and  S_2 
REMARK    4  A    between atoms: N_5  and  C_3 
REMARK    5  A    between atoms: C_9  and  C_4 
ROOT
ATOM      1  C   UNL d   1      53.329  31.980  53.608  0.00  0.00     0.128 A 
ATOM      2  C   UNL d   1      53.689  31.999  54.343  0.00  0.00     0.166 A 
ATOM      3  N   UNL d   1      53.052  31.269  53.300  0.00  0.00    -0.240 NA
ATOM      4  N   UNL d   1      53.776  31.308  54.777  0.00  0.00    -0.225 NA
ATOM      5  C   UNL d   1      53.142  30.583  53.736  0.00  0.00     0.099 A 
ATOM      6  C   UNL d   1      53.501  30.594  54.472  0.00  0.00     0.101 A 
ATOM      7  C   UNL d   1      53.584  29.903  54.899  0.00  0.00     0.021 A 
ATOM      8  C   UNL d   1      52.865  29.868  53.429  0.00  0.00     0.021 A 
ATOM      9  C   UNL d   1      53.312  29.197  54.596  0.00  0.00     0.002 A 
ATOM     10  C   UNL d   1      52.952  29.182  53.861  0.00  0.00     0.002 A 
ENDROOT
BRANCH   1  11
ATOM     11  C   UNL d   1      53.240  32.666  53.172  0.00  0.00     0.129 C 
BRANCH  11  12
ATOM     12  S   UNL d   1      52.482  32.780  52.726  0.00  0.00     0.213 S 
ATOM     13  O   UNL d   1      52.435  32.445  51.908  0.00  0.00    -0.217 OA
ATOM     14  O   UNL d   1      52.982  32.357  52.219  0.00  0.00    -0.217 OA
BRANCH  12  15
ATOM     15  C   UNL d   1      51.764  33.153  52.914  0.00  0.00     0.088 A 
ATOM     16  C   UNL d   1      51.669  33.961  52.745  0.00  0.00     0.011 A 
ATOM     17  C   UNL d   1      50.953  34.327  52.933  0.00  0.00     0.001 A 
ATOM     18  C   UNL d   1      50.850  35.124  52.771  0.00  0.00     0.000 C 
ATOM     19  C   UNL d   1      50.341  33.899  53.283  0.00  0.00     0.000 A 
ATOM     20  C   UNL d   1      50.448  33.090  53.448  0.00  0.00     0.001 A 
ATOM     21  C   UNL d   1      51.162  32.729  53.259  0.00  0.00     0.011 A 
ENDBRANCH  12  15
ENDBRANCH  11  12
BRANCH  11  22
ATOM     22  C   UNL d   1      53.782  33.330  53.065  0.00  0.00     0.135 C 
ATOM     23  N   UNL d   1      54.152  33.618  52.317  0.00  0.00    -0.146 N 
ENDBRANCH  11  22
ENDBRANCH   1  11
BRANCH   2  24
ATOM     24  N   UNL d   1      53.965  32.716  54.648  0.00  0.00    -0.284 N 
ATOM     25  C   UNL d   1      54.759  32.938  54.524  0.00  0.00     0.106 A 
ATOM     26  C   UNL d   1      55.028  33.664  54.835  0.00  0.00     0.118 A 
ATOM     27  C   UNL d   1      55.822  33.885  54.712  0.00  0.00     0.028 C 
ATOM     28  O   UNL d   1      54.512  34.158  55.260  0.00  0.00    -0.304 OA
ATOM     29  C   UNL d   1      53.728  33.926  55.375  0.00  0.00     0.118 A 
ATOM     30  C   UNL d   1      53.449  33.210  55.073  0.00  0.00     0.106 A 
ATOM     31  C   UNL d   1      53.210  34.417  55.800  0.00  0.00     0.028 C 
ENDBRANCH   2  24
TORSDOF 5
ENDMDL
MODEL 3
REMARK VINA RESULT:      -4.8      1.309      3.862
REMARK  5 active torsions:
REMARK  status: ('A' for Active; 'I' for Inactive)
REMARK    1  A    between atoms: C_4  and  C_1 
REMARK    2  A    between atoms: S_2  and  C_4 
REMARK    3  A    between atoms: C_8  and  S_2 
REMARK    4  A    between atoms: N_5  and  C_3 
REMARK    5  A    between atoms: C_9  and  C_4 
ROOT
ATOM      1  C   UNL d   1      53.028  32.316  53.139  0.00  0.00     0.128 A 
ATOM      2  C   UNL d   1      52.219  32.214  53.063  0.00  0.00     0.166 A 
ATOM      3  N   UNL d   1      53.520  31.667  53.255  0.00  0.00    -0.240 NA
ATOM      4  N   UNL d   1      51.895  31.461  53.102  0.00  0.00    -0.225 NA
ATOM      5  C   UNL d   1      53.191  30.919  53.293  0.00  0.00     0.099 A 
ATOM      6  C   UNL d   1      52.383  30.809  53.218  0.00  0.00     0.101 A 
ATOM      7  C   UNL d   1      52.066  30.057  53.258  0.00  0.00     0.021 A 
ATOM      8  C   UNL d   1      53.683  30.266  53.410  0.00  0.00     0.021 A 
ATOM      9  C   UNL d   1      52.550  29.412  53.372  0.00  0.00     0.002 A 
ATOM     10  C   UNL d   1      53.358  29.519  53.448  0.00  0.00     0.002 A 
ENDROOT
BRANCH   1  11
ATOM     11  C   UNL d   1      53.357  33.064  53.101  0.00  0.00     0.129 C 
BRANCH  11  12
ATOM     12  S   UNL d   1      54.044  33.245  53.632  0.00  0.00     0.213 S 
ATOM     13  O   UNL d   1      54.857  33.141  53.296  0.00  0.00    -0.217 OA
ATOM     14  O   UNL d   1      54.372  33.009  52.908  0.00  0.00    -0.217 OA
BRANCH  12  15
ATOM     15  C   UNL d   1      54.100  33.505  54.418  0.00  0.00     0.088 A 
ATOM     16  C   UNL d   1      53.817  34.260  54.618  0.00  0.00     0.011 A 
ATOM     17  C   UNL d   1      53.875  34.513  55.402  0.00  0.00     0.001 A 
ATOM     18  C   UNL d   1      53.599  35.256  55.610  0.00  0.00     0.000 C 
ATOM     19  C   UNL d   1      54.210  34.026  55.978  0.00  0.00     0.000 A 
ATOM     20  C   UNL d   1      54.490  33.273  55.765  0.00  0.00     0.001 A 
ATOM     21  C   UNL d   1      54.430  33.023  54.984  0.00  0.00     0.011 A 
ENDBRANCH  12  15
ENDBRANCH  11  12
BRANCH  11  22
ATOM     22  C   UNL d   1      53.140  33.741  52.610  0.00  0.00     0.135 C 
ATOM     23  N   UNL d   1      53.672  34.279  52.155  0.00  0.00    -0.146 N 
ENDBRANCH  11  22
ENDBRANCH   1  11
BRANCH   2  24
ATOM     24  N   UNL d   1      51.731  32.870  52.946  0.00  0.00    -0.284 N 
ATOM     25  C   UNL d   1      51.641  33.186  52.180  0.00  0.00     0.106 A 
ATOM     26  C   UNL d   1      51.146  33.848  52.073  0.00  0.00     0.118 A 
ATOM     27  C   UNL d   1      51.056  34.164  51.306  0.00  0.00     0.028 C 
ATOM     28  O   UNL d   1      50.749  34.188  52.719  0.00  0.00    -0.304 OA
ATOM     29  C   UNL d   1      50.847  33.865  53.472  0.00  0.00     0.118 A 
ATOM     30  C   UNL d   1      51.334  33.210  53.592  0.00  0.00     0.106 A 
ATOM     31  C   UNL d   1      50.452  34.202  54.121  0.00  0.00     0.028 C 
ENDBRANCH   2  24
TORSDOF 5
ENDMDL
MODEL 4
REMARK VINA RESULT:      -3.9      1.197      3.163
REMARK  5 active torsions:
REMARK  status: ('A' for Active; 'I' for Inactive)
REMARK    1  A    between atoms: C_4  and  C_1 
REMARK    2  A    between atoms: S_2  and  C_4 
REMARK    3  A    between atoms: C_8  and  S_2 
REMARK    4  A    between atoms: N_5  and  C_3 
REMARK    5  A    between atoms: C_9  and  C_4 
ROOT
ATOM      1  C   UNL d   1      52.880  32.698  53.173  0.00  0.00     0.128 A 
ATOM      2  C   UNL d   1      52.343  32.088  53.272  0.00  0.00     0.166 A 
ATOM      3  N   UNL d   1      52.619  33.453  52.975  0.00  0.00    -0.240 NA
ATOM      4  N   UNL d   1      51.540  32.227  53.174  0.00  0.00    -0.225 NA
ATOM      5  C   UNL d   1      51.817  33.585  52.878  0.00  0.00     0.099 A 
ATOM      6  C   UNL d   1      51.274  32.980  52.975  0.00  0.00     0.101 A 
ATOM      7  C   UNL d   1      50.477  33.124  52.876  0.00  0.00     0.021 A 
ATOM      8  C   UNL d   1      51.553  34.342  52.679  0.00  0.00     0.021 A 
ATOM      9  C   UNL d   1      50.215  33.870  52.680  0.00  0.00     0.002 A 
ATOM     10  C   UNL d   1      50.755  34.477  52.582  0.00  0.00     0.002 A 
ENDROOT
BRANCH   1  11
ATOM     11  C   UNL d   1      53.681  32.566  53.270  0.00  0.00     0.129 C 
BRANCH  11  12
ATOM     12  S   UNL d   1      54.172  33.216  53.621  0.00  0.00     0.213 S 
ATOM     13  O   UNL d   1      54.669  33.696  53.067  0.00  0.00    -0.217 OA
ATOM     14  O   UNL d   1      54.321  33.233  52.806  0.00  0.00    -0.217 OA
BRANCH  12  15
ATOM     15  C   UNL d   1      54.276  33.492  54.397  0.00  0.00     0.088 A 
ATOM     16  C   UNL d   1      53.849  34.158  54.652  0.00  0.00     0.011 A 
ATOM     17  C   UNL d   1      53.957  34.428  55.424  0.00  0.00     0.001 A 
ATOM     18  C   UNL d   1      53.540  35.084  55.686  0.00  0.00     0.000 C 
ATOM     19  C   UNL d   1      54.479  34.046  55.936  0.00  0.00     0.000 A 
ATOM     20  C   UNL d   1      54.901  33.381  55.668  0.00  0.00     0.001 A 
ATOM     21  C   UNL d   1      54.792  33.113  54.899  0.00  0.00     0.011 A 
ENDBRANCH  12  15
ENDBRANCH  11  12
BRANCH  11  22
ATOM     22  C   UNL d   1      54.155  31.869  53.080  0.00  0.00     0.135 C 
ATOM     23  N   UNL d   1      54.941  31.834  52.679  0.00  0.00    -0.146 N 
ENDBRANCH  11  22
ENDBRANCH   1  11
BRANCH   2  24
ATOM     24  N   UNL d   1      52.612  31.332  53.471  0.00  0.00    -0.284 N 
ATOM     25  C   UNL d   1      52.751  31.142  54.271  0.00  0.00     0.106 A 
ATOM     26  C   UNL d   1      53.022  30.377  54.461  0.00  0.00     0.118 A 
ATOM     27  C   UNL d   1      53.162  30.187  55.261  0.00  0.00     0.028 C 
ATOM     28  O   UNL d   1      53.151  29.813  53.864  0.00  0.00    -0.304 OA
ATOM     29  C   UNL d   1      53.009  30.015  53.077  0.00  0.00     0.118 A 
ATOM     30  C   UNL d   1      52.741  30.769  52.874  0.00  0.00     0.106 A 
ATOM     31  C   UNL d   1      53.137  29.454  52.477  0.00  0.00     0.028 C 
ENDBRANCH   2  24
TORSDOF 5
ENDMDL
