MODEL 1
REMARK VINA RESULT:      55.3      0.000      0.000
REMARK  5 active torsions:
REMARK  status: ('A' for Active; 'I' for Inactive)
REMARK    1  A    between atoms: C_5  and  N_1 
REMARK    2  A    between atoms: C_8  and  C_3 
REMARK    3  A    between atoms: C_7  and  C_4 
REMARK    4  A    between atoms: N_12  and  C_5 
REMARK    5  A    between atoms: N_11  and  C_10 
ROOT
ATOM      1  N   UNL d   1      13.548  13.064  -4.192  0.00  0.00    -0.203 N 
ATOM      2  N   UNL d   1      13.688  12.586  -3.549  0.00  0.00    -0.163 NA
ATOM      3  C   UNL d   1      13.958  13.030  -2.938  0.00  0.00     0.103 A 
ATOM      4  C   UNL d   1      13.737  13.849  -3.984  0.00  0.00     0.087 A 
ATOM      5  C   UNL d   1      13.996  13.823  -3.193  0.00  0.00     0.040 A 
ENDROOT
BRANCH   4   6
ATOM      6  C   UNL d   1      13.689  14.531  -4.447  0.00  0.00     0.018 A 
ATOM      7  C   UNL d   1      14.322  14.783  -4.864  0.00  0.00     0.003 A 
ATOM      8  C   UNL d   1      14.276  15.468  -5.330  0.00  0.00     0.018 A 
ATOM      9  C   UNL d   1      13.564  15.886  -5.357  0.00  0.00     0.064 A 
ATOM     10  C   UNL d   1      12.914  15.634  -4.933  0.00  0.00     0.018 A 
ATOM     11  C   UNL d   1      12.979  14.949  -4.473  0.00  0.00     0.003 A 
BRANCH   9  12
ATOM     12  N   UNL d   1      13.511  16.553  -5.808  0.00  0.00    -0.301 N 
ATOM     13  C   UNL d   1      12.855  16.673  -6.256  0.00  0.00     0.100 C 
ATOM     14  C   UNL d   1      14.120  17.093  -5.802  0.00  0.00     0.100 C 
ENDBRANCH   9  12
ENDBRANCH   4   6
BRANCH   1  15
ATOM     15  C   UNL d   1      13.262  12.809  -4.937  0.00  0.00     0.222 C 
ATOM     16  S   UNL d   1      12.771  13.320  -5.379  0.00  0.00    -0.037 SA
BRANCH  15  17
ATOM     17  N   UNL d   1      13.468  12.051  -5.232  0.00  0.00    -0.214 NA
ATOM     18  C   UNL d   1      13.175  11.785  -5.969  0.00  0.00     0.122 C 
ENDBRANCH  15  17
ENDBRANCH   1  15
BRANCH   3  19
ATOM     19  C   UNL d   1      14.155  12.728  -2.205  0.00  0.00     0.019 A 
ATOM     20  C   UNL d   1      14.687  12.095  -2.165  0.00  0.00     0.002 A 
ATOM     21  C   UNL d   1      14.892  11.784  -1.442  0.00  0.00     0.000 A 
ATOM     22  C   UNL d   1      14.571  12.100  -0.751  0.00  0.00     0.000 A 
ATOM     23  C   UNL d   1      14.032  12.741  -0.792  0.00  0.00     0.000 A 
ATOM     24  C   UNL d   1      14.780  11.783  -0.018  0.00  0.00     0.000 C 
ATOM     25  C   UNL d   1      13.838  13.041  -1.533  0.00  0.00     0.002 A 
ENDBRANCH   3  19
TORSDOF 5
ENDMDL
MODEL 2
REMARK VINA RESULT:      55.8      1.090      4.603
REMARK  5 active torsions:
REMARK  status: ('A' for Active; 'I' for Inactive)
REMARK    1  A    between atoms: C_5  and  N_1 
REMARK    2  A    between atoms: C_8  and  C_3 
REMARK    3  A    between atoms: C_7  and  C_4 
REMARK    4  A    between atoms: N_12  and  C_5 
REMARK    5  A    between atoms: N_11  and  C_10 
ROOT
ATOM      1  N   UNL d   1      13.529  13.519  -3.888  0.00  0.00    -0.203 N 
ATOM      2  N   UNL d   1      13.562  14.134  -4.420  0.00  0.00    -0.163 NA
ATOM      3  C   UNL d   1      13.987  14.737  -4.107  0.00  0.00     0.103 A 
ATOM      4  C   UNL d   1      13.952  13.739  -3.204  0.00  0.00     0.087 A 
ATOM      5  C   UNL d   1      14.239  14.507  -3.346  0.00  0.00     0.040 A 
ENDROOT
BRANCH   4   6
ATOM      6  C   UNL d   1      14.077  13.304  -2.514  0.00  0.00     0.018 A 
ATOM      7  C   UNL d   1      13.685  13.489  -1.841  0.00  0.00     0.003 A 
ATOM      8  C   UNL d   1      13.808  13.054  -1.146  0.00  0.00     0.018 A 
ATOM      9  C   UNL d   1      14.342  12.424  -1.159  0.00  0.00     0.064 A 
ATOM     10  C   UNL d   1      14.745  12.229  -1.840  0.00  0.00     0.018 A 
ATOM     11  C   UNL d   1      14.609  12.675  -2.525  0.00  0.00     0.003 A 
BRANCH   9  12
ATOM     12  N   UNL d   1      14.467  11.995  -0.486  0.00  0.00    -0.301 N 
ATOM     13  C   UNL d   1      15.217  11.781  -0.291  0.00  0.00     0.100 C 
ATOM     14  C   UNL d   1      13.836  11.787  -0.017  0.00  0.00     0.100 C 
ENDBRANCH   9  12
ENDBRANCH   4   6
BRANCH   1  15
ATOM     15  C   UNL d   1      13.136  12.789  -4.010  0.00  0.00     0.222 C 
ATOM     16  S   UNL d   1      13.117  12.231  -3.388  0.00  0.00    -0.037 SA
BRANCH  15  17
ATOM     17  N   UNL d   1      12.769  12.625  -4.746  0.00  0.00    -0.214 NA
ATOM     18  C   UNL d   1      12.860  11.879  -5.112  0.00  0.00     0.122 C 
ENDBRANCH  15  17
ENDBRANCH   1  15
BRANCH   3  19
ATOM     19  C   UNL d   1      14.132  15.444  -4.491  0.00  0.00     0.019 A 
ATOM     20  C   UNL d   1      14.591  16.017  -4.110  0.00  0.00     0.002 A 
ATOM     21  C   UNL d   1      14.743  16.725  -4.480  0.00  0.00     0.000 A 
ATOM     22  C   UNL d   1      14.440  16.870  -5.234  0.00  0.00     0.000 A 
ATOM     23  C   UNL d   1      13.975  16.289  -5.619  0.00  0.00     0.000 A 
ATOM     24  C   UNL d   1      14.595  17.589  -5.608  0.00  0.00     0.000 C 
ATOM     25  C   UNL d   1      13.832  15.580  -5.228  0.00  0.00     0.002 A 
ENDBRANCH   3  19
TORSDOF 5
ENDMDL
MODEL 3
REMARK VINA RESULT:      56.2      2.564      3.859
REMARK  5 active torsions:
REMARK  status: ('A' for Active; 'I' for Inactive)
REMARK    1  A    between atoms: C_5  and  N_1 
REMARK    2  A    between atoms: C_8  and  C_3 
REMARK    3  A    between atoms: C_7  and  C_4 
REMARK    4  A    between atoms: N_12  and  C_5 
REMARK    5  A    between atoms: N_11  and  C_10 
ROOT
ATOM      1  N   UNL d   1      14.666  13.425  -1.491  0.00  0.00    -0.203 N 
ATOM      2  N   UNL d   1      14.965  13.992  -0.990  0.00  0.00    -0.163 NA
ATOM      3  C   UNL d   1      14.971  14.703  -1.362  0.00  0.00     0.103 A 
ATOM      4  C   UNL d   1      14.474  13.789  -2.216  0.00  0.00     0.087 A 
ATOM      5  C   UNL d   1      14.667  14.594  -2.130  0.00  0.00     0.040 A 
ENDROOT
BRANCH   4   6
ATOM      6  C   UNL d   1      14.155  13.446  -2.896  0.00  0.00     0.018 A 
ATOM      7  C   UNL d   1      13.494  12.998  -2.852  0.00  0.00     0.003 A 
ATOM      8  C   UNL d   1      13.172  12.651  -3.534  0.00  0.00     0.018 A 
ATOM      9  C   UNL d   1      13.544  12.776  -4.259  0.00  0.00     0.064 A 
ATOM     10  C   UNL d   1      14.219  13.232  -4.312  0.00  0.00     0.018 A 
ATOM     11  C   UNL d   1      14.527  13.570  -3.621  0.00  0.00     0.003 A 
BRANCH   9  12
ATOM     12  N   UNL d   1      13.237  12.443  -4.927  0.00  0.00    -0.301 N 
ATOM     13  C   UNL d   1      13.398  12.773  -5.642  0.00  0.00     0.100 C 
ATOM     14  C   UNL d   1      12.770  11.779  -4.868  0.00  0.00     0.100 C 
ENDBRANCH   9  12
ENDBRANCH   4   6
BRANCH   1  15
ATOM     15  C   UNL d   1      14.570  12.613  -1.308  0.00  0.00     0.222 C 
ATOM     16  S   UNL d   1      15.082  12.055  -1.661  0.00  0.00    -0.037 SA
BRANCH  15  17
ATOM     17  N   UNL d   1      13.968  12.369  -0.778  0.00  0.00    -0.214 NA
ATOM     18  C   UNL d   1      14.162  12.014  -0.045  0.00  0.00     0.122 C 
ENDBRANCH  15  17
ENDBRANCH   1  15
BRANCH   3  19
ATOM     19  C   UNL d   1      15.236  15.396  -1.020  0.00  0.00     0.019 A 
ATOM     20  C   UNL d   1      14.843  16.102  -1.197  0.00  0.00     0.002 A 
ATOM     21  C   UNL d   1      15.095  16.800  -0.864  0.00  0.00     0.000 A 
ATOM     22  C   UNL d   1      15.742  16.803  -0.351  0.00  0.00     0.000 A 
ATOM     23  C   UNL d   1      16.141  16.087  -0.173  0.00  0.00     0.000 A 
ATOM     24  C   UNL d   1      15.997  17.512  -0.015  0.00  0.00     0.000 C 
ATOM     25  C   UNL d   1      15.870  15.392  -0.520  0.00  0.00     0.002 A 
ENDBRANCH   3  19
TORSDOF 5
ENDMDL
