MODEL 1
REMARK VINA RESULT:      -4.0      0.000      0.000
REMARK  5 active torsions:
REMARK  status: ('A' for Active; 'I' for Inactive)
REMARK    1  A    between atoms: C_14  and  N_3 
REMARK    2  A    between atoms: C_13  and  N_7 
REMARK    3  A    between atoms: C_10  and  C_13 
REMARK       I    between atoms: N_11  and  C_10 
REMARK    4  A    between atoms: C_21  and  N_12 
REMARK    5  A    between atoms: C_22  and  C_14 
ROOT
ATOM      1  C   UNL d   1      31.371  17.269 -24.093  0.00  0.00     0.191 A 
ATOM      2  C   UNL d   1      32.020  16.937 -23.691  0.00  0.00     0.196 A 
ATOM      3  N   UNL d   1      30.895  16.641 -24.354  0.00  0.00    -0.191 N 
ATOM      4  N   UNL d   1      31.309  18.080 -24.161  0.00  0.00    -0.204 NA
ATOM      5  N   UNL d   1      31.930  16.113 -23.713  0.00  0.00    -0.122 NA
ATOM      6  N   UNL d   1      31.248  15.945 -24.116  0.00  0.00    -0.058 NA
ATOM      7  N   UNL d   1      32.530  18.246 -23.435  0.00  0.00    -0.249 N 
ATOM      8  C   UNL d   1      32.589  17.426 -23.369  0.00  0.00     0.289 A 
ATOM      9  C   UNL d   1      31.880  18.577 -23.837  0.00  0.00     0.187 A 
ATOM     10  O   UNL d   1      33.239  17.095 -22.967  0.00  0.00    -0.265 OA
ENDROOT
BRANCH   7  11
ATOM     11  C   UNL d   1      33.104  18.749 -23.111  0.00  0.00     0.146 C 
BRANCH  11  12
ATOM     12  C   UNL d   1      33.165  19.540 -23.363  0.00  0.00     0.283 C 
ATOM     13  N   UNL d   1      33.149  20.143 -22.809  0.00  0.00    -0.268 N 
ATOM     14  C   UNL d   1      33.072  19.952 -22.010  0.00  0.00     0.102 A 
ATOM     15  C   UNL d   1      33.208  20.915 -23.057  0.00  0.00     0.102 A 
ATOM     16  C   UNL d   1      33.056  20.563 -21.453  0.00  0.00     0.100 A 
ATOM     17  N   UNL d   1      33.116  21.352 -21.698  0.00  0.00    -0.301 N 
ATOM     18  C   UNL d   1      33.192  21.528 -22.501  0.00  0.00     0.100 A 
ATOM     19  O   UNL d   1      33.241  19.708 -24.167  0.00  0.00    -0.265 OA
BRANCH  17  20
ATOM     20  C   UNL d   1      33.100  21.955 -21.144  0.00  0.00     0.064 A 
ATOM     21  C   UNL d   1      33.241  21.783 -20.362  0.00  0.00     0.018 A 
ATOM     22  C   UNL d   1      33.225  22.389 -19.798  0.00  0.00     0.002 A 
ATOM     23  C   UNL d   1      33.067  23.164 -20.034  0.00  0.00     0.000 A 
ATOM     24  C   UNL d   1      32.925  23.332 -20.832  0.00  0.00     0.002 A 
ATOM     25  C   UNL d   1      32.941  22.725 -21.394  0.00  0.00     0.018 A 
ENDBRANCH  17  20
ENDBRANCH  11  12
ENDBRANCH   7  11
BRANCH   3  26
ATOM     26  C   UNL d   1      30.180  16.707 -24.785  0.00  0.00     0.104 C 
BRANCH  26  27
ATOM     27  C   UNL d   1      29.461  16.484 -24.430  0.00  0.00     0.019 A 
ATOM     28  C   UNL d   1      29.217  15.697 -24.442  0.00  0.00     0.002 A 
ATOM     29  C   UNL d   1      28.513  15.499 -24.091  0.00  0.00     0.000 A 
ATOM     30  C   UNL d   1      28.042  16.055 -23.729  0.00  0.00     0.000 A 
ATOM     31  C   UNL d   1      28.295  16.864 -23.718  0.00  0.00     0.000 A 
ATOM     32  C   UNL d   1      29.005  17.065 -24.072  0.00  0.00     0.002 A 
ENDBRANCH  26  27
ENDBRANCH   3  26
TORSDOF 5
ENDMDL
MODEL 2
REMARK VINA RESULT:      -3.7      0.752      6.148
REMARK  5 active torsions:
REMARK  status: ('A' for Active; 'I' for Inactive)
REMARK    1  A    between atoms: C_14  and  N_3 
REMARK    2  A    between atoms: C_13  and  N_7 
REMARK    3  A    between atoms: C_10  and  C_13 
REMARK       I    between atoms: N_11  and  C_10 
REMARK    4  A    between atoms: C_21  and  N_12 
REMARK    5  A    between atoms: C_22  and  C_14 
ROOT
ATOM      1  C   UNL d   1      33.142  20.428 -22.345  0.00  0.00     0.191 A 
ATOM      2  C   UNL d   1      33.136  20.491 -23.176  0.00  0.00     0.196 A 
ATOM      3  N   UNL d   1      33.207  21.196 -22.039  0.00  0.00    -0.191 N 
ATOM      4  N   UNL d   1      33.087  19.692 -21.996  0.00  0.00    -0.204 NA
ATOM      5  N   UNL d   1      33.198  21.297 -23.363  0.00  0.00    -0.122 NA
ATOM      6  N   UNL d   1      33.241  21.714 -22.670  0.00  0.00    -0.058 NA
ATOM      7  N   UNL d   1      33.020  19.073 -23.283  0.00  0.00    -0.249 N 
ATOM      8  C   UNL d   1      33.076  19.817 -23.632  0.00  0.00     0.289 A 
ATOM      9  C   UNL d   1      33.026  19.009 -22.453  0.00  0.00     0.187 A 
ATOM     10  O   UNL d   1      33.070  19.881 -24.463  0.00  0.00    -0.265 OA
ENDROOT
BRANCH   7  11
ATOM     11  C   UNL d   1      32.959  18.383 -23.741  0.00  0.00     0.146 C 
BRANCH  11  12
ATOM     12  C   UNL d   1      32.739  17.662 -23.390  0.00  0.00     0.283 C 
ATOM     13  N   UNL d   1      32.025  17.314 -23.596  0.00  0.00    -0.268 N 
ATOM     14  C   UNL d   1      31.541  17.689 -24.148  0.00  0.00     0.102 A 
ATOM     15  C   UNL d   1      31.811  16.608 -23.253  0.00  0.00     0.102 A 
ATOM     16  C   UNL d   1      30.822  17.336 -24.353  0.00  0.00     0.100 A 
ATOM     17  N   UNL d   1      30.597  16.618 -24.008  0.00  0.00    -0.301 N 
ATOM     18  C   UNL d   1      31.092  16.254 -23.458  0.00  0.00     0.100 A 
ATOM     19  O   UNL d   1      33.239  17.304 -22.840  0.00  0.00    -0.265 OA
BRANCH  17  20
ATOM     20  C   UNL d   1      29.883  16.270 -24.214  0.00  0.00     0.064 A 
ATOM     21  C   UNL d   1      29.229  16.394 -23.747  0.00  0.00     0.018 A 
ATOM     22  C   UNL d   1      28.507  16.044 -23.951  0.00  0.00     0.002 A 
ATOM     23  C   UNL d   1      28.455  15.574 -24.626  0.00  0.00     0.000 A 
ATOM     24  C   UNL d   1      29.125  15.453 -25.097  0.00  0.00     0.002 A 
ATOM     25  C   UNL d   1      29.847  15.802 -24.893  0.00  0.00     0.018 A 
ENDBRANCH  17  20
ENDBRANCH  11  12
ENDBRANCH   7  11
BRANCH   3  26
ATOM     26  C   UNL d   1      33.235  21.406 -21.229  0.00  0.00     0.104 C 
BRANCH  26  27
ATOM     27  C   UNL d   1      32.823  22.078 -20.962  0.00  0.00     0.019 A 
ATOM     28  C   UNL d   1      33.121  22.833 -21.102  0.00  0.00     0.002 A 
ATOM     29  C   UNL d   1      32.705  23.475 -20.833  0.00  0.00     0.000 A 
ATOM     30  C   UNL d   1      32.004  23.395 -20.429  0.00  0.00     0.000 A 
ATOM     31  C   UNL d   1      31.699  22.617 -20.286  0.00  0.00     0.000 A 
ATOM     32  C   UNL d   1      32.118  21.968 -20.557  0.00  0.00     0.002 A 
ENDBRANCH  26  27
ENDBRANCH   3  26
TORSDOF 5
ENDMDL
