MODEL 1
REMARK VINA RESULT:      61.2      0.000      0.000
REMARK  5 active torsions:
REMARK  status: ('A' for Active; 'I' for Inactive)
REMARK    1  A    between atoms: N_4  and  C_2 
REMARK    2  A    between atoms: S_8  and  C_3 
REMARK    3  A    between atoms: C_11  and  S_8 
REMARK    4  A    between atoms: C_9  and  C_11 
REMARK    5  A    between atoms: C_10  and  C_9 
ROOT
ATOM      1  N   UNL d   1     -48.542  30.148  34.334  0.00  0.00    -0.203 NA
ATOM      2  C   UNL d   1     -47.989  30.495  34.837  0.00  0.00     0.152 A 
ATOM      3  C   UNL d   1     -48.768  29.354  34.445  0.00  0.00     0.196 A 
ATOM      4  C   UNL d   1     -47.663  30.046  35.451  0.00  0.00     0.057 A 
ATOM      5  N   UNL d   1     -48.439  28.913  35.058  0.00  0.00    -0.221 NA
ATOM      6  C   UNL d   1     -47.886  29.260  35.561  0.00  0.00     0.087 A 
ATOM      7  C   UNL d   1     -47.554  28.818  36.177  0.00  0.00     0.021 C 
ENDROOT
BRANCH   3   8
ATOM      8  S   UNL d   1     -49.326  29.008  33.936  0.00  0.00    -0.045 SA
BRANCH   8   9
ATOM      9  C   UNL d   1     -49.470  28.195  33.980  0.00  0.00     0.080 C 
BRANCH   9  10
ATOM     10  C   UNL d   1     -50.131  27.875  33.604  0.00  0.00     0.202 C 
ATOM     11  O   UNL d   1     -50.714  28.378  33.306  0.00  0.00    -0.286 OA
BRANCH  10  12
ATOM     12  C   UNL d   1     -50.202  27.058  33.529  0.00  0.00     0.040 A 
ATOM     13  C   UNL d   1     -49.518  26.595  33.476  0.00  0.00     0.004 A 
ATOM     14  C   UNL d   1     -49.583  25.776  33.401  0.00  0.00     0.011 A 
ATOM     15  C   UNL d   1     -50.331  25.428  33.380  0.00  0.00     0.058 A 
ATOM     16  C   UNL d   1     -51.010  25.893  33.434  0.00  0.00     0.011 A 
ATOM     17 CL   UNL d   1     -50.400  24.607  33.306  0.00  0.00    -0.082 Cl
ATOM     18  C   UNL d   1     -50.940  26.710  33.509  0.00  0.00     0.004 A 
ENDBRANCH  10  12
ENDBRANCH   9  10
ENDBRANCH   8   9
ENDBRANCH   3   8
BRANCH   2  19
ATOM     19  N   UNL d   1     -47.763  31.281  34.730  0.00  0.00    -0.285 N 
ATOM     20  C   UNL d   1     -48.148  31.743  34.174  0.00  0.00     0.108 A 
ATOM     21  C   UNL d   1     -47.919  32.529  34.070  0.00  0.00     0.142 A 
ATOM     22  O   UNL d   1     -47.306  32.843  34.526  0.00  0.00    -0.300 OA
ATOM     23  C   UNL d   1     -46.923  32.373  35.084  0.00  0.00     0.142 A 
ATOM     24  C   UNL d   1     -47.150  31.595  35.187  0.00  0.00     0.108 A 
ENDBRANCH   2  19
TORSDOF 5
ENDMDL
MODEL 2
REMARK VINA RESULT:      63.4      4.144      6.296
REMARK  5 active torsions:
REMARK  status: ('A' for Active; 'I' for Inactive)
REMARK    1  A    between atoms: N_4  and  C_2 
REMARK    2  A    between atoms: S_8  and  C_3 
REMARK    3  A    between atoms: C_11  and  S_8 
REMARK    4  A    between atoms: C_9  and  C_11 
REMARK    5  A    between atoms: C_10  and  C_9 
ROOT
ATOM      1  N   UNL d   1     -51.238  25.715  34.928  0.00  0.00    -0.203 NA
ATOM      2  C   UNL d   1     -51.274  25.559  34.119  0.00  0.00     0.152 A 
ATOM      3  C   UNL d   1     -51.030  26.475  35.198  0.00  0.00     0.196 A 
ATOM      4  C   UNL d   1     -51.102  26.165  33.582  0.00  0.00     0.057 A 
ATOM      5  N   UNL d   1     -50.860  27.073  34.657  0.00  0.00    -0.221 NA
ATOM      6  C   UNL d   1     -50.897  26.918  33.850  0.00  0.00     0.087 A 
ATOM      7  C   UNL d   1     -50.726  27.517  33.306  0.00  0.00     0.021 C 
ENDROOT
BRANCH   3   8
ATOM      8  S   UNL d   1     -50.995  26.628  36.014  0.00  0.00    -0.045 SA
BRANCH   8   9
ATOM      9  C   UNL d   1     -51.484  26.205  36.530  0.00  0.00     0.080 C 
BRANCH   9  10
ATOM     10  C   UNL d   1     -51.468  26.372  37.338  0.00  0.00     0.202 C 
ATOM     11  O   UNL d   1     -51.035  27.018  37.613  0.00  0.00    -0.286 OA
BRANCH  10  12
ATOM     12  C   UNL d   1     -51.883  25.890  37.861  0.00  0.00     0.040 A 
ATOM     13  C   UNL d   1     -52.622  25.592  37.638  0.00  0.00     0.004 A 
ATOM     14  C   UNL d   1     -53.042  25.109  38.158  0.00  0.00     0.011 A 
ATOM     15  C   UNL d   1     -52.721  24.930  38.897  0.00  0.00     0.058 A 
ATOM     16  C   UNL d   1     -51.984  25.230  39.116  0.00  0.00     0.011 A 
ATOM     17 CL   UNL d   1     -53.140  24.447  39.421  0.00  0.00    -0.082 Cl
ATOM     18  C   UNL d   1     -51.568  25.711  38.593  0.00  0.00     0.004 A 
ENDBRANCH  10  12
ENDBRANCH   9  10
ENDBRANCH   8   9
ENDBRANCH   3   8
BRANCH   2  19
ATOM     19  N   UNL d   1     -51.480  24.808  33.848  0.00  0.00    -0.285 N 
ATOM     20  C   UNL d   1     -52.267  24.579  33.838  0.00  0.00     0.108 A 
ATOM     21  C   UNL d   1     -52.469  23.827  33.566  0.00  0.00     0.142 A 
ATOM     22  O   UNL d   1     -51.877  23.311  33.306  0.00  0.00    -0.300 OA
ATOM     23  C   UNL d   1     -51.088  23.547  33.318  0.00  0.00     0.142 A 
ATOM     24  C   UNL d   1     -50.889  24.292  33.588  0.00  0.00     0.108 A 
ENDBRANCH   2  19
TORSDOF 5
ENDMDL
