MODEL 1
REMARK VINA RESULT:      65.2      0.000      0.000
REMARK  5 active torsions:
REMARK  status: ('A' for Active; 'I' for Inactive)
REMARK    1  A    between atoms: C_4  and  S_1 
REMARK    2  A    between atoms: N_5  and  S_1 
REMARK    3  A    between atoms: C_2  and  C_9 
REMARK       I    between atoms: N_3  and  C_2 
REMARK    4  A    between atoms: C_14  and  N_5 
REMARK    5  A    between atoms: C_15  and  C_14 
ROOT
ATOM      1  C   UNL d   1      58.510  49.405  51.011  0.00  0.00     0.057 A 
ATOM      2  C   UNL d   1      58.870  49.015  51.647  0.00  0.00     0.005 A 
ATOM      3  C   UNL d   1      58.965  49.665  50.375  0.00  0.00     0.005 A 
ATOM      4  C   UNL d   1      60.141  49.148  51.007  0.00  0.00     0.020 A 
ATOM      5  C   UNL d   1      59.687  48.887  51.643  0.00  0.00     0.002 A 
ATOM      6  C   UNL d   1      59.786  49.535  50.373  0.00  0.00     0.002 A 
ENDROOT
BRANCH   4   7
ATOM      7  C   UNL d   1      60.961  49.022  50.999  0.00  0.00     0.112 C 
BRANCH   7   8
ATOM      8  N   UNL d   1      61.310  48.684  50.330  0.00  0.00    -0.157 NA
BRANCH   8   9
ATOM      9  S   UNL d   1      61.428  47.856  50.297  0.00  0.00     0.285 S 
ATOM     10  O   UNL d   1      61.550  47.843  51.120  0.00  0.00    -0.198 OA
ATOM     11  O   UNL d   1      61.304  47.874  49.476  0.00  0.00    -0.198 OA
BRANCH   9  12
ATOM     12  C   UNL d   1      61.544  47.033  50.265  0.00  0.00     0.106 A 
ATOM     13  C   UNL d   1      62.004  46.710  49.660  0.00  0.00     0.024 A 
ATOM     14  C   UNL d   1      62.124  45.893  49.623  0.00  0.00     0.059 A 
ATOM     15 CL   UNL d   1      62.584  45.563  49.020  0.00  0.00    -0.082 Cl
ATOM     16  C   UNL d   1      61.783  45.405  50.192  0.00  0.00     0.011 A 
ATOM     17  C   UNL d   1      61.324  45.730  50.795  0.00  0.00     0.002 A 
ATOM     18  C   UNL d   1      61.208  46.544  50.828  0.00  0.00     0.013 A 
ENDBRANCH   9  12
ENDBRANCH   8   9
ENDBRANCH   7   8
ENDBRANCH   4   7
BRANCH   1  19
ATOM     19  C   UNL d   1      57.680  49.537  51.010  0.00  0.00     0.265 C 
ATOM     20  N   UNL d   1      57.265  49.540  50.292  0.00  0.00    -0.272 N 
ATOM     21  C   UNL d   1      57.663  49.415  49.582  0.00  0.00     0.083 A 
ATOM     22  C   UNL d   1      56.448  49.670  50.290  0.00  0.00     0.083 A 
ATOM     23  C   UNL d   1      57.250  49.419  48.877  0.00  0.00     0.019 A 
ATOM     24  C   UNL d   1      56.441  49.548  48.877  0.00  0.00     0.003 A 
ATOM     25  C   UNL d   1      56.033  49.674  49.575  0.00  0.00     0.019 A 
ATOM     26  O   UNL d   1      57.277  49.664  51.731  0.00  0.00    -0.267 OA
ENDBRANCH   1  19
TORSDOF 5
ENDMDL
