MODEL 1
REMARK VINA RESULT:       3.8      0.000      0.000
REMARK  6 active torsions:
REMARK  status: ('A' for Active; 'I' for Inactive)
REMARK    1  A    between atoms: N_5  and  S_1 
REMARK    2  A    between atoms: C_6  and  S_1 
REMARK    3  A    between atoms: C_2  and  C_11 
REMARK    4  A    between atoms: C_9  and  N_5 
REMARK    5  A    between atoms: C_10  and  C_9 
REMARK       I    between atoms: N_15  and  C_10 
REMARK    6  A    between atoms: C_19  and  N_15 
ROOT
ATOM      1  C   UNL d   1     -41.593-122.653 -54.023  0.00  0.00     0.024 A 
ATOM      2  C   UNL d   1     -41.298-123.420 -53.942  0.00  0.00     0.004 A 
ATOM      3  C   UNL d   1     -41.734-122.195 -53.355  0.00  0.00     0.004 A 
ATOM      4  C   UNL d   1     -41.284-123.270 -52.515  0.00  0.00     0.085 A 
ATOM      5  C   UNL d   1     -41.578-122.507 -52.598  0.00  0.00     0.019 A 
ATOM      6  C   UNL d   1     -41.142-123.733 -53.194  0.00  0.00     0.019 A 
ENDROOT
BRANCH   4   7
ATOM      7  N   UNL d   1     -41.135-123.566 -51.759  0.00  0.00    -0.207 NA
ATOM      8  C   UNL d   1     -41.423-123.166 -51.103  0.00  0.00     0.299 C 
ATOM      9  O   UNL d   1     -41.859-122.475 -51.195  0.00  0.00    -0.263 OA
BRANCH   8  10
ATOM     10  C   UNL d   1     -41.271-123.465 -50.339  0.00  0.00     0.174 C 
BRANCH  10  11
ATOM     11  N   UNL d   1     -41.876-123.817 -49.907  0.00  0.00    -0.152 NA
BRANCH  11  12
ATOM     12  S   UNL d   1     -41.946-123.667 -49.099  0.00  0.00     0.285 S 
ATOM     13  O   UNL d   1     -41.129-123.563 -49.051  0.00  0.00    -0.198 OA
ATOM     14  O   UNL d   1     -42.763-123.772 -49.155  0.00  0.00    -0.198 OA
BRANCH  12  15
ATOM     15  C   UNL d   1     -42.019-123.519 -48.299  0.00  0.00     0.106 A 
ATOM     16  C   UNL d   1     -42.733-123.682 -47.914  0.00  0.00     0.024 A 
ATOM     17  C   UNL d   1     -42.806-123.532 -47.106  0.00  0.00     0.059 A 
ATOM     18 CL   UNL d   1     -43.529-123.695 -46.709  0.00  0.00    -0.082 Cl
ATOM     19  C   UNL d   1     -42.177-123.222 -46.676  0.00  0.00     0.011 A 
ATOM     20  C   UNL d   1     -41.462-123.059 -47.061  0.00  0.00     0.002 A 
ATOM     21  C   UNL d   1     -41.389-123.210 -47.877  0.00  0.00     0.013 A 
ENDBRANCH  12  15
ENDBRANCH  11  12
ENDBRANCH  10  11
ENDBRANCH   8  10
ENDBRANCH   4   7
BRANCH   1  22
ATOM     22  C   UNL d   1     -41.752-122.331 -54.772  0.00  0.00     0.111 A 
ATOM     23  N   UNL d   1     -41.170-122.013 -55.254  0.00  0.00    -0.239 NA
ATOM     24  C   UNL d   1     -41.524-121.747 -55.951  0.00  0.00     0.088 A 
ATOM     25  C   UNL d   1     -41.217-121.385 -56.624  0.00  0.00     0.020 A 
ATOM     26  C   UNL d   1     -42.331-121.903 -55.897  0.00  0.00     0.049 A 
ATOM     27  C   UNL d   1     -41.720-121.179 -57.244  0.00  0.00     0.002 A 
ATOM     28  C   UNL d   1     -42.527-121.335 -57.190  0.00  0.00     0.001 A 
ATOM     29  C   UNL d   1     -42.833-121.697 -56.516  0.00  0.00     0.008 A 
ATOM     30  S   UNL d   1     -42.472-122.265 -55.167  0.00  0.00    -0.066 SA
ENDBRANCH   1  22
TORSDOF 6
ENDMDL
MODEL 2
REMARK VINA RESULT:       5.2      2.212      6.944
REMARK  6 active torsions:
REMARK  status: ('A' for Active; 'I' for Inactive)
REMARK    1  A    between atoms: N_5  and  S_1 
REMARK    2  A    between atoms: C_6  and  S_1 
REMARK    3  A    between atoms: C_2  and  C_11 
REMARK    4  A    between atoms: C_9  and  N_5 
REMARK    5  A    between atoms: C_10  and  C_9 
REMARK       I    between atoms: N_15  and  C_10 
REMARK    6  A    between atoms: C_19  and  N_15 
ROOT
ATOM      1  C   UNL d   1     -41.753-123.158 -50.160  0.00  0.00     0.024 A 
ATOM      2  C   UNL d   1     -41.958-122.470 -50.569  0.00  0.00     0.004 A 
ATOM      3  C   UNL d   1     -41.344-123.757 -50.546  0.00  0.00     0.004 A 
ATOM      4  C   UNL d   1     -41.341-122.985 -51.758  0.00  0.00     0.085 A 
ATOM      5  C   UNL d   1     -41.138-123.669 -51.349  0.00  0.00     0.019 A 
ATOM      6  C   UNL d   1     -41.756-122.378 -51.364  0.00  0.00     0.019 A 
ENDROOT
BRANCH   4   7
ATOM      7  N   UNL d   1     -41.130-122.911 -52.553  0.00  0.00    -0.207 NA
ATOM      8  C   UNL d   1     -41.337-122.234 -52.966  0.00  0.00     0.299 C 
ATOM      9  O   UNL d   1     -41.752-121.630 -52.595  0.00  0.00    -0.263 OA
BRANCH   8  10
ATOM     10  C   UNL d   1     -41.123-122.161 -53.769  0.00  0.00     0.174 C 
BRANCH  10  11
ATOM     11  N   UNL d   1     -41.371-121.508 -54.203  0.00  0.00    -0.152 NA
BRANCH  11  12
ATOM     12  S   UNL d   1     -41.786-121.616 -54.909  0.00  0.00     0.285 S 
ATOM     13  O   UNL d   1     -41.865-120.798 -54.983  0.00  0.00    -0.198 OA
ATOM     14  O   UNL d   1     -41.704-122.433 -54.826  0.00  0.00    -0.198 OA
BRANCH  12  15
ATOM     15  C   UNL d   1     -42.196-121.727 -55.605  0.00  0.00     0.106 A 
ATOM     16  C   UNL d   1     -42.860-122.221 -55.619  0.00  0.00     0.024 A 
ATOM     17  C   UNL d   1     -43.274-122.332 -56.323  0.00  0.00     0.059 A 
ATOM     18 CL   UNL d   1     -43.949-122.833 -56.343  0.00  0.00    -0.082 Cl
ATOM     19  C   UNL d   1     -43.036-121.958 -57.017  0.00  0.00     0.011 A 
ATOM     20  C   UNL d   1     -42.372-121.463 -57.004  0.00  0.00     0.002 A 
ATOM     21  C   UNL d   1     -41.954-121.351 -56.292  0.00  0.00     0.013 A 
ENDBRANCH  12  15
ENDBRANCH  11  12
ENDBRANCH  10  11
ENDBRANCH   8  10
ENDBRANCH   4   7
BRANCH   1  22
ATOM     22  C   UNL d   1     -41.953-123.258 -49.361  0.00  0.00     0.111 A 
ATOM     23  N   UNL d   1     -42.677-123.552 -49.115  0.00  0.00    -0.239 NA
ATOM     24  C   UNL d   1     -42.685-123.576 -48.290  0.00  0.00     0.088 A 
ATOM     25  C   UNL d   1     -43.256-123.817 -47.748  0.00  0.00     0.020 A 
ATOM     26  C   UNL d   1     -41.957-123.294 -48.025  0.00  0.00     0.049 A 
ATOM     27  C   UNL d   1     -43.098-123.775 -46.940  0.00  0.00     0.002 A 
ATOM     28  C   UNL d   1     -42.370-123.493 -46.676  0.00  0.00     0.001 A 
ATOM     29  C   UNL d   1     -41.799-123.252 -47.218  0.00  0.00     0.008 A 
ATOM     30  S   UNL d   1     -41.504-123.096 -48.688  0.00  0.00    -0.066 SA
ENDBRANCH   1  22
TORSDOF 6
ENDMDL
