MODEL 1
REMARK VINA RESULT:      30.7      0.000      0.000
REMARK  6 active torsions:
REMARK  status: ('A' for Active; 'I' for Inactive)
REMARK    1  A    between atoms: N_2  and  S_1 
REMARK    2  A    between atoms: C_4  and  S_1 
REMARK    3  A    between atoms: C_3  and  N_2 
REMARK    4  A    between atoms: N_7  and  C_3 
REMARK    5  A    between atoms: C_14  and  N_7 
REMARK    6  A    between atoms: C_15  and  C_13 
ROOT
ATOM      1  S   UNL d   1      14.937  13.921  -0.856  0.00  0.00     0.287 S 
ATOM      2  O   UNL d   1      15.744  13.788  -1.019  0.00  0.00    -0.198 OA
ATOM      3  O   UNL d   1      14.138  14.054  -0.696  0.00  0.00    -0.198 OA
ENDROOT
BRANCH   1   4
ATOM      4  N   UNL d   1      14.794  13.106  -0.898  0.00  0.00    -0.128 NA
BRANCH   4   5
ATOM      5  C   UNL d   1      14.314  12.463  -0.713  0.00  0.00     0.232 C 
ATOM      6  S   UNL d   1      13.821  12.492  -0.052  0.00  0.00    -0.036 SA
BRANCH   5   7
ATOM      7  N   UNL d   1      14.328  11.791  -1.189  0.00  0.00    -0.217 NA
BRANCH   7   8
ATOM      8  C   UNL d   1      13.969  11.810  -1.932  0.00  0.00     0.084 A 
ATOM      9  C   UNL d   1      13.148  11.779  -1.987  0.00  0.00     0.019 A 
ATOM     10  C   UNL d   1      12.786  11.798  -2.726  0.00  0.00     0.002 A 
ATOM     11  C   UNL d   1      13.243  11.848  -3.406  0.00  0.00     0.000 A 
ATOM     12  C   UNL d   1      14.063  11.879  -3.351  0.00  0.00     0.002 A 
ATOM     13  C   UNL d   1      14.428  11.860  -2.615  0.00  0.00     0.019 A 
ENDBRANCH   7   8
ENDBRANCH   5   7
ENDBRANCH   4   5
ENDBRANCH   1   4
BRANCH   1  14
ATOM     14  C   UNL d   1      15.081  14.742  -0.815  0.00  0.00     0.105 A 
ATOM     15  C   UNL d   1      15.310  15.077  -0.097  0.00  0.00     0.013 A 
ATOM     16  C   UNL d   1      15.457  15.897  -0.047  0.00  0.00     0.001 A 
ATOM     17  C   UNL d   1      15.371  16.376  -0.724  0.00  0.00     0.000 A 
ATOM     18  C   UNL d   1      15.140  16.032  -1.443  0.00  0.00     0.001 A 
ATOM     19  C   UNL d   1      14.995  15.221  -1.492  0.00  0.00     0.013 A 
BRANCH  17  20
ATOM     20  C   UNL d   1      15.514  17.187  -0.679  0.00  0.00     0.000 C 
ATOM     21  C   UNL d   1      15.195  17.867  -1.036  0.00  0.00     0.000 C 
ENDBRANCH  17  20
ENDBRANCH   1  14
TORSDOF 6
ENDMDL
MODEL 2
REMARK VINA RESULT:      31.9      2.767      3.557
REMARK  6 active torsions:
REMARK  status: ('A' for Active; 'I' for Inactive)
REMARK    1  A    between atoms: N_2  and  S_1 
REMARK    2  A    between atoms: C_4  and  S_1 
REMARK    3  A    between atoms: C_3  and  N_2 
REMARK    4  A    between atoms: N_7  and  C_3 
REMARK    5  A    between atoms: C_14  and  N_7 
REMARK    6  A    between atoms: C_15  and  C_13 
ROOT
ATOM      1  S   UNL d   1      13.525  13.661  -3.591  0.00  0.00     0.287 S 
ATOM      2  O   UNL d   1      13.070  13.238  -4.148  0.00  0.00    -0.198 OA
ATOM      3  O   UNL d   1      13.974  14.080  -3.040  0.00  0.00    -0.198 OA
ENDROOT
BRANCH   1   4
ATOM      4  N   UNL d   1      13.514  13.005  -3.084  0.00  0.00    -0.128 NA
BRANCH   4   5
ATOM      5  C   UNL d   1      13.459  12.189  -2.987  0.00  0.00     0.232 C 
ATOM      6  S   UNL d   1      12.802  11.781  -3.275  0.00  0.00    -0.036 SA
BRANCH   5   7
ATOM      7  N   UNL d   1      14.062  11.781  -2.601  0.00  0.00    -0.217 NA
BRANCH   7   8
ATOM      8  C   UNL d   1      14.093  11.785  -1.776  0.00  0.00     0.084 A 
ATOM      9  C   UNL d   1      14.824  11.792  -1.397  0.00  0.00     0.019 A 
ATOM     10  C   UNL d   1      14.858  11.796  -0.574  0.00  0.00     0.002 A 
ATOM     11  C   UNL d   1      14.166  11.791  -0.133  0.00  0.00     0.000 A 
ATOM     12  C   UNL d   1      13.436  11.784  -0.512  0.00  0.00     0.002 A 
ATOM     13  C   UNL d   1      13.397  11.780  -1.333  0.00  0.00     0.019 A 
ENDBRANCH   7   8
ENDBRANCH   5   7
ENDBRANCH   4   5
ENDBRANCH   1   4
BRANCH   1  14
ATOM     14  C   UNL d   1      13.535  14.320  -4.101  0.00  0.00     0.105 A 
ATOM     15  C   UNL d   1      13.939  15.003  -3.874  0.00  0.00     0.013 A 
ATOM     16  C   UNL d   1      13.954  15.666  -4.380  0.00  0.00     0.001 A 
ATOM     17  C   UNL d   1      13.560  15.638  -5.114  0.00  0.00     0.000 A 
ATOM     18  C   UNL d   1      13.156  14.948  -5.335  0.00  0.00     0.001 A 
ATOM     19  C   UNL d   1      13.141  14.292  -4.836  0.00  0.00     0.013 A 
BRANCH  17  20
ATOM     20  C   UNL d   1      13.572  16.292  -5.616  0.00  0.00     0.000 C 
ATOM     21  C   UNL d   1      13.164  16.520  -6.304  0.00  0.00     0.000 C 
ENDBRANCH  17  20
ENDBRANCH   1  14
TORSDOF 6
ENDMDL
