MODEL 1
REMARK VINA RESULT:      67.0      0.000      0.000
REMARK  9 active torsions:
REMARK  status: ('A' for Active; 'I' for Inactive)
REMARK    1  A    between atoms: C_22  and  N_1 
REMARK    2  A    between atoms: S_10  and  C_2 
REMARK    3  A    between atoms: N_8  and  C_9 
REMARK    4  A    between atoms: C_24  and  S_10 
REMARK    5  A    between atoms: C_11  and  C_24 
REMARK       I    between atoms: N_15  and  C_11 
REMARK    6  A    between atoms: C_13  and  C_25 
REMARK    7  A    between atoms: C_25  and  N_15 
REMARK    8  A    between atoms: C_30  and  C_22 
REMARK    9  A    between atoms: C_31  and  C_30 
ROOT
ATOM      1  N   UNL d   1      41.414 -15.203  36.436  0.00  0.00    -0.253 N 
ATOM      2  C   UNL d   1      41.267 -16.014  36.466  0.00  0.00     0.182 A 
ATOM      3  C   UNL d   1      42.196 -14.924  36.470  0.00  0.00     0.268 A 
ATOM      4  C   UNL d   1      42.822 -15.455  36.533  0.00  0.00     0.076 A 
ATOM      5  N   UNL d   1      41.901 -16.547  36.530  0.00  0.00    -0.222 NA
ATOM      6  C   UNL d   1      42.675 -16.266  36.563  0.00  0.00     0.088 A 
ATOM      7  C   UNL d   1      43.595 -15.175  36.566  0.00  0.00     0.024 A 
ATOM      8  C   UNL d   1      44.222 -15.705  36.630  0.00  0.00     0.065 A 
ATOM      9  O   UNL d   1      42.343 -14.113  36.440  0.00  0.00    -0.267 OA
ATOM     10  C   UNL d   1      43.301 -16.797  36.626  0.00  0.00     0.021 A 
ATOM     11  C   UNL d   1      44.075 -16.516  36.659  0.00  0.00     0.019 A 
ENDROOT
BRANCH   2  12
ATOM     12  S   UNL d   1      40.489 -16.298  36.432  0.00  0.00    -0.044 SA
BRANCH  12  13
ATOM     13  C   UNL d   1      40.272 -16.975  36.869  0.00  0.00     0.101 C 
BRANCH  13  14
ATOM     14  C   UNL d   1      39.481 -17.219  36.882  0.00  0.00     0.286 C 
ATOM     15  N   UNL d   1      39.231 -17.773  37.446  0.00  0.00    -0.204 NA
ATOM     16  O   UNL d   1      38.949 -16.909  36.333  0.00  0.00    -0.265 OA
BRANCH  15  17
ATOM     17  C   UNL d   1      38.435 -18.019  37.458  0.00  0.00     0.127 C 
BRANCH  17  18
ATOM     18  C   UNL d   1      38.123 -18.365  38.146  0.00  0.00     0.119 A 
ATOM     19  O   UNL d   1      38.344 -19.025  38.578  0.00  0.00    -0.304 OA
ATOM     20  C   UNL d   1      37.824 -19.101  39.215  0.00  0.00     0.123 A 
ATOM     21  C   UNL d   1      37.278 -18.488  39.181  0.00  0.00     0.029 A 
ATOM     22  C   UNL d   1      37.465 -18.030  38.516  0.00  0.00     0.028 A 
ENDBRANCH  17  18
ENDBRANCH  15  17
ENDBRANCH  13  14
ENDBRANCH  12  13
ENDBRANCH   2  12
BRANCH   1  23
ATOM     23  C   UNL d   1      40.785 -14.672  36.372  0.00  0.00     0.085 C 
BRANCH  23  24
ATOM     24  C   UNL d   1      40.922 -13.861  36.439  0.00  0.00     0.019 C 
BRANCH  24  25
ATOM     25  C   UNL d   1      40.421 -13.394  36.909  0.00  0.00     0.002 C 
ATOM     26  C   UNL d   1      39.635 -13.247  36.661  0.00  0.00     0.000 C 
ENDBRANCH  24  25
ENDBRANCH  23  24
ENDBRANCH   1  23
BRANCH   8  27
ATOM     27  N   UNL d   1      44.995 -15.425  36.663  0.00  0.00    -0.300 N 
ATOM     28  C   UNL d   1      45.158 -14.690  37.021  0.00  0.00     0.107 A 
ATOM     29  C   UNL d   1      45.931 -14.410  37.054  0.00  0.00     0.142 A 
ATOM     30  O   UNL d   1      46.556 -14.858  36.731  0.00  0.00    -0.300 OA
ATOM     31  C   UNL d   1      46.393 -15.593  36.373  0.00  0.00     0.142 A 
ATOM     32  C   UNL d   1      45.612 -15.872  36.341  0.00  0.00     0.107 A 
ENDBRANCH   8  27
TORSDOF 9
ENDMDL
MODEL 2
REMARK VINA RESULT:      69.7      4.263      6.884
REMARK  9 active torsions:
REMARK  status: ('A' for Active; 'I' for Inactive)
REMARK    1  A    between atoms: C_22  and  N_1 
REMARK    2  A    between atoms: S_10  and  C_2 
REMARK    3  A    between atoms: N_8  and  C_9 
REMARK    4  A    between atoms: C_24  and  S_10 
REMARK    5  A    between atoms: C_11  and  C_24 
REMARK       I    between atoms: N_15  and  C_11 
REMARK    6  A    between atoms: C_13  and  C_25 
REMARK    7  A    between atoms: C_25  and  N_15 
REMARK    8  A    between atoms: C_30  and  C_22 
REMARK    9  A    between atoms: C_31  and  C_30 
ROOT
ATOM      1  N   UNL d   1      44.547 -17.266  39.292  0.00  0.00    -0.253 N 
ATOM      2  C   UNL d   1      45.243 -17.217  38.850  0.00  0.00     0.182 A 
ATOM      3  C   UNL d   1      44.553 -17.648  40.029  0.00  0.00     0.268 A 
ATOM      4  C   UNL d   1      45.249 -17.977  40.320  0.00  0.00     0.076 A 
ATOM      5  N   UNL d   1      45.944 -17.550  39.147  0.00  0.00    -0.222 NA
ATOM      6  C   UNL d   1      45.945 -17.928  39.879  0.00  0.00     0.088 A 
ATOM      7  C   UNL d   1      45.251 -18.354  41.051  0.00  0.00     0.024 A 
ATOM      8  C   UNL d   1      45.947 -18.683  41.342  0.00  0.00     0.065 A 
ATOM      9  O   UNL d   1      43.858 -17.697  40.470  0.00  0.00    -0.267 OA
ATOM     10  C   UNL d   1      46.642 -18.256  40.169  0.00  0.00     0.021 A 
ATOM     11  C   UNL d   1      46.643 -18.634  40.901  0.00  0.00     0.019 A 
ENDROOT
BRANCH   2  12
ATOM     12  S   UNL d   1      45.243 -16.837  38.114  0.00  0.00    -0.044 SA
BRANCH  12  13
ATOM     13  C   UNL d   1      45.965 -16.659  37.736  0.00  0.00     0.101 C 
BRANCH  13  14
ATOM     14  C   UNL d   1      45.987 -16.083  37.141  0.00  0.00     0.286 C 
ATOM     15  N   UNL d   1      46.558 -15.482  37.171  0.00  0.00    -0.204 NA
ATOM     16  O   UNL d   1      45.440 -16.113  36.524  0.00  0.00    -0.265 OA
BRANCH  15  17
ATOM     17  C   UNL d   1      46.578 -14.904  36.572  0.00  0.00     0.127 C 
BRANCH  17  18
ATOM     18  C   UNL d   1      46.465 -14.105  36.770  0.00  0.00     0.119 A 
ATOM     19  O   UNL d   1      46.627 -13.410  36.367  0.00  0.00    -0.304 OA
ATOM     20  C   UNL d   1      46.392 -12.776  36.842  0.00  0.00     0.123 A 
ATOM     21  C   UNL d   1      46.084 -13.076  37.542  0.00  0.00     0.029 A 
ATOM     22  C   UNL d   1      46.130 -13.902  37.496  0.00  0.00     0.028 A 
ENDBRANCH  17  18
ENDBRANCH  15  17
ENDBRANCH  13  14
ENDBRANCH  12  13
ENDBRANCH   2  12
BRANCH   1  23
ATOM     23  C   UNL d   1      43.849 -16.935  38.998  0.00  0.00     0.085 C 
BRANCH  23  24
ATOM     24  C   UNL d   1      43.882 -16.367  38.401  0.00  0.00     0.019 C 
BRANCH  24  25
ATOM     25  C   UNL d   1      43.253 -16.297  37.863  0.00  0.00     0.002 C 
ATOM     26  C   UNL d   1      42.753 -15.626  37.892  0.00  0.00     0.000 C 
ENDBRANCH  24  25
ENDBRANCH  23  24
ENDBRANCH   1  23
BRANCH   8  27
ATOM     27  N   UNL d   1      45.949 -19.061  42.073  0.00  0.00    -0.300 N 
ATOM     28  C   UNL d   1      45.314 -19.557  42.288  0.00  0.00     0.107 A 
ATOM     29  C   UNL d   1      45.316 -19.935  43.020  0.00  0.00     0.142 A 
ATOM     30  O   UNL d   1      45.950 -19.824  43.549  0.00  0.00    -0.300 OA
ATOM     31  C   UNL d   1      46.585 -19.328  43.334  0.00  0.00     0.142 A 
ATOM     32  C   UNL d   1      46.580 -18.949  42.595  0.00  0.00     0.107 A 
ENDBRANCH   8  27
TORSDOF 9
ENDMDL
