MODEL 1
REMARK VINA RESULT:      -3.8      0.000      0.000
REMARK  5 active torsions:
REMARK  status: ('A' for Active; 'I' for Inactive)
REMARK    1  A    between atoms: C_3  and  C_1 
REMARK    2  A    between atoms: N_2  and  C_7 
REMARK       I    between atoms: N_4  and  C_3 
REMARK    3  A    between atoms: C_9  and  N_4 
REMARK    4  A    between atoms: O_19  and  C_6 
REMARK    5  A    between atoms: O_20  and  C_10 
ROOT
ATOM      1  C   UNL d   1     -42.144-123.354 -50.817  0.00  0.00     0.281 C 
ATOM      2  N   UNL d   1     -41.547-122.940 -51.210  0.00  0.00    -0.206 NA
ATOM      3  O   UNL d   1     -42.651-123.814 -51.232  0.00  0.00    -0.265 OA
ENDROOT
BRANCH   1   4
ATOM      4  C   UNL d   1     -42.210-123.286 -49.991  0.00  0.00     0.080 A 
ATOM      5  C   UNL d   1     -41.629-123.583 -49.500  0.00  0.00     0.007 A 
ATOM      6  C   UNL d   1     -41.714-123.504 -48.669  0.00  0.00     0.000 A 
ATOM      7  C   UNL d   1     -41.123-123.806 -48.182  0.00  0.00     0.000 A 
ATOM      8  C   UNL d   1     -42.385-123.127 -48.371  0.00  0.00     0.002 A 
ATOM      9  C   UNL d   1     -41.215-123.724 -47.349  0.00  0.00     0.000 A 
ATOM     10  C   UNL d   1     -41.861-123.361 -47.064  0.00  0.00     0.000 A 
ATOM     11  C   UNL d   1     -42.452-123.059 -47.553  0.00  0.00     0.000 A 
ATOM     12  C   UNL d   1     -42.956-122.837 -48.883  0.00  0.00     0.024 A 
ATOM     13  C   UNL d   1     -42.859-122.922 -49.702  0.00  0.00     0.099 A 
BRANCH  13  14
ATOM     14  O   UNL d   1     -43.430-122.632 -50.240  0.00  0.00    -0.328 OA
ATOM     15  C   UNL d   1     -44.163-122.356 -49.949  0.00  0.00     0.181 C 
ENDBRANCH  13  14
ENDBRANCH   1   4
BRANCH   2  16
ATOM     16  C   UNL d   1     -41.462-122.989 -52.003  0.00  0.00     0.107 A 
ATOM     17  C   UNL d   1     -41.273-122.312 -52.424  0.00  0.00     0.113 A 
ATOM     18  C   UNL d   1     -41.182-122.347 -53.246  0.00  0.00     0.049 A 
ATOM     19  C   UNL d   1     -41.280-123.061 -53.654  0.00  0.00     0.129 A 
ATOM     20  C   UNL d   1     -41.470-123.739 -53.229  0.00  0.00     0.025 A 
ATOM     21  C   UNL d   1     -41.562-123.710 -52.413  0.00  0.00     0.023 A 
BRANCH  17  22
ATOM     22  O   UNL d   1     -41.171-121.581 -52.023  0.00  0.00    -0.327 OA
ATOM     23  C   UNL d   1     -41.148-120.873 -52.473  0.00  0.00     0.181 C 
ENDBRANCH  17  22
BRANCH  19  24
ATOM     24  N   UNL d   1     -41.183-123.073 -54.480  0.00  0.00    -0.114 N 
ATOM     25  O   UNL d   1     -41.151-123.809 -54.852  0.00  0.00    -0.532 OA
ATOM     26  O   UNL d   1     -41.124-122.370 -54.899  0.00  0.00    -0.532 OA
ENDBRANCH  19  24
ENDBRANCH   2  16
TORSDOF 5
ENDMDL
MODEL 2
REMARK VINA RESULT:      -3.5      1.549      4.939
REMARK  5 active torsions:
REMARK  status: ('A' for Active; 'I' for Inactive)
REMARK    1  A    between atoms: C_3  and  C_1 
REMARK    2  A    between atoms: N_2  and  C_7 
REMARK       I    between atoms: N_4  and  C_3 
REMARK    3  A    between atoms: C_9  and  N_4 
REMARK    4  A    between atoms: O_19  and  C_6 
REMARK    5  A    between atoms: O_20  and  C_10 
ROOT
ATOM      1  C   UNL d   1     -41.433-122.414 -50.857  0.00  0.00     0.281 C 
ATOM      2  N   UNL d   1     -41.813-123.037 -50.471  0.00  0.00    -0.206 NA
ATOM      3  O   UNL d   1     -41.123-121.810 -50.433  0.00  0.00    -0.265 OA
ENDROOT
BRANCH   1   4
ATOM      4  C   UNL d   1     -41.378-122.423 -51.686  0.00  0.00     0.080 A 
ATOM      5  C   UNL d   1     -41.469-123.120 -52.103  0.00  0.00     0.007 A 
ATOM      6  C   UNL d   1     -41.409-123.108 -52.940  0.00  0.00     0.000 A 
ATOM      7  C   UNL d   1     -41.502-123.815 -53.352  0.00  0.00     0.000 A 
ATOM      8  C   UNL d   1     -41.260-122.390 -53.319  0.00  0.00     0.002 A 
ATOM      9  C   UNL d   1     -41.442-123.796 -54.191  0.00  0.00     0.000 A 
ATOM     10  C   UNL d   1     -41.298-123.104 -54.555  0.00  0.00     0.000 A 
ATOM     11  C   UNL d   1     -41.205-122.397 -54.141  0.00  0.00     0.000 A 
ATOM     12  C   UNL d   1     -41.172-121.703 -52.880  0.00  0.00     0.024 A 
ATOM     13  C   UNL d   1     -41.233-121.729 -52.054  0.00  0.00     0.099 A 
BRANCH  13  14
ATOM     14  O   UNL d   1     -41.147-121.039 -51.589  0.00  0.00    -0.328 OA
ATOM     15  C   UNL d   1     -41.123-120.293 -51.966  0.00  0.00     0.181 C 
ENDBRANCH  13  14
ENDBRANCH   1   4
BRANCH   2  16
ATOM     16  C   UNL d   1     -41.880-123.052 -49.675  0.00  0.00     0.107 A 
ATOM     17  C   UNL d   1     -42.627-123.084 -49.340  0.00  0.00     0.113 A 
ATOM     18  C   UNL d   1     -42.712-123.100 -48.517  0.00  0.00     0.049 A 
ATOM     19  C   UNL d   1     -42.048-123.084 -48.021  0.00  0.00     0.129 A 
ATOM     20  C   UNL d   1     -41.299-123.053 -48.360  0.00  0.00     0.025 A 
ATOM     21  C   UNL d   1     -41.209-123.036 -49.177  0.00  0.00     0.023 A 
BRANCH  17  22
ATOM     22  O   UNL d   1     -43.309-123.100 -49.830  0.00  0.00    -0.327 OA
ATOM     23  C   UNL d   1     -43.940-123.615 -49.629  0.00  0.00     0.181 C 
ENDBRANCH  17  22
BRANCH  19  24
ATOM     24  N   UNL d   1     -42.157-123.101 -47.197  0.00  0.00    -0.114 N 
ATOM     25  O   UNL d   1     -42.250-122.379 -46.808  0.00  0.00    -0.532 OA
ATOM     26  O   UNL d   1     -42.169-123.817 -46.797  0.00  0.00    -0.532 OA
ENDBRANCH  19  24
ENDBRANCH   2  16
TORSDOF 5
ENDMDL
