MODEL 1
REMARK VINA RESULT:      71.2      0.000      0.000
REMARK  6 active torsions:
REMARK  status: ('A' for Active; 'I' for Inactive)
REMARK    1  A    between atoms: S_10  and  C_5 
REMARK    2  A    between atoms: C_11  and  N_8 
REMARK    3  A    between atoms: C_15  and  S_10 
REMARK    4  A    between atoms: C_16  and  C_11 
REMARK    5  A    between atoms: C_17  and  C_15 
REMARK    6  A    between atoms: C_23  and  C_16 
ROOT
ATOM      1  C   UNL d   1     -51.621  26.764  33.580  0.00  0.00     0.174 A 
ATOM      2  C   UNL d   1     -51.331  25.988  33.560  0.00  0.00     0.159 A 
ATOM      3  N   UNL d   1     -50.984  27.267  33.686  0.00  0.00    -0.203 NA
ATOM      4  N   UNL d   1     -52.431  26.893  33.496  0.00  0.00    -0.239 N 
ATOM      5  C   UNL d   1     -50.307  26.795  33.731  0.00  0.00     0.181 A 
ATOM      6  C   UNL d   1     -52.976  26.263  33.391  0.00  0.00     0.358 A 
ATOM      7  N   UNL d   1     -52.686  25.487  33.371  0.00  0.00    -0.152 NA
ATOM      8  N   UNL d   1     -50.440  25.974  33.661  0.00  0.00    -0.279 N 
ATOM      9  C   UNL d   1     -51.852  25.340  33.457  0.00  0.00     0.302 A 
ATOM     10  O   UNL d   1     -53.798  26.388  33.306  0.00  0.00    -0.244 OA
ATOM     11  O   UNL d   1     -51.562  24.564  33.437  0.00  0.00    -0.263 OA
ATOM     12  C   UNL d   1     -52.721  27.669  33.516  0.00  0.00     0.105 C 
ENDROOT
BRANCH   5  13
ATOM     13  S   UNL d   1     -49.642  27.267  33.839  0.00  0.00    -0.049 SA
BRANCH  13  14
ATOM     14  C   UNL d   1     -48.913  27.175  34.222  0.00  0.00     0.038 C 
BRANCH  14  15
ATOM     15  C   UNL d   1     -48.571  27.813  34.617  0.00  0.00     0.007 A 
ATOM     16  C   UNL d   1     -47.863  28.130  34.341  0.00  0.00     0.001 A 
ATOM     17  C   UNL d   1     -47.520  28.768  34.736  0.00  0.00     0.000 A 
ATOM     18  C   UNL d   1     -47.887  29.086  35.406  0.00  0.00     0.000 A 
ATOM     19  C   UNL d   1     -48.599  28.762  35.679  0.00  0.00     0.000 A 
ATOM     20  C   UNL d   1     -47.543  29.727  35.804  0.00  0.00     0.000 C 
ATOM     21  C   UNL d   1     -48.938  28.125  35.280  0.00  0.00     0.001 A 
ENDBRANCH  14  15
ENDBRANCH  13  14
ENDBRANCH   5  13
BRANCH   8  22
ATOM     22  C   UNL d   1     -49.812  25.442  33.696  0.00  0.00     0.082 C 
BRANCH  22  23
ATOM     23  C   UNL d   1     -49.857  24.716  33.306  0.00  0.00     0.019 C 
BRANCH  23  24
ATOM     24  C   UNL d   1     -49.380  24.087  33.538  0.00  0.00     0.002 C 
ATOM     25  C   UNL d   1     -48.585  24.209  33.720  0.00  0.00     0.000 C 
ATOM     26  C   UNL d   1     -49.694  23.323  33.592  0.00  0.00     0.000 C 
ENDBRANCH  23  24
ENDBRANCH  22  23
ENDBRANCH   8  22
TORSDOF 6
ENDMDL
MODEL 2
REMARK VINA RESULT:      73.9      3.589      5.762
REMARK  6 active torsions:
REMARK  status: ('A' for Active; 'I' for Inactive)
REMARK    1  A    between atoms: S_10  and  C_5 
REMARK    2  A    between atoms: C_11  and  N_8 
REMARK    3  A    between atoms: C_15  and  S_10 
REMARK    4  A    between atoms: C_16  and  C_11 
REMARK    5  A    between atoms: C_17  and  C_15 
REMARK    6  A    between atoms: C_23  and  C_16 
ROOT
ATOM      1  C   UNL d   1     -48.475  31.392  34.080  0.00  0.00     0.174 A 
ATOM      2  C   UNL d   1     -47.934  31.102  34.637  0.00  0.00     0.159 A 
ATOM      3  N   UNL d   1     -48.957  30.771  33.851  0.00  0.00    -0.203 NA
ATOM      4  N   UNL d   1     -48.443  32.187  33.865  0.00  0.00    -0.239 N 
ATOM      5  C   UNL d   1     -48.708  30.104  34.271  0.00  0.00     0.181 A 
ATOM      6  C   UNL d   1     -47.880  32.717  34.191  0.00  0.00     0.358 A 
ATOM      7  N   UNL d   1     -47.339  32.427  34.749  0.00  0.00    -0.152 NA
ATOM      8  N   UNL d   1     -48.066  30.228  34.790  0.00  0.00    -0.279 N 
ATOM      9  C   UNL d   1     -47.361  31.608  34.979  0.00  0.00     0.302 A 
ATOM     10  O   UNL d   1     -47.843  33.524  33.977  0.00  0.00    -0.244 OA
ATOM     11  O   UNL d   1     -46.821  31.318  35.537  0.00  0.00    -0.263 OA
ATOM     12  C   UNL d   1     -48.984  32.477  33.307  0.00  0.00     0.105 C 
ENDROOT
BRANCH   5  13
ATOM     13  S   UNL d   1     -49.172  29.455  34.067  0.00  0.00    -0.049 SA
BRANCH  13  14
ATOM     14  C   UNL d   1     -49.512  29.175  33.366  0.00  0.00     0.038 C 
BRANCH  14  15
ATOM     15  C   UNL d   1     -49.914  28.455  33.360  0.00  0.00     0.007 A 
ATOM     16  C   UNL d   1     -49.488  27.752  33.404  0.00  0.00     0.001 A 
ATOM     17  C   UNL d   1     -49.890  27.031  33.398  0.00  0.00     0.000 A 
ATOM     18  C   UNL d   1     -50.716  27.017  33.349  0.00  0.00     0.000 A 
ATOM     19  C   UNL d   1     -51.138  27.728  33.306  0.00  0.00     0.000 A 
ATOM     20  C   UNL d   1     -51.120  26.293  33.344  0.00  0.00     0.000 C 
ATOM     21  C   UNL d   1     -50.732  28.446  33.312  0.00  0.00     0.001 A 
ENDBRANCH  14  15
ENDBRANCH  13  14
ENDBRANCH   5  13
BRANCH   8  22
ATOM     22  C   UNL d   1     -47.764  29.608  35.240  0.00  0.00     0.082 C 
BRANCH  22  23
ATOM     23  C   UNL d   1     -47.265  29.762  35.880  0.00  0.00     0.019 C 
BRANCH  23  24
ATOM     24  C   UNL d   1     -47.344  29.339  36.582  0.00  0.00     0.002 C 
ATOM     25  C   UNL d   1     -47.944  28.779  36.669  0.00  0.00     0.000 C 
ATOM     26  C   UNL d   1     -46.821  29.471  37.210  0.00  0.00     0.000 C 
ENDBRANCH  23  24
ENDBRANCH  22  23
ENDBRANCH   8  22
TORSDOF 6
ENDMDL
