MODEL 1
REMARK VINA RESULT:      -9.1      0.000      0.000
REMARK  3 active torsions:
REMARK  status: ('A' for Active; 'I' for Inactive)
REMARK    1  A    between atoms: C_10  and  C_1 
REMARK    2  A    between atoms: C_8  and  N_5 
REMARK    3  A    between atoms: N_9  and  C_10 
ROOT
ATOM      1  C   UNL d   1      51.932  33.329  52.650  0.00  0.00     0.084 C 
ENDROOT
BRANCH   1   2
ATOM      2  N   UNL d   1      51.216  33.735  52.577  0.00  0.00    -0.300 N 
ATOM      3  C   UNL d   1      50.652  33.687  53.174  0.00  0.00     0.100 A 
ATOM      4  C   UNL d   1      49.933  34.095  53.102  0.00  0.00     0.101 A 
ATOM      5  N   UNL d   1      49.786  34.549  52.430  0.00  0.00    -0.286 N 
ATOM      6  C   UNL d   1      50.355  34.602  51.821  0.00  0.00     0.101 A 
ATOM      7  C   UNL d   1      51.079  34.186  51.901  0.00  0.00     0.100 A 
BRANCH   5   8
ATOM      8  C   UNL d   1      49.080  34.959  52.342  0.00  0.00     0.148 A 
ATOM      9  N   UNL d   1      48.816  35.442  52.975  0.00  0.00    -0.227 NA
ATOM     10  C   UNL d   1      48.098  35.863  52.893  0.00  0.00     0.101 A 
ATOM     11  C   UNL d   1      47.663  35.797  52.197  0.00  0.00     0.021 A 
ATOM     12  C   UNL d   1      47.931  35.316  51.576  0.00  0.00     0.005 A 
ATOM     13  C   UNL d   1      48.637  34.900  51.650  0.00  0.00     0.037 A 
ENDBRANCH   5   8
ENDBRANCH   1   2
BRANCH   1  14
ATOM     14  C   UNL d   1      52.482  33.552  53.229  0.00  0.00     0.059 A 
ATOM     15  C   UNL d   1      52.923  32.963  53.634  0.00  0.00     0.214 A 
ATOM     16  C   UNL d   1      53.464  33.203  54.204  0.00  0.00     0.121 A 
ATOM     17  O   UNL d   1      52.813  32.170  53.461  0.00  0.00    -0.285 OA
ATOM     18  N   UNL d   1      53.898  32.630  54.604  0.00  0.00    -0.241 NA
ATOM     19  C   UNL d   1      53.574  33.993  54.377  0.00  0.00     0.032 A 
ATOM     20  C   UNL d   1      54.457  32.850  55.191  0.00  0.00     0.099 A 
ATOM     21  C   UNL d   1      54.568  33.647  55.365  0.00  0.00     0.021 A 
ATOM     22  C   UNL d   1      54.125  34.223  54.958  0.00  0.00     0.004 A 
ATOM     23  C   UNL d   1      53.146  34.571  53.985  0.00  0.00     0.059 A 
ATOM     24  C   UNL d   1      52.586  34.344  53.396  0.00  0.00     0.016 A 
ATOM     25 CL   UNL d   1      53.258  35.373  54.160  0.00  0.00    -0.082 Cl
ENDBRANCH   1  14
TORSDOF 3
ENDMDL
MODEL 2
REMARK VINA RESULT:      -8.1      1.604      5.182
REMARK  3 active torsions:
REMARK  status: ('A' for Active; 'I' for Inactive)
REMARK    1  A    between atoms: C_10  and  C_1 
REMARK    2  A    between atoms: C_8  and  N_5 
REMARK    3  A    between atoms: N_9  and  C_10 
ROOT
ATOM      1  C   UNL d   1      50.124  34.102  51.946  0.00  0.00     0.084 C 
ENDROOT
BRANCH   1   2
ATOM      2  N   UNL d   1      50.783  34.011  52.436  0.00  0.00    -0.300 N 
ATOM      3  C   UNL d   1      51.442  34.492  52.332  0.00  0.00     0.100 A 
ATOM      4  C   UNL d   1      52.105  34.401  52.823  0.00  0.00     0.101 A 
ATOM      5  N   UNL d   1      52.101  33.828  53.415  0.00  0.00    -0.286 N 
ATOM      6  C   UNL d   1      51.434  33.337  53.525  0.00  0.00     0.101 A 
ATOM      7  C   UNL d   1      50.767  33.434  53.024  0.00  0.00     0.100 A 
BRANCH   5   8
ATOM      8  C   UNL d   1      52.748  33.724  53.909  0.00  0.00     0.148 A 
ATOM      9  N   UNL d   1      52.902  34.305  54.495  0.00  0.00    -0.227 NA
ATOM     10  C   UNL d   1      53.558  34.208  55.003  0.00  0.00     0.101 A 
ATOM     11  C   UNL d   1      54.042  33.545  54.921  0.00  0.00     0.021 A 
ATOM     12  C   UNL d   1      53.883  32.976  54.339  0.00  0.00     0.005 A 
ATOM     13  C   UNL d   1      53.238  33.066  53.836  0.00  0.00     0.037 A 
ENDBRANCH   5   8
ENDBRANCH   1   2
BRANCH   1  14
ATOM     14  C   UNL d   1      49.506  34.610  52.167  0.00  0.00     0.059 A 
ATOM     15  C   UNL d   1      48.881  34.766  51.627  0.00  0.00     0.214 A 
ATOM     16  C   UNL d   1      48.278  35.271  51.863  0.00  0.00     0.121 A 
ATOM     17  O   UNL d   1      48.878  34.420  50.885  0.00  0.00    -0.285 OA
ATOM     18  N   UNL d   1      47.664  35.427  51.339  0.00  0.00    -0.241 NA
ATOM     19  C   UNL d   1      48.281  35.616  52.603  0.00  0.00     0.032 A 
ATOM     20  C   UNL d   1      47.036  35.940  51.557  0.00  0.00     0.099 A 
ATOM     21  C   UNL d   1      47.038  36.288  52.304  0.00  0.00     0.021 A 
ATOM     22  C   UNL d   1      47.663  36.127  52.831  0.00  0.00     0.004 A 
ATOM     23  C   UNL d   1      48.887  35.467  53.133  0.00  0.00     0.059 A 
ATOM     24  C   UNL d   1      49.516  34.950  52.908  0.00  0.00     0.016 A 
ATOM     25 CL   UNL d   1      48.890  35.817  53.884  0.00  0.00    -0.082 Cl
ENDBRANCH   1  14
TORSDOF 3
ENDMDL
MODEL 3
REMARK VINA RESULT:      -6.9      1.484      1.933
REMARK  3 active torsions:
REMARK  status: ('A' for Active; 'I' for Inactive)
REMARK    1  A    between atoms: C_10  and  C_1 
REMARK    2  A    between atoms: C_8  and  N_5 
REMARK    3  A    between atoms: N_9  and  C_10 
ROOT
ATOM      1  C   UNL d   1      52.042  33.946  53.291  0.00  0.00     0.084 C 
ENDROOT
BRANCH   1   2
ATOM      2  N   UNL d   1      51.331  34.144  52.919  0.00  0.00    -0.300 N 
ATOM      3  C   UNL d   1      50.647  34.243  53.364  0.00  0.00     0.100 A 
ATOM      4  C   UNL d   1      49.932  34.442  52.993  0.00  0.00     0.101 A 
ATOM      5  N   UNL d   1      49.910  34.541  52.175  0.00  0.00    -0.286 N 
ATOM      6  C   UNL d   1      50.602  34.442  51.717  0.00  0.00     0.101 A 
ATOM      7  C   UNL d   1      51.321  34.241  52.100  0.00  0.00     0.100 A 
BRANCH   5   8
ATOM      8  C   UNL d   1      49.212  34.738  51.790  0.00  0.00     0.148 A 
ATOM      9  N   UNL d   1      48.677  35.259  52.172  0.00  0.00    -0.227 NA
ATOM     10  C   UNL d   1      47.965  35.465  51.788  0.00  0.00     0.101 A 
ATOM     11  C   UNL d   1      47.799  35.154  51.043  0.00  0.00     0.021 A 
ATOM     12  C   UNL d   1      48.333  34.639  50.672  0.00  0.00     0.005 A 
ATOM     13  C   UNL d   1      49.036  34.433  51.045  0.00  0.00     0.037 A 
ENDBRANCH   5   8
ENDBRANCH   1   2
BRANCH   1  14
ATOM     14  C   UNL d   1      52.307  33.160  53.295  0.00  0.00     0.059 A 
ATOM     15  C   UNL d   1      53.130  32.997  53.300  0.00  0.00     0.214 A 
ATOM     16  C   UNL d   1      53.374  32.212  53.304  0.00  0.00     0.121 A 
ATOM     17  O   UNL d   1      53.674  33.609  53.300  0.00  0.00    -0.285 OA
ATOM     18  N   UNL d   1      54.180  32.048  53.309  0.00  0.00    -0.241 NA
ATOM     19  C   UNL d   1      52.832  31.602  53.304  0.00  0.00     0.032 A 
ATOM     20  C   UNL d   1      54.454  31.254  53.313  0.00  0.00     0.099 A 
ATOM     21  C   UNL d   1      53.907  30.638  53.313  0.00  0.00     0.021 A 
ATOM     22  C   UNL d   1      53.092  30.810  53.308  0.00  0.00     0.004 A 
ATOM     23  C   UNL d   1      52.028  31.755  53.299  0.00  0.00     0.059 A 
ATOM     24  C   UNL d   1      51.758  32.555  53.295  0.00  0.00     0.016 A 
ATOM     25 CL   UNL d   1      51.478  31.135  53.299  0.00  0.00    -0.082 Cl
ENDBRANCH   1  14
TORSDOF 3
ENDMDL
MODEL 4
REMARK VINA RESULT:      -6.7      9.480     10.631
REMARK  3 active torsions:
REMARK  status: ('A' for Active; 'I' for Inactive)
REMARK    1  A    between atoms: C_10  and  C_1 
REMARK    2  A    between atoms: C_8  and  N_5 
REMARK    3  A    between atoms: N_9  and  C_10 
ROOT
ATOM      1  C   UNL d   1      45.334  28.354  58.128  0.00  0.00     0.084 C 
ENDROOT
BRANCH   1   2
ATOM      2  N   UNL d   1      45.182  27.630  57.761  0.00  0.00    -0.300 N 
ATOM      3  C   UNL d   1      44.470  27.241  57.897  0.00  0.00     0.100 A 
ATOM      4  C   UNL d   1      44.316  26.513  57.529  0.00  0.00     0.101 A 
ATOM      5  N   UNL d   1      44.878  26.181  57.027  0.00  0.00    -0.286 N 
ATOM      6  C   UNL d   1      45.603  26.571  56.885  0.00  0.00     0.101 A 
ATOM      7  C   UNL d   1      45.752  27.307  57.261  0.00  0.00     0.100 A 
BRANCH   5   8
ATOM      8  C   UNL d   1      44.742  25.462  56.655  0.00  0.00     0.148 A 
ATOM      9  N   UNL d   1      44.626  24.780  57.130  0.00  0.00    -0.227 NA
ATOM     10  C   UNL d   1      44.487  24.045  56.759  0.00  0.00     0.101 A 
ATOM     11  C   UNL d   1      44.466  24.000  55.936  0.00  0.00     0.021 A 
ATOM     12  C   UNL d   1      44.582  24.679  55.474  0.00  0.00     0.005 A 
ATOM     13  C   UNL d   1      44.719  25.406  55.833  0.00  0.00     0.037 A 
ENDBRANCH   5   8
ENDBRANCH   1   2
BRANCH   1  14
ATOM     14  C   UNL d   1      45.106  29.064  57.765  0.00  0.00     0.059 A 
ATOM     15  C   UNL d   1      45.010  29.757  58.227  0.00  0.00     0.214 A 
ATOM     16  C   UNL d   1      44.783  30.451  57.850  0.00  0.00     0.121 A 
ATOM     17  O   UNL d   1      45.141  29.738  59.035  0.00  0.00    -0.285 OA
ATOM     18  N   UNL d   1      44.688  31.134  58.299  0.00  0.00    -0.241 NA
ATOM     19  C   UNL d   1      44.652  30.470  57.044  0.00  0.00     0.032 A 
ATOM     20  C   UNL d   1      44.456  31.855  57.936  0.00  0.00     0.099 A 
ATOM     21  C   UNL d   1      44.325  31.874  57.123  0.00  0.00     0.021 A 
ATOM     22  C   UNL d   1      44.423  31.180  56.673  0.00  0.00     0.004 A 
ATOM     23  C   UNL d   1      44.744  29.796  56.588  0.00  0.00     0.059 A 
ATOM     24  C   UNL d   1      44.977  29.074  56.959  0.00  0.00     0.016 A 
ATOM     25 CL   UNL d   1      44.612  29.816  55.771  0.00  0.00    -0.082 Cl
ENDBRANCH   1  14
TORSDOF 3
ENDMDL
