MODEL 1
REMARK VINA RESULT:      98.7      0.000      0.000
REMARK  3 active torsions:
REMARK  status: ('A' for Active; 'I' for Inactive)
REMARK    1  A    between atoms: C_10  and  N_2 
REMARK    2  A    between atoms: C_15  and  C_3 
REMARK    3  A    between atoms: C_6  and  C_4 
ROOT
ATOM      1  N   UNL d   1      61.314  45.676  51.449  0.00  0.00    -0.165 NA
ATOM      2  N   UNL d   1      61.764  44.456  50.865  0.00  0.00    -0.228 N 
ATOM      3  C   UNL d   1      61.684  45.637  50.073  0.00  0.00     0.081 A 
ATOM      4  C   UNL d   1      61.411  46.059  50.725  0.00  0.00     0.106 A 
ATOM      5  C   UNL d   1      61.861  44.838  50.140  0.00  0.00     0.105 A 
ENDROOT
BRANCH   4   6
ATOM      6  C   UNL d   1      61.233  46.863  50.660  0.00  0.00     0.022 A 
ATOM      7  C   UNL d   1      61.012  47.289  51.329  0.00  0.00     0.028 A 
ATOM      8  C   UNL d   1      60.834  48.093  51.265  0.00  0.00     0.123 A 
ATOM      9  O   UNL d   1      60.612  48.520  51.937  0.00  0.00    -0.301 OA
ATOM     10  C   UNL d   1      60.879  48.469  50.518  0.00  0.00     0.123 A 
ATOM     11  C   UNL d   1      60.432  49.336  51.866  0.00  0.00     0.149 A 
ATOM     12  C   UNL d   1      60.477  49.708  51.126  0.00  0.00     0.149 A 
ATOM     13  O   UNL d   1      60.700  49.272  50.457  0.00  0.00    -0.301 OA
ATOM     14  C   UNL d   1      61.101  48.033  49.858  0.00  0.00     0.027 A 
ATOM     15  C   UNL d   1      61.278  47.235  49.921  0.00  0.00     0.004 A 
ENDBRANCH   4   6
BRANCH   3  16
ATOM     16  C   UNL d   1      61.786  46.036  49.316  0.00  0.00     0.237 C 
ATOM     17  O   UNL d   1      62.456  45.845  48.828  0.00  0.00    -0.283 OA
ENDBRANCH   3  16
BRANCH   2  18
ATOM     18  C   UNL d   1      61.877  43.688  51.143  0.00  0.00     0.083 A 
ATOM     19  C   UNL d   1      61.449  43.411  51.790  0.00  0.00     0.019 A 
ATOM     20  C   UNL d   1      61.569  42.640  52.062  0.00  0.00     0.002 A 
ATOM     21  C   UNL d   1      62.115  42.151  51.687  0.00  0.00     0.000 A 
ATOM     22  C   UNL d   1      62.545  42.430  51.037  0.00  0.00     0.002 A 
ATOM     23  C   UNL d   1      62.424  43.199  50.768  0.00  0.00     0.019 A 
ENDBRANCH   2  18
TORSDOF 3
ENDMDL
