MODEL 1
REMARK VINA RESULT:      -3.1      0.000      0.000
REMARK  2 active torsions:
REMARK  status: ('A' for Active; 'I' for Inactive)
REMARK       I    between atoms: C_3  and  N_1 
REMARK       I    between atoms: C_4  and  N_2 
REMARK    1  A    between atoms: C_5  and  C_3 
REMARK    2  A    between atoms: C_6  and  C_4 
ROOT
ATOM      1  N   UNL d   1      33.191  21.652 -21.643  0.00  0.00    -0.270 N 
ATOM      2  N   UNL d   1      33.139  20.125 -22.265  0.00  0.00    -0.269 N 
ATOM      3  C   UNL d   1      33.216  22.408 -21.339  0.00  0.00     0.271 C 
ATOM      4  C   UNL d   1      33.113  19.374 -22.582  0.00  0.00     0.271 C 
ATOM      5  C   UNL d   1      33.166  20.997 -21.131  0.00  0.00     0.085 A 
ATOM      6  C   UNL d   1      33.141  20.248 -21.448  0.00  0.00     0.101 A 
ATOM      7  C   UNL d   1      33.190  21.555 -22.464  0.00  0.00     0.102 A 
ATOM      8  C   UNL d   1      33.163  20.780 -22.776  0.00  0.00     0.102 A 
ATOM      9  O   UNL d   1      33.241  23.066 -21.857  0.00  0.00    -0.266 OA
ATOM     10  O   UNL d   1      33.089  18.732 -22.081  0.00  0.00    -0.266 OA
ATOM     11  C   UNL d   1      33.168  21.120 -20.315  0.00  0.00     0.021 C 
ENDROOT
BRANCH   3  12
ATOM     12  C   UNL d   1      33.219  22.540 -20.528  0.00  0.00     0.086 A 
ATOM     13  S   UNL d   1      33.222  22.373 -19.717  0.00  0.00    -0.082 SA
ATOM     14  C   UNL d   1      33.222  23.088 -19.311  0.00  0.00     0.036 A 
ATOM     15  C   UNL d   1      33.219  23.701 -19.872  0.00  0.00     0.008 A 
ATOM     16  C   UNL d   1      33.217  23.355 -20.627  0.00  0.00     0.012 A 
ENDBRANCH   3  12
BRANCH   4  17
ATOM     17  C   UNL d   1      33.105  19.065 -23.346  0.00  0.00     0.086 A 
ATOM     18  S   UNL d   1      33.239  19.155 -24.154  0.00  0.00    -0.082 SA
ATOM     19  C   UNL d   1      33.040  18.439 -24.523  0.00  0.00     0.036 A 
ATOM     20  C   UNL d   1      32.783  17.913 -23.924  0.00  0.00     0.008 A 
ATOM     21  C   UNL d   1      32.829  18.312 -23.211  0.00  0.00     0.012 A 
ENDBRANCH   4  17
TORSDOF 2
ENDMDL
MODEL 2
REMARK VINA RESULT:      -2.8      1.024      1.354
REMARK  2 active torsions:
REMARK  status: ('A' for Active; 'I' for Inactive)
REMARK       I    between atoms: C_3  and  N_1 
REMARK       I    between atoms: C_4  and  N_2 
REMARK    1  A    between atoms: C_5  and  C_3 
REMARK    2  A    between atoms: C_6  and  C_4 
ROOT
ATOM      1  N   UNL d   1      33.124  21.080 -21.105  0.00  0.00    -0.270 N 
ATOM      2  N   UNL d   1      33.144  20.089 -22.424  0.00  0.00    -0.269 N 
ATOM      3  C   UNL d   1      33.115  21.566 -20.450  0.00  0.00     0.271 C 
ATOM      4  C   UNL d   1      33.154  19.592 -23.070  0.00  0.00     0.271 C 
ATOM      5  C   UNL d   1      33.134  21.408 -21.869  0.00  0.00     0.085 A 
ATOM      6  C   UNL d   1      33.143  20.910 -22.513  0.00  0.00     0.101 A 
ATOM      7  C   UNL d   1      33.125  20.261 -20.990  0.00  0.00     0.102 A 
ATOM      8  C   UNL d   1      33.135  19.762 -21.661  0.00  0.00     0.102 A 
ATOM      9  O   UNL d   1      33.106  21.232 -19.682  0.00  0.00    -0.266 OA
ATOM     10  O   UNL d   1      33.163  19.913 -23.819  0.00  0.00    -0.266 OA
ATOM     11  C   UNL d   1      33.133  22.228 -21.958  0.00  0.00     0.021 C 
ENDROOT
BRANCH   3  12
ATOM     12  C   UNL d   1      33.114  22.384 -20.529  0.00  0.00     0.086 A 
ATOM     13  S   UNL d   1      33.116  23.126 -20.897  0.00  0.00    -0.082 SA
ATOM     14  C   UNL d   1      33.109  23.700 -20.309  0.00  0.00     0.036 A 
ATOM     15  C   UNL d   1      33.102  23.313 -19.574  0.00  0.00     0.008 A 
ATOM     16  C   UNL d   1      33.105  22.495 -19.716  0.00  0.00     0.012 A 
ENDBRANCH   3  12
BRANCH   4  17
ATOM     17  C   UNL d   1      33.157  18.774 -23.175  0.00  0.00     0.086 A 
ATOM     18  S   UNL d   1      33.238  18.015 -22.864  0.00  0.00    -0.082 SA
ATOM     19  C   UNL d   1      33.135  17.477 -23.487  0.00  0.00     0.036 A 
ATOM     20  C   UNL d   1      32.991  17.923 -24.181  0.00  0.00     0.008 A 
ATOM     21  C   UNL d   1      33.009  18.714 -23.971  0.00  0.00     0.012 A 
ENDBRANCH   4  17
TORSDOF 2
ENDMDL
MODEL 3
REMARK VINA RESULT:      -2.7      1.145      4.578
REMARK  2 active torsions:
REMARK  status: ('A' for Active; 'I' for Inactive)
REMARK       I    between atoms: C_3  and  N_1 
REMARK       I    between atoms: C_4  and  N_2 
REMARK    1  A    between atoms: C_5  and  C_3 
REMARK    2  A    between atoms: C_6  and  C_4 
ROOT
ATOM      1  N   UNL d   1      33.227  19.520 -23.260  0.00  0.00    -0.270 N 
ATOM      2  N   UNL d   1      33.224  20.431 -21.884  0.00  0.00    -0.269 N 
ATOM      3  C   UNL d   1      33.229  19.073 -23.941  0.00  0.00     0.271 C 
ATOM      4  C   UNL d   1      33.222  20.890 -21.210  0.00  0.00     0.271 C 
ATOM      5  C   UNL d   1      33.216  19.148 -22.516  0.00  0.00     0.085 A 
ATOM      6  C   UNL d   1      33.214  19.607 -21.844  0.00  0.00     0.101 A 
ATOM      7  C   UNL d   1      33.237  20.344 -23.327  0.00  0.00     0.102 A 
ATOM      8  C   UNL d   1      33.236  20.803 -22.627  0.00  0.00     0.102 A 
ATOM      9  O   UNL d   1      33.241  19.451 -24.689  0.00  0.00    -0.266 OA
ATOM     10  O   UNL d   1      33.211  20.526 -20.481  0.00  0.00    -0.266 OA
ATOM     11  C   UNL d   1      33.206  18.323 -22.476  0.00  0.00     0.021 C 
ENDROOT
BRANCH   3  12
ATOM     12  C   UNL d   1      33.220  18.252 -23.911  0.00  0.00     0.086 A 
ATOM     13  S   UNL d   1      33.221  17.489 -23.587  0.00  0.00    -0.082 SA
ATOM     14  C   UNL d   1      33.192  16.951 -24.208  0.00  0.00     0.036 A 
ATOM     15  C   UNL d   1      33.172  17.381 -24.919  0.00  0.00     0.008 A 
ATOM     16  C   UNL d   1      33.190  18.189 -24.729  0.00  0.00     0.012 A 
ENDBRANCH   3  12
BRANCH   4  17
ATOM     17  C   UNL d   1      33.230  21.700 -21.057  0.00  0.00     0.086 A 
ATOM     18  S   UNL d   1      33.240  22.478 -21.330  0.00  0.00    -0.082 SA
ATOM     19  C   UNL d   1      33.241  22.976 -20.667  0.00  0.00     0.036 A 
ATOM     20  C   UNL d   1      33.231  22.487 -19.988  0.00  0.00     0.008 A 
ATOM     21  C   UNL d   1      33.224  21.710 -20.245  0.00  0.00     0.012 A 
ENDBRANCH   4  17
TORSDOF 2
ENDMDL
MODEL 4
REMARK VINA RESULT:      -2.5      0.412      4.612
REMARK  2 active torsions:
REMARK  status: ('A' for Active; 'I' for Inactive)
REMARK       I    between atoms: C_3  and  N_1 
REMARK       I    between atoms: C_4  and  N_2 
REMARK    1  A    between atoms: C_5  and  C_3 
REMARK    2  A    between atoms: C_6  and  C_4 
ROOT
ATOM      1  N   UNL d   1      33.052  20.046 -22.339  0.00  0.00    -0.270 N 
ATOM      2  N   UNL d   1      33.063  21.589 -21.757  0.00  0.00    -0.269 N 
ATOM      3  C   UNL d   1      33.046  19.282 -22.623  0.00  0.00     0.271 C 
ATOM      4  C   UNL d   1      33.067  22.349 -21.459  0.00  0.00     0.271 C 
ATOM      5  C   UNL d   1      33.128  20.686 -22.864  0.00  0.00     0.085 A 
ATOM      6  C   UNL d   1      33.132  21.444 -22.566  0.00  0.00     0.101 A 
ATOM      7  C   UNL d   1      32.981  20.166 -21.524  0.00  0.00     0.102 A 
ATOM      8  C   UNL d   1      32.987  20.949 -21.233  0.00  0.00     0.102 A 
ATOM      9  O   UNL d   1      32.969  18.639 -22.092  0.00  0.00    -0.266 OA
ATOM     10  O   UNL d   1      33.142  22.976 -21.973  0.00  0.00    -0.266 OA
ATOM     11  C   UNL d   1      33.197  20.541 -23.674  0.00  0.00     0.021 C 
ENDROOT
BRANCH   3  12
ATOM     12  C   UNL d   1      33.114  19.127 -23.428  0.00  0.00     0.086 A 
ATOM     13  S   UNL d   1      33.163  19.271 -24.242  0.00  0.00    -0.082 SA
ATOM     14  C   UNL d   1      33.240  18.547 -24.623  0.00  0.00     0.036 A 
ATOM     15  C   UNL d   1      33.239  17.952 -24.043  0.00  0.00     0.008 A 
ATOM     16  C   UNL d   1      33.160  18.317 -23.302  0.00  0.00     0.012 A 
ENDBRANCH   3  12
BRANCH   4  17
ATOM     17  C   UNL d   1      33.011  22.679 -20.706  0.00  0.00     0.086 A 
ATOM     18  S   UNL d   1      33.241  22.695 -19.915  0.00  0.00    -0.082 SA
ATOM     19  C   UNL d   1      32.821  23.307 -19.544  0.00  0.00     0.036 A 
ATOM     20  C   UNL d   1      32.334  23.662 -20.124  0.00  0.00     0.008 A 
ATOM     21  C   UNL d   1      32.463  23.266 -20.828  0.00  0.00     0.012 A 
ENDBRANCH   4  17
TORSDOF 2
ENDMDL
MODEL 5
REMARK VINA RESULT:      -2.3      1.432      2.274
REMARK  2 active torsions:
REMARK  status: ('A' for Active; 'I' for Inactive)
REMARK       I    between atoms: C_3  and  N_1 
REMARK       I    between atoms: C_4  and  N_2 
REMARK    1  A    between atoms: C_5  and  C_3 
REMARK    2  A    between atoms: C_6  and  C_4 
ROOT
ATOM      1  N   UNL d   1      33.117  19.891 -22.234  0.00  0.00    -0.270 N 
ATOM      2  N   UNL d   1      33.154  18.699 -23.375  0.00  0.00    -0.269 N 
ATOM      3  C   UNL d   1      33.099  20.477 -21.668  0.00  0.00     0.271 C 
ATOM      4  C   UNL d   1      33.171  18.103 -23.931  0.00  0.00     0.271 C 
ATOM      5  C   UNL d   1      33.189  20.089 -23.039  0.00  0.00     0.085 A 
ATOM      6  C   UNL d   1      33.206  19.493 -23.594  0.00  0.00     0.101 A 
ATOM      7  C   UNL d   1      33.064  19.103 -21.990  0.00  0.00     0.102 A 
ATOM      8  C   UNL d   1      33.083  18.502 -22.571  0.00  0.00     0.102 A 
ATOM      9  O   UNL d   1      33.027  20.274 -20.859  0.00  0.00    -0.266 OA
ATOM     10  O   UNL d   1      33.241  18.297 -24.719  0.00  0.00    -0.266 OA
ATOM     11  C   UNL d   1      33.240  20.883 -23.258  0.00  0.00     0.021 C 
ENDROOT
BRANCH   3  12
ATOM     12  C   UNL d   1      33.150  21.271 -21.877  0.00  0.00     0.086 A 
ATOM     13  S   UNL d   1      33.239  21.941 -22.355  0.00  0.00    -0.082 SA
ATOM     14  C   UNL d   1      33.182  22.604 -21.874  0.00  0.00     0.036 A 
ATOM     15  C   UNL d   1      33.057  22.345 -21.094  0.00  0.00     0.008 A 
ATOM     16  C   UNL d   1      33.038  21.515 -21.101  0.00  0.00     0.012 A 
ENDBRANCH   3  12
BRANCH   4  17
ATOM     17  C   UNL d   1      33.133  17.280 -23.903  0.00  0.00     0.086 A 
ATOM     18  S   UNL d   1      33.097  16.581 -23.467  0.00  0.00    -0.082 SA
ATOM     19  C   UNL d   1      33.072  15.951 -24.006  0.00  0.00     0.036 A 
ATOM     20  C   UNL d   1      33.094  16.279 -24.775  0.00  0.00     0.008 A 
ATOM     21  C   UNL d   1      33.130  17.093 -24.693  0.00  0.00     0.012 A 
ENDBRANCH   4  17
TORSDOF 2
ENDMDL
