MODEL 1
REMARK VINA RESULT:      67.3      0.000      0.000
REMARK  6 active torsions:
REMARK  status: ('A' for Active; 'I' for Inactive)
REMARK    1  A    between atoms: C_9  and  N_1 
REMARK    2  A    between atoms: S_10  and  C_6 
REMARK    3  A    between atoms: C_16  and  C_9 
REMARK    4  A    between atoms: C_15  and  S_10 
REMARK    5  A    between atoms: C_12  and  C_15 
REMARK       I    between atoms: N_13  and  C_12 
REMARK    6  A    between atoms: C_19  and  N_13 
ROOT
ATOM      1  N   UNL d   1     -47.746  30.335  35.260  0.00  0.00    -0.192 N 
ATOM      2  N   UNL d   1     -48.565  30.366  35.289  0.00  0.00    -0.058 NA
ATOM      3  C   UNL d   1     -47.530  29.548  35.140  0.00  0.00     0.189 A 
ATOM      4  C   UNL d   1     -48.227  29.103  35.096  0.00  0.00     0.164 A 
ATOM      5  N   UNL d   1     -48.861  29.622  35.189  0.00  0.00    -0.125 NA
ATOM      6  C   UNL d   1     -48.196  28.296  34.978  0.00  0.00     0.135 A 
ATOM      7  N   UNL d   1     -46.802  29.186  35.067  0.00  0.00    -0.203 NA
ATOM      8  N   UNL d   1     -47.458  27.919  34.902  0.00  0.00    -0.216 NA
ATOM      9  C   UNL d   1     -46.761  28.364  34.946  0.00  0.00     0.201 A 
ENDROOT
BRANCH   6  10
ATOM     10  S   UNL d   1     -48.892  27.851  34.933  0.00  0.00    -0.061 SA
BRANCH  10  11
ATOM     11  C   UNL d   1     -49.206  27.645  34.208  0.00  0.00     0.099 C 
BRANCH  11  12
ATOM     12  C   UNL d   1     -49.843  27.116  34.170  0.00  0.00     0.286 C 
ATOM     13  N   UNL d   1     -50.121  26.867  33.427  0.00  0.00    -0.208 NA
ATOM     14  O   UNL d   1     -50.201  26.836  34.857  0.00  0.00    -0.265 OA
BRANCH  13  15
ATOM     15  C   UNL d   1     -50.757  26.338  33.380  0.00  0.00     0.085 A 
ATOM     16  C   UNL d   1     -50.792  25.502  33.349  0.00  0.00     0.019 A 
ATOM     17  C   UNL d   1     -51.580  25.299  33.306  0.00  0.00     0.002 A 
ATOM     18  C   UNL d   1     -52.012  25.974  33.310  0.00  0.00     0.002 A 
ATOM     19  C   UNL d   1     -51.530  26.622  33.355  0.00  0.00     0.019 A 
ENDBRANCH  13  15
ENDBRANCH  11  12
ENDBRANCH  10  11
ENDBRANCH   6  10
BRANCH   1  20
ATOM     20  C   UNL d   1     -47.224  30.989  35.340  0.00  0.00     0.104 C 
BRANCH  20  21
ATOM     21  C   UNL d   1     -47.305  31.658  34.844  0.00  0.00     0.019 A 
ATOM     22  C   UNL d   1     -47.065  31.617  34.053  0.00  0.00     0.004 A 
ATOM     23  C   UNL d   1     -47.142  32.268  33.564  0.00  0.00     0.030 A 
ATOM     24  C   UNL d   1     -47.462  32.972  33.864  0.00  0.00     0.140 A 
ATOM     25  C   UNL d   1     -47.706  33.019  34.660  0.00  0.00     0.030 A 
ATOM     26  F   UNL d   1     -47.537  33.635  33.352  0.00  0.00    -0.204 F 
ATOM     27  C   UNL d   1     -47.622  32.362  35.133  0.00  0.00     0.004 A 
ENDBRANCH  20  21
ENDBRANCH   1  20
TORSDOF 6
ENDMDL
