MODEL 1
REMARK VINA RESULT:      75.7      0.000      0.000
REMARK  4 active torsions:
REMARK  status: ('A' for Active; 'I' for Inactive)
REMARK    1  A    between atoms: N_10  and  C_3 
REMARK    2  A    between atoms: C_13  and  C_5 
REMARK    3  A    between atoms: C_19  and  C_9 
REMARK    4  A    between atoms: C_12  and  N_11 
ROOT
ATOM      1  N   UNL d   1      14.273  14.334  -2.667  0.00  0.00    -0.196 N 
ATOM      2  C   UNL d   1      14.292  13.677  -2.186  0.00  0.00     0.167 A 
ATOM      3  C   UNL d   1      13.995  14.261  -3.414  0.00  0.00     0.152 A 
ATOM      4  N   UNL d   1      14.809  15.104  -1.636  0.00  0.00    -0.163 NA
ATOM      5  C   UNL d   1      14.565  13.738  -1.446  0.00  0.00     0.055 A 
ATOM      6  N   UNL d   1      14.032  12.973  -2.471  0.00  0.00    -0.227 NA
ATOM      7  C   UNL d   1      13.729  13.531  -3.699  0.00  0.00     0.057 A 
ATOM      8  C   UNL d   1      14.828  14.447  -1.155  0.00  0.00     0.104 A 
ATOM      9  C   UNL d   1      13.757  12.909  -3.215  0.00  0.00     0.086 A 
ATOM     10  C   UNL d   1      15.100  14.506  -0.418  0.00  0.00     0.023 C 
ENDROOT
BRANCH   3  11
ATOM     11  N   UNL d   1      13.973  14.933  -3.910  0.00  0.00    -0.286 N 
ATOM     12  C   UNL d   1      14.600  15.475  -3.900  0.00  0.00     0.101 A 
ATOM     13  C   UNL d   1      14.580  16.150  -4.397  0.00  0.00     0.101 A 
ATOM     14  N   UNL d   1      13.931  16.276  -4.902  0.00  0.00    -0.286 N 
ATOM     15  C   UNL d   1      13.301  15.732  -4.913  0.00  0.00     0.101 A 
ATOM     16  C   UNL d   1      13.318  15.059  -4.419  0.00  0.00     0.101 A 
BRANCH  14  17
ATOM     17  C   UNL d   1      13.911  16.947  -5.397  0.00  0.00     0.148 A 
ATOM     18  N   UNL d   1      13.248  17.077  -5.893  0.00  0.00    -0.227 NA
ATOM     19  C   UNL d   1      13.231  17.747  -6.385  0.00  0.00     0.101 A 
ATOM     20  C   UNL d   1      13.868  18.290  -6.388  0.00  0.00     0.021 A 
ATOM     21  C   UNL d   1      14.522  18.157  -5.895  0.00  0.00     0.005 A 
ATOM     22  C   UNL d   1      14.544  17.483  -5.397  0.00  0.00     0.037 A 
ENDBRANCH  14  17
ENDBRANCH   3  11
BRANCH   9  23
ATOM     23  C   UNL d   1      13.486  12.166  -3.509  0.00  0.00     0.018 C 
ATOM     24  C   UNL d   1      12.834  11.779  -3.144  0.00  0.00     0.002 C 
ATOM     25  C   UNL d   1      13.877  11.814  -4.173  0.00  0.00     0.002 C 
ENDBRANCH   9  23
BRANCH   5  26
ATOM     26  C   UNL d   1      14.585  13.075  -0.961  0.00  0.00     0.004 A 
ATOM     27  C   UNL d   1      15.230  12.606  -0.952  0.00  0.00     0.000 A 
ATOM     28  C   UNL d   1      15.256  11.962  -0.485  0.00  0.00     0.000 A 
ATOM     29  C   UNL d   1      14.622  11.782  -0.015  0.00  0.00     0.000 A 
ATOM     30  C   UNL d   1      13.974  12.248  -0.020  0.00  0.00     0.000 A 
ATOM     31  C   UNL d   1      13.954  12.901  -0.498  0.00  0.00     0.000 A 
ENDBRANCH   5  26
TORSDOF 4
ENDMDL
