MODEL 1
REMARK VINA RESULT:      -7.3      0.000      0.000
REMARK  6 active torsions:
REMARK  status: ('A' for Active; 'I' for Inactive)
REMARK    1  A    between atoms: N_3  and  S_1 
REMARK    2  A    between atoms: C_5  and  S_1 
REMARK    3  A    between atoms: S_2  and  N_4 
REMARK    4  A    between atoms: C_6  and  S_2 
REMARK    5  A    between atoms: O_25  and  C_15 
REMARK    6  A    between atoms: O_26  and  C_16 
ROOT
ATOM      1  N   UNL d   1     -47.969  13.636  22.556  0.00  0.00    -0.228 N 
ATOM      2  N   UNL d   1     -46.423  13.072  22.417  0.00  0.00    -0.226 N 
ATOM      3  C   UNL d   1     -47.325  14.157  22.619  0.00  0.00     0.093 A 
ATOM      4  C   UNL d   1     -46.560  13.879  22.550  0.00  0.00     0.110 A 
ATOM      5  C   UNL d   1     -47.835  12.835  22.423  0.00  0.00     0.111 A 
ATOM      6  C   UNL d   1     -47.058  12.549  22.353  0.00  0.00     0.111 A 
ATOM      7  C   UNL d   1     -47.461  14.964  22.752  0.00  0.00     0.021 C 
ENDROOT
BRANCH   1   8
ATOM      8  S   UNL d   1     -48.732  13.923  22.625  0.00  0.00     0.273 S 
ATOM      9  O   UNL d   1     -49.092  13.974  23.360  0.00  0.00    -0.200 OA
ATOM     10  O   UNL d   1     -49.146  14.162  21.948  0.00  0.00    -0.200 OA
BRANCH   8  11
ATOM     11  C   UNL d   1     -49.502  14.214  22.670  0.00  0.00     0.126 A 
ATOM     12  C   UNL d   1     -50.096  13.864  22.215  0.00  0.00     0.106 A 
ATOM     13  C   UNL d   1     -50.863  14.144  22.250  0.00  0.00     0.025 A 
ATOM     14  C   UNL d   1     -51.055  14.792  22.749  0.00  0.00     0.002 A 
ATOM     15  C   UNL d   1     -50.457  15.141  23.204  0.00  0.00     0.001 A 
ATOM     16  C   UNL d   1     -49.685  14.852  23.163  0.00  0.00     0.015 A 
ATOM     17  C   UNL d   1     -50.634  15.772  23.694  0.00  0.00     0.000 C 
BRANCH  12  18
ATOM     18  O   UNL d   1     -49.919  13.232  21.725  0.00  0.00    -0.327 OA
ATOM     19  C   UNL d   1     -50.427  13.047  21.100  0.00  0.00     0.181 C 
ENDBRANCH  12  18
ENDBRANCH   8  11
ENDBRANCH   1   8
BRANCH   2  20
ATOM     20  S   UNL d   1     -45.650  12.792  22.348  0.00  0.00     0.273 S 
ATOM     21  O   UNL d   1     -45.243  12.532  23.018  0.00  0.00    -0.200 OA
ATOM     22  O   UNL d   1     -45.282  12.771  21.612  0.00  0.00    -0.200 OA
BRANCH  20  23
ATOM     23  C   UNL d   1     -44.877  12.508  22.307  0.00  0.00     0.126 A 
ATOM     24  C   UNL d   1     -44.657  11.858  22.764  0.00  0.00     0.106 A 
ATOM     25  C   UNL d   1     -43.890  11.579  22.721  0.00  0.00     0.025 A 
ATOM     26  C   UNL d   1     -43.341  11.942  22.227  0.00  0.00     0.002 A 
ATOM     27  C   UNL d   1     -43.567  12.592  21.772  0.00  0.00     0.001 A 
ATOM     28  C   UNL d   1     -44.341  12.873  21.815  0.00  0.00     0.015 A 
ATOM     29  C   UNL d   1     -43.020  12.963  21.272  0.00  0.00     0.000 C 
BRANCH  24  30
ATOM     30  O   UNL d   1     -45.200  11.495  23.256  0.00  0.00    -0.327 OA
ATOM     31  C   UNL d   1     -45.015  10.785  23.624  0.00  0.00     0.181 C 
ENDBRANCH  24  30
ENDBRANCH  20  23
ENDBRANCH   2  20
TORSDOF 6
ENDMDL
MODEL 2
REMARK VINA RESULT:      -7.3      0.634      5.433
REMARK  6 active torsions:
REMARK  status: ('A' for Active; 'I' for Inactive)
REMARK    1  A    between atoms: N_3  and  S_1 
REMARK    2  A    between atoms: C_5  and  S_1 
REMARK    3  A    between atoms: S_2  and  N_4 
REMARK    4  A    between atoms: C_6  and  S_2 
REMARK    5  A    between atoms: O_25  and  C_15 
REMARK    6  A    between atoms: O_26  and  C_16 
ROOT
ATOM      1  N   UNL d   1     -46.438  13.068  22.564  0.00  0.00    -0.228 N 
ATOM      2  N   UNL d   1     -47.985  13.579  22.831  0.00  0.00    -0.226 N 
ATOM      3  C   UNL d   1     -46.582  13.820  22.885  0.00  0.00     0.093 A 
ATOM      4  C   UNL d   1     -47.348  14.074  23.018  0.00  0.00     0.110 A 
ATOM      5  C   UNL d   1     -47.071  12.575  22.377  0.00  0.00     0.111 A 
ATOM      6  C   UNL d   1     -47.850  12.830  22.510  0.00  0.00     0.111 A 
ATOM      7  C   UNL d   1     -45.944  14.315  23.073  0.00  0.00     0.021 C 
ENDROOT
BRANCH   1   8
ATOM      8  S   UNL d   1     -45.669  12.822  22.434  0.00  0.00     0.273 S 
ATOM      9  O   UNL d   1     -45.171  13.252  21.946  0.00  0.00    -0.200 OA
ATOM     10  O   UNL d   1     -45.391  12.131  22.799  0.00  0.00    -0.200 OA
BRANCH   8  11
ATOM     11  C   UNL d   1     -44.899  12.552  22.319  0.00  0.00     0.126 A 
ATOM     12  C   UNL d   1     -44.625  11.906  22.754  0.00  0.00     0.106 A 
ATOM     13  C   UNL d   1     -43.863  11.630  22.649  0.00  0.00     0.025 A 
ATOM     14  C   UNL d   1     -43.349  12.001  22.098  0.00  0.00     0.002 A 
ATOM     15  C   UNL d   1     -43.627  12.649  21.663  0.00  0.00     0.001 A 
ATOM     16  C   UNL d   1     -44.398  12.922  21.775  0.00  0.00     0.015 A 
ATOM     17  C   UNL d   1     -43.135  13.018  21.123  0.00  0.00     0.000 C 
BRANCH  12  18
ATOM     18  O   UNL d   1     -45.117  11.536  23.295  0.00  0.00    -0.327 OA
ATOM     19  C   UNL d   1     -44.913  10.792  23.588  0.00  0.00     0.181 C 
ENDBRANCH  12  18
ENDBRANCH   8  11
ENDBRANCH   1   8
BRANCH   2  20
ATOM     20  S   UNL d   1     -48.758  13.836  22.965  0.00  0.00     0.273 S 
ATOM     21  O   UNL d   1     -49.156  13.609  23.652  0.00  0.00    -0.200 OA
ATOM     22  O   UNL d   1     -49.135  14.319  22.415  0.00  0.00    -0.200 OA
BRANCH  20  23
ATOM     23  C   UNL d   1     -49.531  14.078  23.124  0.00  0.00     0.126 A 
ATOM     24  C   UNL d   1     -50.132  13.517  23.175  0.00  0.00     0.106 A 
ATOM     25  C   UNL d   1     -50.896  13.761  23.333  0.00  0.00     0.025 A 
ATOM     26  C   UNL d   1     -51.064  14.559  23.440  0.00  0.00     0.002 A 
ATOM     27  C   UNL d   1     -50.459  15.116  23.388  0.00  0.00     0.001 A 
ATOM     28  C   UNL d   1     -49.688  14.870  23.228  0.00  0.00     0.015 A 
ATOM     29  C   UNL d   1     -50.621  15.922  23.494  0.00  0.00     0.000 C 
BRANCH  24  30
ATOM     30  O   UNL d   1     -49.967  12.723  23.069  0.00  0.00    -0.327 OA
ATOM     31  C   UNL d   1     -50.575  12.171  23.064  0.00  0.00     0.181 C 
ENDBRANCH  24  30
ENDBRANCH  20  23
ENDBRANCH   2  20
TORSDOF 6
ENDMDL
MODEL 3
REMARK VINA RESULT:      -7.1      0.590      1.339
REMARK  6 active torsions:
REMARK  status: ('A' for Active; 'I' for Inactive)
REMARK    1  A    between atoms: N_3  and  S_1 
REMARK    2  A    between atoms: C_5  and  S_1 
REMARK    3  A    between atoms: S_2  and  N_4 
REMARK    4  A    between atoms: C_6  and  S_2 
REMARK    5  A    between atoms: O_25  and  C_15 
REMARK    6  A    between atoms: O_26  and  C_16 
ROOT
ATOM      1  N   UNL d   1     -47.768  13.356  22.753  0.00  0.00    -0.228 N 
ATOM      2  N   UNL d   1     -46.337  12.536  22.812  0.00  0.00    -0.226 N 
ATOM      3  C   UNL d   1     -47.053  13.767  22.844  0.00  0.00     0.093 A 
ATOM      4  C   UNL d   1     -46.343  13.362  22.873  0.00  0.00     0.110 A 
ATOM      5  C   UNL d   1     -47.763  12.535  22.692  0.00  0.00     0.111 A 
ATOM      6  C   UNL d   1     -47.044  12.121  22.722  0.00  0.00     0.111 A 
ATOM      7  C   UNL d   1     -47.059  14.594  22.905  0.00  0.00     0.021 C 
ENDROOT
BRANCH   1   8
ATOM      8  S   UNL d   1     -48.474  13.769  22.724  0.00  0.00     0.273 S 
ATOM      9  O   UNL d   1     -48.961  13.806  23.382  0.00  0.00    -0.200 OA
ATOM     10  O   UNL d   1     -48.698  14.153  22.024  0.00  0.00    -0.200 OA
BRANCH   8  11
ATOM     11  C   UNL d   1     -49.179  14.191  22.670  0.00  0.00     0.126 A 
ATOM     12  C   UNL d   1     -49.756  13.951  22.129  0.00  0.00     0.106 A 
ATOM     13  C   UNL d   1     -50.460  14.362  22.066  0.00  0.00     0.025 A 
ATOM     14  C   UNL d   1     -50.605  15.032  22.552  0.00  0.00     0.002 A 
ATOM     15  C   UNL d   1     -50.025  15.270  23.093  0.00  0.00     0.001 A 
ATOM     16  C   UNL d   1     -49.317  14.850  23.150  0.00  0.00     0.015 A 
ATOM     17  C   UNL d   1     -50.156  15.922  23.571  0.00  0.00     0.000 C 
BRANCH  12  18
ATOM     18  O   UNL d   1     -49.625  13.299  21.651  0.00  0.00    -0.327 OA
ATOM     19  C   UNL d   1     -50.222  13.042  21.142  0.00  0.00     0.181 C 
ENDBRANCH  12  18
ENDBRANCH   8  11
ENDBRANCH   1   8
BRANCH   2  20
ATOM     20  S   UNL d   1     -45.620  12.127  22.842  0.00  0.00     0.273 S 
ATOM     21  O   UNL d   1     -44.983  12.375  22.378  0.00  0.00    -0.200 OA
ATOM     22  O   UNL d   1     -45.538  11.472  23.334  0.00  0.00    -0.200 OA
BRANCH  20  23
ATOM     23  C   UNL d   1     -44.893  11.737  22.853  0.00  0.00     0.126 A 
ATOM     24  C   UNL d   1     -44.252  12.059  22.446  0.00  0.00     0.106 A 
ATOM     25  C   UNL d   1     -43.533  11.670  22.459  0.00  0.00     0.025 A 
ATOM     26  C   UNL d   1     -43.449  10.964  22.874  0.00  0.00     0.002 A 
ATOM     27  C   UNL d   1     -44.093  10.647  23.278  0.00  0.00     0.001 A 
ATOM     28  C   UNL d   1     -44.819  11.040  23.266  0.00  0.00     0.015 A 
ATOM     29  C   UNL d   1     -44.016   9.936  23.698  0.00  0.00     0.000 C 
BRANCH  24  30
ATOM     30  O   UNL d   1     -44.333  12.760  22.034  0.00  0.00    -0.327 OA
ATOM     31  C   UNL d   1     -43.802  12.953  21.439  0.00  0.00     0.181 C 
ENDBRANCH  24  30
ENDBRANCH  20  23
ENDBRANCH   2  20
TORSDOF 6
ENDMDL
MODEL 4
REMARK VINA RESULT:      -4.5      7.679     10.313
REMARK  6 active torsions:
REMARK  status: ('A' for Active; 'I' for Inactive)
REMARK    1  A    between atoms: N_3  and  S_1 
REMARK    2  A    between atoms: C_5  and  S_1 
REMARK    3  A    between atoms: S_2  and  N_4 
REMARK    4  A    between atoms: C_6  and  S_2 
REMARK    5  A    between atoms: O_25  and  C_15 
REMARK    6  A    between atoms: O_26  and  C_16 
ROOT
ATOM      1  N   UNL d   1     -38.590  14.667  18.053  0.00  0.00    -0.228 N 
ATOM      2  N   UNL d   1     -38.906  14.985  19.642  0.00  0.00    -0.226 N 
ATOM      3  C   UNL d   1     -39.372  14.684  18.329  0.00  0.00     0.093 A 
ATOM      4  C   UNL d   1     -39.531  14.841  19.115  0.00  0.00     0.110 A 
ATOM      5  C   UNL d   1     -37.968  14.809  18.574  0.00  0.00     0.111 A 
ATOM      6  C   UNL d   1     -38.126  14.969  19.374  0.00  0.00     0.111 A 
ATOM      7  C   UNL d   1     -39.997  14.541  17.803  0.00  0.00     0.021 C 
ENDROOT
BRANCH   1   8
ATOM      8  S   UNL d   1     -38.440  14.508  17.264  0.00  0.00     0.273 S 
ATOM      9  O   UNL d   1     -38.128  15.088  16.775  0.00  0.00    -0.200 OA
ATOM     10  O   UNL d   1     -38.605  13.756  16.956  0.00  0.00    -0.200 OA
BRANCH   8  11
ATOM     11  C   UNL d   1     -38.298  14.325  16.474  0.00  0.00     0.126 A 
ATOM     12  C   UNL d   1     -38.164  13.539  16.257  0.00  0.00     0.106 A 
ATOM     13  C   UNL d   1     -38.022  13.344  15.476  0.00  0.00     0.025 A 
ATOM     14  C   UNL d   1     -38.011  13.941  14.885  0.00  0.00     0.002 A 
ATOM     15  C   UNL d   1     -38.145  14.728  15.106  0.00  0.00     0.001 A 
ATOM     16  C   UNL d   1     -38.288  14.917  15.896  0.00  0.00     0.015 A 
ATOM     17  C   UNL d   1     -38.137  15.318  14.538  0.00  0.00     0.000 C 
BRANCH  12  18
ATOM     18  O   UNL d   1     -38.173  12.949  16.824  0.00  0.00    -0.327 OA
ATOM     19  C   UNL d   1     -37.940  12.184  16.620  0.00  0.00     0.181 C 
ENDBRANCH  12  18
ENDBRANCH   8  11
ENDBRANCH   1   8
BRANCH   2  20
ATOM     20  S   UNL d   1     -39.067  15.143  20.436  0.00  0.00     0.273 S 
ATOM     21  O   UNL d   1     -39.062  15.922  20.710  0.00  0.00    -0.200 OA
ATOM     22  O   UNL d   1     -39.231  14.527  20.955  0.00  0.00    -0.200 OA
BRANCH  20  23
ATOM     23  C   UNL d   1     -39.223  15.330  21.224  0.00  0.00     0.126 A 
ATOM     24  C   UNL d   1     -39.923  15.720  21.419  0.00  0.00     0.106 A 
ATOM     25  C   UNL d   1     -40.074  15.903  22.201  0.00  0.00     0.025 A 
ATOM     26  C   UNL d   1     -39.535  15.701  22.789  0.00  0.00     0.002 A 
ATOM     27  C   UNL d   1     -38.837  15.312  22.587  0.00  0.00     0.001 A 
ATOM     28  C   UNL d   1     -38.684  15.126  21.798  0.00  0.00     0.015 A 
ATOM     29  C   UNL d   1     -38.288  15.105  23.174  0.00  0.00     0.000 C 
BRANCH  24  30
ATOM     30  O   UNL d   1     -40.461  15.922  20.837  0.00  0.00    -0.327 OA
ATOM     31  C   UNL d   1     -41.265  15.921  21.000  0.00  0.00     0.181 C 
ENDBRANCH  24  30
ENDBRANCH  20  23
ENDBRANCH   2  20
TORSDOF 6
ENDMDL
