MODEL 1
REMARK VINA RESULT:      53.2      0.000      0.000
REMARK  2 active torsions:
REMARK  status: ('A' for Active; 'I' for Inactive)
REMARK    1  A    between atoms: N_9  and  C_3 
REMARK    2  A    between atoms: C_13  and  C_5 
ROOT
ATOM      1  N   UNL d   1      46.245 -17.684  42.659  0.00  0.00    -0.196 N 
ATOM      2  C   UNL d   1      46.143 -17.129  43.286  0.00  0.00     0.167 A 
ATOM      3  C   UNL d   1      46.337 -18.491  42.836  0.00  0.00     0.153 A 
ATOM      4  N   UNL d   1      46.163 -16.625  41.708  0.00  0.00    -0.163 NA
ATOM      5  C   UNL d   1      46.053 -16.342  43.114  0.00  0.00     0.055 A 
ATOM      6  N   UNL d   1      46.135 -17.400  44.066  0.00  0.00    -0.227 NA
ATOM      7  C   UNL d   1      46.327 -18.743  43.611  0.00  0.00     0.052 A 
ATOM      8  C   UNL d   1      46.062 -16.079  42.324  0.00  0.00     0.104 A 
ATOM      9  C   UNL d   1      46.225 -18.194  44.243  0.00  0.00     0.086 A 
ATOM     10  C   UNL d   1      46.402 -19.480  43.951  0.00  0.00     0.005 A 
ATOM     11  C   UNL d   1      45.971 -15.279  42.159  0.00  0.00     0.023 C 
ATOM     12  C   UNL d   1      46.239 -18.607  44.955  0.00  0.00     0.019 A 
ATOM     13  C   UNL d   1      46.350 -19.413  44.768  0.00  0.00     0.002 A 
ENDROOT
BRANCH   5  14
ATOM     14  C   UNL d   1      45.953 -15.799  43.727  0.00  0.00     0.004 A 
ATOM     15  C   UNL d   1      45.234 -15.746  44.122  0.00  0.00     0.000 A 
ATOM     16  C   UNL d   1      45.133 -15.197  44.741  0.00  0.00     0.000 A 
ATOM     17  C   UNL d   1      45.752 -14.712  44.954  0.00  0.00     0.000 A 
ATOM     18  C   UNL d   1      46.478 -14.762  44.558  0.00  0.00     0.000 A 
ATOM     19  C   UNL d   1      46.574 -15.303  43.949  0.00  0.00     0.000 A 
ENDBRANCH   5  14
BRANCH   3  20
ATOM     20  N   UNL d   1      46.440 -19.054  42.206  0.00  0.00    -0.271 N 
ATOM     21  C   UNL d   1      46.427 -18.876  41.377  0.00  0.00     0.184 A 
ATOM     22  N   UNL d   1      46.554 -19.605  40.962  0.00  0.00    -0.222 NA
ATOM     23  C   UNL d   1      46.646 -20.231  41.532  0.00  0.00     0.120 A 
ATOM     24  C   UNL d   1      46.573 -19.877  42.307  0.00  0.00     0.104 A 
ENDBRANCH   3  20
TORSDOF 2
ENDMDL
MODEL 2
REMARK VINA RESULT:      55.7      1.585      3.446
REMARK  2 active torsions:
REMARK  status: ('A' for Active; 'I' for Inactive)
REMARK    1  A    between atoms: N_9  and  C_3 
REMARK    2  A    between atoms: C_13  and  C_5 
ROOT
ATOM      1  N   UNL d   1      45.717 -18.135  41.664  0.00  0.00    -0.196 N 
ATOM      2  C   UNL d   1      45.947 -18.665  42.278  0.00  0.00     0.167 A 
ATOM      3  C   UNL d   1      45.809 -18.362  40.870  0.00  0.00     0.153 A 
ATOM      4  N   UNL d   1      45.314 -17.178  42.641  0.00  0.00    -0.163 NA
ATOM      5  C   UNL d   1      45.859 -18.445  43.053  0.00  0.00     0.055 A 
ATOM      6  N   UNL d   1      46.261 -19.402  42.076  0.00  0.00    -0.227 NA
ATOM      7  C   UNL d   1      46.120 -19.093  40.687  0.00  0.00     0.052 A 
ATOM      8  C   UNL d   1      45.541 -17.700  43.246  0.00  0.00     0.104 A 
ATOM      9  C   UNL d   1      46.353 -19.628  41.294  0.00  0.00     0.086 A 
ATOM     10  C   UNL d   1      46.273 -19.463  39.977  0.00  0.00     0.005 A 
ATOM     11  C   UNL d   1      45.454 -17.484  44.034  0.00  0.00     0.023 C 
ATOM     12  C   UNL d   1      46.643 -20.314  40.944  0.00  0.00     0.019 A 
ATOM     13  C   UNL d   1      46.592 -20.207  40.118  0.00  0.00     0.002 A 
ENDROOT
BRANCH   5  14
ATOM     14  C   UNL d   1      46.084 -18.964  43.654  0.00  0.00     0.004 A 
ATOM     15  C   UNL d   1      46.417 -18.675  44.347  0.00  0.00     0.000 A 
ATOM     16  C   UNL d   1      46.645 -19.199  44.955  0.00  0.00     0.000 A 
ATOM     17  C   UNL d   1      46.535 -20.001  44.856  0.00  0.00     0.000 A 
ATOM     18  C   UNL d   1      46.200 -20.295  44.158  0.00  0.00     0.000 A 
ATOM     19  C   UNL d   1      45.977 -19.776  43.562  0.00  0.00     0.000 A 
ENDBRANCH   5  14
BRANCH   3  20
ATOM     20  N   UNL d   1      45.577 -17.830  40.247  0.00  0.00    -0.271 N 
ATOM     21  C   UNL d   1      44.780 -17.629  40.040  0.00  0.00     0.184 A 
ATOM     22  N   UNL d   1      44.819 -17.084  39.391  0.00  0.00    -0.222 NA
ATOM     23  C   UNL d   1      45.637 -16.947  39.198  0.00  0.00     0.120 A 
ATOM     24  C   UNL d   1      46.103 -17.417  39.738  0.00  0.00     0.104 A 
ENDBRANCH   3  20
TORSDOF 2
ENDMDL
