MODEL 1
REMARK VINA RESULT:      -2.3      0.000      0.000
REMARK  3 active torsions:
REMARK  status: ('A' for Active; 'I' for Inactive)
REMARK    1  A    between atoms: C_2  and  C_1 
REMARK    2  A    between atoms: C_6  and  C_2 
REMARK    3  A    between atoms: C_9  and  C_6 
ROOT
ATOM      1  C   UNL d   1      32.870  20.445 -21.933  0.00  0.00     0.199 C 
ATOM      2  O   UNL d   1      32.574  19.921 -21.366  0.00  0.00    -0.286 OA
ENDROOT
BRANCH   1   3
ATOM      3  C   UNL d   1      32.845  21.256 -21.787  0.00  0.00     0.078 A 
ATOM      4  C   UNL d   1      32.420  21.551 -21.126  0.00  0.00     0.202 A 
ATOM      5  C   UNL d   1      32.401  22.368 -20.988  0.00  0.00     0.084 A 
ATOM      6  O   UNL d   1      32.029  21.024 -20.628  0.00  0.00    -0.286 OA
ATOM      7  C   UNL d   1      32.791  22.892 -21.486  0.00  0.00     0.199 A 
ATOM      8  C   UNL d   1      33.216  22.597 -22.146  0.00  0.00     0.042 A 
ATOM      9  O   UNL d   1      32.770  23.701 -21.346  0.00  0.00    -0.286 OA
ATOM     10  C   UNL d   1      33.241  21.786 -22.293  0.00  0.00     0.010 A 
ENDBRANCH   1   3
BRANCH   1  11
ATOM     11  C   UNL d   1      33.186  20.156 -22.637  0.00  0.00     0.042 C 
BRANCH  11  12
ATOM     12  C   UNL d   1      33.003  19.394 -22.897  0.00  0.00     0.003 A 
ATOM     13  C   UNL d   1      33.241  18.752 -22.449  0.00  0.00     0.001 A 
ATOM     14  C   UNL d   1      33.058  17.991 -22.709  0.00  0.00     0.007 A 
ATOM     15  C   UNL d   1      32.638  17.869 -23.414  0.00  0.00     0.035 A 
ATOM     16  C   UNL d   1      32.403  18.525 -23.858  0.00  0.00     0.007 A 
ATOM     17 BR   UNL d   1      32.457  17.110 -23.670  0.00  0.00    -0.049 Br
ATOM     18  C   UNL d   1      32.585  19.290 -23.601  0.00  0.00     0.001 A 
ENDBRANCH  11  12
ENDBRANCH   1  11
TORSDOF 3
ENDMDL
MODEL 2
REMARK VINA RESULT:      -2.2      2.063      4.192
REMARK  3 active torsions:
REMARK  status: ('A' for Active; 'I' for Inactive)
REMARK    1  A    between atoms: C_2  and  C_1 
REMARK    2  A    between atoms: C_6  and  C_2 
REMARK    3  A    between atoms: C_9  and  C_6 
ROOT
ATOM      1  C   UNL d   1      33.114  20.064 -22.770  0.00  0.00     0.199 C 
ATOM      2  O   UNL d   1      32.975  20.676 -23.308  0.00  0.00    -0.286 OA
ENDROOT
BRANCH   1   3
ATOM      3  C   UNL d   1      33.138  19.285 -23.040  0.00  0.00     0.078 A 
ATOM      4  C   UNL d   1      33.085  19.123 -23.861  0.00  0.00     0.202 A 
ATOM      5  C   UNL d   1      33.110  18.337 -24.121  0.00  0.00     0.084 A 
ATOM      6  O   UNL d   1      33.009  19.748 -24.393  0.00  0.00    -0.286 OA
ATOM      7  C   UNL d   1      33.186  17.716 -23.590  0.00  0.00     0.199 A 
ATOM      8  C   UNL d   1      33.239  17.877 -22.769  0.00  0.00     0.042 A 
ATOM      9  O   UNL d   1      33.210  16.938 -23.853  0.00  0.00    -0.286 OA
ATOM     10  C   UNL d   1      33.215  18.656 -22.499  0.00  0.00     0.010 A 
ENDBRANCH   1   3
BRANCH   1  11
ATOM     11  C   UNL d   1      33.228  20.234 -21.971  0.00  0.00     0.042 C 
BRANCH  11  12
ATOM     12  C   UNL d   1      32.941  20.938 -21.648  0.00  0.00     0.003 A 
ATOM     13  C   UNL d   1      33.240  21.650 -21.916  0.00  0.00     0.001 A 
ATOM     14  C   UNL d   1      32.953  22.353 -21.593  0.00  0.00     0.007 A 
ATOM     15  C   UNL d   1      32.369  22.346 -21.003  0.00  0.00     0.035 A 
ATOM     16  C   UNL d   1      32.075  21.620 -20.741  0.00  0.00     0.007 A 
ATOM     17 BR   UNL d   1      32.086  23.047 -20.683  0.00  0.00    -0.049 Br
ATOM     18  C   UNL d   1      32.360  20.913 -21.062  0.00  0.00     0.001 A 
ENDBRANCH  11  12
ENDBRANCH   1  11
TORSDOF 3
ENDMDL
MODEL 3
REMARK VINA RESULT:      -2.2      2.297      4.631
REMARK  3 active torsions:
REMARK  status: ('A' for Active; 'I' for Inactive)
REMARK    1  A    between atoms: C_2  and  C_1 
REMARK    2  A    between atoms: C_6  and  C_2 
REMARK    3  A    between atoms: C_9  and  C_6 
ROOT
ATOM      1  C   UNL d   1      32.534  18.440 -23.433  0.00  0.00     0.199 C 
ATOM      2  O   UNL d   1      31.822  18.851 -23.337  0.00  0.00    -0.286 OA
ENDROOT
BRANCH   1   3
ATOM      3  C   UNL d   1      32.529  17.700 -23.797  0.00  0.00     0.078 A 
ATOM      4  C   UNL d   1      32.376  17.636 -24.619  0.00  0.00     0.202 A 
ATOM      5  C   UNL d   1      32.373  16.888 -24.974  0.00  0.00     0.084 A 
ATOM      6  O   UNL d   1      32.231  18.319 -25.058  0.00  0.00    -0.286 OA
ATOM      7  C   UNL d   1      32.517  16.209 -24.535  0.00  0.00     0.199 A 
ATOM      8  C   UNL d   1      32.670  16.272 -23.713  0.00  0.00     0.042 A 
ATOM      9  O   UNL d   1      32.513  15.469 -24.891  0.00  0.00    -0.286 OA
ATOM     10  C   UNL d   1      32.675  17.013 -23.350  0.00  0.00     0.010 A 
ENDBRANCH   1   3
BRANCH   1  11
ATOM     11  C   UNL d   1      33.241  18.772 -23.168  0.00  0.00     0.042 C 
BRANCH  11  12
ATOM     12  C   UNL d   1      33.234  19.446 -22.692  0.00  0.00     0.003 A 
ATOM     13  C   UNL d   1      33.221  19.359 -21.878  0.00  0.00     0.001 A 
ATOM     14  C   UNL d   1      33.214  20.033 -21.403  0.00  0.00     0.007 A 
ATOM     15  C   UNL d   1      33.221  20.793 -21.737  0.00  0.00     0.035 A 
ATOM     16  C   UNL d   1      33.234  20.868 -22.559  0.00  0.00     0.007 A 
ATOM     17 BR   UNL d   1      33.214  21.462 -21.261  0.00  0.00    -0.049 Br
ATOM     18  C   UNL d   1      33.241  20.194 -23.040  0.00  0.00     0.001 A 
ENDBRANCH  11  12
ENDBRANCH   1  11
TORSDOF 3
ENDMDL
MODEL 4
REMARK VINA RESULT:      -2.1      3.137      4.801
REMARK  3 active torsions:
REMARK  status: ('A' for Active; 'I' for Inactive)
REMARK    1  A    between atoms: C_2  and  C_1 
REMARK    2  A    between atoms: C_6  and  C_2 
REMARK    3  A    between atoms: C_9  and  C_6 
ROOT
ATOM      1  C   UNL d   1      32.651  22.674 -20.235  0.00  0.00     0.199 C 
ATOM      2  O   UNL d   1      31.978  22.341 -19.889  0.00  0.00    -0.286 OA
ENDROOT
BRANCH   1   3
ATOM      3  C   UNL d   1      32.728  22.670 -21.057  0.00  0.00     0.078 A 
ATOM      4  C   UNL d   1      32.882  21.952 -21.461  0.00  0.00     0.202 A 
ATOM      5  C   UNL d   1      32.957  21.959 -22.286  0.00  0.00     0.084 A 
ATOM      6  O   UNL d   1      32.955  21.252 -21.031  0.00  0.00    -0.286 OA
ATOM      7  C   UNL d   1      32.884  22.657 -22.713  0.00  0.00     0.199 A 
ATOM      8  C   UNL d   1      32.730  23.376 -22.309  0.00  0.00     0.042 A 
ATOM      9  O   UNL d   1      32.959  22.660 -23.531  0.00  0.00    -0.286 OA
ATOM     10  C   UNL d   1      32.653  23.379 -21.487  0.00  0.00     0.010 A 
ENDBRANCH   1   3
BRANCH   1  11
ATOM     11  C   UNL d   1      33.239  23.005 -19.761  0.00  0.00     0.042 C 
BRANCH  11  12
ATOM     12  C   UNL d   1      33.166  23.000 -18.939  0.00  0.00     0.003 A 
ATOM     13  C   UNL d   1      33.021  23.702 -18.547  0.00  0.00     0.001 A 
ATOM     14  C   UNL d   1      32.948  23.696 -17.725  0.00  0.00     0.007 A 
ATOM     15  C   UNL d   1      33.020  22.990 -17.294  0.00  0.00     0.035 A 
ATOM     16  C   UNL d   1      33.167  22.287 -17.702  0.00  0.00     0.007 A 
ATOM     17 BR   UNL d   1      32.948  22.987 -16.476  0.00  0.00    -0.049 Br
ATOM     18  C   UNL d   1      33.241  22.289 -18.526  0.00  0.00     0.001 A 
ENDBRANCH  11  12
ENDBRANCH   1  11
TORSDOF 3
ENDMDL
MODEL 5
REMARK VINA RESULT:      -2.1      1.557      2.601
REMARK  3 active torsions:
REMARK  status: ('A' for Active; 'I' for Inactive)
REMARK    1  A    between atoms: C_2  and  C_1 
REMARK    2  A    between atoms: C_6  and  C_2 
REMARK    3  A    between atoms: C_9  and  C_6 
ROOT
ATOM      1  C   UNL d   1      33.001  18.560 -23.331  0.00  0.00     0.199 C 
ATOM      2  O   UNL d   1      33.238  18.578 -24.123  0.00  0.00    -0.286 OA
ENDROOT
BRANCH   1   3
ATOM      3  C   UNL d   1      33.060  19.244 -22.874  0.00  0.00     0.078 A 
ATOM      4  C   UNL d   1      33.078  19.997 -23.246  0.00  0.00     0.202 A 
ATOM      5  C   UNL d   1      33.138  20.678 -22.777  0.00  0.00     0.084 A 
ATOM      6  O   UNL d   1      33.037  20.044 -24.067  0.00  0.00    -0.286 OA
ATOM      7  C   UNL d   1      33.179  20.629 -21.959  0.00  0.00     0.199 A 
ATOM      8  C   UNL d   1      33.161  19.877 -21.588  0.00  0.00     0.042 A 
ATOM      9  O   UNL d   1      33.238  21.306 -21.499  0.00  0.00    -0.286 OA
ATOM     10  C   UNL d   1      33.102  19.192 -22.045  0.00  0.00     0.010 A 
ENDBRANCH   1   3
BRANCH   1  11
ATOM     11  C   UNL d   1      32.709  17.862 -23.004  0.00  0.00     0.042 C 
BRANCH  11  12
ATOM     12  C   UNL d   1      32.368  17.285 -23.485  0.00  0.00     0.003 A 
ATOM     13  C   UNL d   1      31.575  17.346 -23.680  0.00  0.00     0.001 A 
ATOM     14  C   UNL d   1      31.235  16.769 -24.161  0.00  0.00     0.007 A 
ATOM     15  C   UNL d   1      31.683  16.131 -24.448  0.00  0.00     0.035 A 
ATOM     16  C   UNL d   1      32.481  16.081 -24.243  0.00  0.00     0.007 A 
ATOM     17 BR   UNL d   1      31.341  15.558 -24.926  0.00  0.00    -0.049 Br
ATOM     18  C   UNL d   1      32.827  16.657 -23.761  0.00  0.00     0.001 A 
ENDBRANCH  11  12
ENDBRANCH   1  11
TORSDOF 3
ENDMDL
MODEL 6
REMARK VINA RESULT:      -2.1      3.814      5.061
REMARK  3 active torsions:
REMARK  status: ('A' for Active; 'I' for Inactive)
REMARK    1  A    between atoms: C_2  and  C_1 
REMARK    2  A    between atoms: C_6  and  C_2 
REMARK    3  A    between atoms: C_9  and  C_6 
ROOT
ATOM      1  C   UNL d   1      30.822  16.828 -24.165  0.00  0.00     0.199 C 
ATOM      2  O   UNL d   1      30.915  16.273 -23.558  0.00  0.00    -0.286 OA
ENDROOT
BRANCH   1   3
ATOM      3  C   UNL d   1      31.425  17.370 -24.314  0.00  0.00     0.078 A 
ATOM      4  C   UNL d   1      32.110  17.380 -23.830  0.00  0.00     0.202 A 
ATOM      5  C   UNL d   1      32.710  17.930 -23.988  0.00  0.00     0.084 A 
ATOM      6  O   UNL d   1      32.174  16.843 -23.207  0.00  0.00    -0.286 OA
ATOM      7  C   UNL d   1      32.645  18.463 -24.608  0.00  0.00     0.199 A 
ATOM      8  C   UNL d   1      31.959  18.454 -25.092  0.00  0.00     0.042 A 
ATOM      9  O   UNL d   1      33.241  19.006 -24.762  0.00  0.00    -0.286 OA
ATOM     10  C   UNL d   1      31.356  17.911 -24.943  0.00  0.00     0.010 A 
ENDBRANCH   1   3
BRANCH   1  11
ATOM     11  C   UNL d   1      30.131  16.835 -24.615  0.00  0.00     0.042 C 
BRANCH  11  12
ATOM     12  C   UNL d   1      29.435  16.506 -24.318  0.00  0.00     0.003 A 
ATOM     13  C   UNL d   1      29.184  15.780 -24.601  0.00  0.00     0.001 A 
ATOM     14  C   UNL d   1      28.488  15.453 -24.304  0.00  0.00     0.007 A 
ATOM     15  C   UNL d   1      28.041  15.847 -23.726  0.00  0.00     0.035 A 
ATOM     16  C   UNL d   1      28.305  16.579 -23.448  0.00  0.00     0.007 A 
ATOM     17 BR   UNL d   1      27.349  15.518 -23.432  0.00  0.00    -0.049 Br
ATOM     18  C   UNL d   1      29.003  16.911 -23.744  0.00  0.00     0.001 A 
ENDBRANCH  11  12
ENDBRANCH   1  11
TORSDOF 3
ENDMDL
MODEL 7
REMARK VINA RESULT:      -1.1      2.371      4.304
REMARK  3 active torsions:
REMARK  status: ('A' for Active; 'I' for Inactive)
REMARK    1  A    between atoms: C_2  and  C_1 
REMARK    2  A    between atoms: C_6  and  C_2 
REMARK    3  A    between atoms: C_9  and  C_6 
ROOT
ATOM      1  C   UNL d   1      32.546  21.080 -21.171  0.00  0.00     0.199 C 
ATOM      2  O   UNL d   1      31.792  21.196 -20.852  0.00  0.00    -0.286 OA
ENDROOT
BRANCH   1   3
ATOM      3  C   UNL d   1      32.662  20.487 -21.733  0.00  0.00     0.078 A 
ATOM      4  C   UNL d   1      32.626  20.671 -22.551  0.00  0.00     0.202 A 
ATOM      5  C   UNL d   1      32.744  20.069 -23.107  0.00  0.00     0.084 A 
ATOM      6  O   UNL d   1      32.476  21.447 -22.785  0.00  0.00    -0.286 OA
ATOM      7  C   UNL d   1      32.894  19.297 -22.872  0.00  0.00     0.199 A 
ATOM      8  C   UNL d   1      32.929  19.112 -22.054  0.00  0.00     0.042 A 
ATOM      9  O   UNL d   1      33.010  18.702 -23.426  0.00  0.00    -0.286 OA
ATOM     10  C   UNL d   1      32.814  19.705 -21.492  0.00  0.00     0.010 A 
ENDBRANCH   1   3
BRANCH   1  11
ATOM     11  C   UNL d   1      33.175  21.554 -20.927  0.00  0.00     0.042 C 
BRANCH  11  12
ATOM     12  C   UNL d   1      33.091  22.059 -20.280  0.00  0.00     0.003 A 
ATOM     13  C   UNL d   1      33.211  21.765 -19.526  0.00  0.00     0.001 A 
ATOM     14  C   UNL d   1      33.127  22.270 -18.879  0.00  0.00     0.007 A 
ATOM     15  C   UNL d   1      32.925  23.069 -18.983  0.00  0.00     0.035 A 
ATOM     16  C   UNL d   1      32.807  23.354 -19.749  0.00  0.00     0.007 A 
ATOM     17 BR   UNL d   1      32.843  23.570 -18.338  0.00  0.00    -0.049 Br
ATOM     18  C   UNL d   1      32.890  22.850 -20.400  0.00  0.00     0.001 A 
ENDBRANCH  11  12
ENDBRANCH   1  11
TORSDOF 3
ENDMDL
MODEL 8
REMARK VINA RESULT:      -1.0      4.049      5.516
REMARK  3 active torsions:
REMARK  status: ('A' for Active; 'I' for Inactive)
REMARK    1  A    between atoms: C_2  and  C_1 
REMARK    2  A    between atoms: C_6  and  C_2 
REMARK    3  A    between atoms: C_9  and  C_6 
ROOT
ATOM      1  C   UNL d   1      30.225  16.765 -24.432  0.00  0.00     0.199 C 
ATOM      2  O   UNL d   1      29.738  16.941 -25.077  0.00  0.00    -0.286 OA
ENDROOT
BRANCH   1   3
ATOM      3  C   UNL d   1      30.965  17.124 -24.373  0.00  0.00     0.078 A 
ATOM      4  C   UNL d   1      31.091  17.884 -24.705  0.00  0.00     0.202 A 
ATOM      5  C   UNL d   1      31.839  18.235 -24.641  0.00  0.00     0.084 A 
ATOM      6  O   UNL d   1      30.470  18.266 -25.089  0.00  0.00    -0.286 OA
ATOM      7  C   UNL d   1      32.456  17.853 -24.258  0.00  0.00     0.199 A 
ATOM      8  C   UNL d   1      32.330  17.093 -23.926  0.00  0.00     0.042 A 
ATOM      9  O   UNL d   1      33.195  18.205 -24.196  0.00  0.00    -0.286 OA
ATOM     10  C   UNL d   1      31.590  16.734 -23.985  0.00  0.00     0.010 A 
ENDBRANCH   1   3
BRANCH   1  11
ATOM     11  C   UNL d   1      29.969  16.235 -23.854  0.00  0.00     0.042 C 
BRANCH  11  12
ATOM     12  C   UNL d   1      29.167  16.057 -23.776  0.00  0.00     0.003 A 
ATOM     13  C   UNL d   1      28.793  15.630 -24.365  0.00  0.00     0.001 A 
ATOM     14  C   UNL d   1      27.992  15.453 -24.286  0.00  0.00     0.007 A 
ATOM     15  C   UNL d   1      27.562  15.699 -23.619  0.00  0.00     0.035 A 
ATOM     16  C   UNL d   1      27.951  16.129 -23.031  0.00  0.00     0.007 A 
ATOM     17 BR   UNL d   1      26.765  15.520 -23.543  0.00  0.00    -0.049 Br
ATOM     18  C   UNL d   1      28.755  16.309 -23.107  0.00  0.00     0.001 A 
ENDBRANCH  11  12
ENDBRANCH   1  11
TORSDOF 3
ENDMDL
