MODEL 1
REMARK VINA RESULT:      -2.4      0.000      0.000
REMARK  4 active torsions:
REMARK  status: ('A' for Active; 'I' for Inactive)
REMARK    1  A    between atoms: N_7  and  S_1 
REMARK    2  A    between atoms: C_8  and  S_1 
REMARK    3  A    between atoms: C_17  and  N_2 
REMARK    4  A    between atoms: C_14  and  N_7 
ROOT
ATOM      1  N   UNL d   1      59.312  -3.852  28.603  0.00  0.00    -0.273 N 
ATOM      2  C   UNL d   1      60.398  -3.742  28.610  0.00  0.00     0.265 A 
ATOM      3  C   UNL d   1      59.053  -3.126  28.804  0.00  0.00     0.067 A 
ATOM      4  C   UNL d   1      59.728  -2.638  28.920  0.00  0.00     0.021 A 
ATOM      5  C   UNL d   1      60.485  -2.953  28.819  0.00  0.00     0.058 A 
ATOM      6  C   UNL d   1      58.867  -1.522  29.238  0.00  0.00     0.105 A 
ATOM      7  C   UNL d   1      59.629  -1.844  29.135  0.00  0.00     0.014 A 
ATOM      8  C   UNL d   1      58.321  -2.788  28.910  0.00  0.00     0.018 A 
ATOM      9  C   UNL d   1      58.208  -1.975  29.130  0.00  0.00     0.014 A 
ATOM     10  O   UNL d   1      61.035  -4.230  28.465  0.00  0.00    -0.267 OA
ATOM     11  C   UNL d   1      61.133  -2.485  28.931  0.00  0.00     0.005 A 
ATOM     12  C   UNL d   1      60.277  -1.376  29.247  0.00  0.00     0.001 A 
ATOM     13  C   UNL d   1      61.036  -1.694  29.145  0.00  0.00     0.000 A 
ENDROOT
BRANCH   6  14
ATOM     14  S   UNL d   1      58.744  -0.751  29.447  0.00  0.00     0.287 S 
ATOM     15  O   UNL d   1      58.831  -0.925  30.222  0.00  0.00    -0.198 OA
ATOM     16  O   UNL d   1      58.652  -0.558  28.645  0.00  0.00    -0.198 OA
BRANCH  14  17
ATOM     17  N   UNL d   1      58.613   0.053  29.629  0.00  0.00    -0.139 NA
BRANCH  17  18
ATOM     18  C   UNL d   1      58.220   0.262  30.320  0.00  0.00     0.175 A 
ATOM     19  N   UNL d   1      57.387   0.339  30.330  0.00  0.00    -0.225 NA
ATOM     20  C   UNL d   1      57.003   0.551  31.040  0.00  0.00     0.101 A 
ATOM     21  C   UNL d   1      57.448   0.682  31.722  0.00  0.00     0.021 A 
ATOM     22  C   UNL d   1      58.261   0.609  31.722  0.00  0.00     0.005 A 
ATOM     23  C   UNL d   1      58.649   0.396  31.012  0.00  0.00     0.040 A 
ENDBRANCH  17  18
ENDBRANCH  14  17
ENDBRANCH   6  14
BRANCH   1  24
ATOM     24  C   UNL d   1      58.768  -4.448  28.455  0.00  0.00     0.083 C 
ATOM     25  C   UNL d   1      58.991  -5.247  28.584  0.00  0.00     0.021 C 
ENDBRANCH   1  24
TORSDOF 4
ENDMDL
MODEL 2
REMARK VINA RESULT:      -2.1      1.880      4.907
REMARK  4 active torsions:
REMARK  status: ('A' for Active; 'I' for Inactive)
REMARK    1  A    between atoms: N_7  and  S_1 
REMARK    2  A    between atoms: C_8  and  S_1 
REMARK    3  A    between atoms: C_17  and  N_2 
REMARK    4  A    between atoms: C_14  and  N_7 
ROOT
ATOM      1  N   UNL d   1      56.097  -0.054  33.238  0.00  0.00    -0.273 N 
ATOM      2  C   UNL d   1      56.868   0.288  33.932  0.00  0.00     0.265 A 
ATOM      3  C   UNL d   1      56.473  -0.062  32.537  0.00  0.00     0.067 A 
ATOM      4  C   UNL d   1      57.264   0.191  32.669  0.00  0.00     0.021 A 
ATOM      5  C   UNL d   1      57.510   0.391  33.431  0.00  0.00     0.058 A 
ATOM      6  C   UNL d   1      57.548   0.038  31.260  0.00  0.00     0.105 A 
ATOM      7  C   UNL d   1      57.792   0.239  32.031  0.00  0.00     0.014 A 
ATOM      8  C   UNL d   1      56.260  -0.251  31.776  0.00  0.00     0.018 A 
ATOM      9  C   UNL d   1      56.793  -0.207  31.115  0.00  0.00     0.014 A 
ATOM     10  O   UNL d   1      56.909   0.434  34.733  0.00  0.00    -0.267 OA
ATOM     11  C   UNL d   1      58.269   0.634  33.558  0.00  0.00     0.005 A 
ATOM     12  C   UNL d   1      58.551   0.482  32.158  0.00  0.00     0.001 A 
ATOM     13  C   UNL d   1      58.796   0.682  32.924  0.00  0.00     0.000 A 
ENDROOT
BRANCH   6  14
ATOM     14  S   UNL d   1      58.043   0.076  30.622  0.00  0.00     0.287 S 
ATOM     15  O   UNL d   1      58.561  -0.425  30.967  0.00  0.00    -0.198 OA
ATOM     16  O   UNL d   1      57.512   0.597  30.253  0.00  0.00    -0.198 OA
BRANCH  14  17
ATOM     17  N   UNL d   1      58.531   0.137  29.948  0.00  0.00    -0.139 NA
BRANCH  17  18
ATOM     18  C   UNL d   1      58.771  -0.540  29.548  0.00  0.00     0.175 A 
ATOM     19  N   UNL d   1      58.206  -1.080  29.250  0.00  0.00    -0.225 NA
ATOM     20  C   UNL d   1      58.466  -1.763  28.847  0.00  0.00     0.101 A 
ATOM     21  C   UNL d   1      59.274  -1.898  28.747  0.00  0.00     0.021 A 
ATOM     22  C   UNL d   1      59.832  -1.376  29.035  0.00  0.00     0.005 A 
ATOM     23  C   UNL d   1      59.575  -0.690  29.440  0.00  0.00     0.040 A 
ENDBRANCH  17  18
ENDBRANCH  14  17
ENDBRANCH   6  14
BRANCH   1  24
ATOM     24  C   UNL d   1      55.308  -0.277  33.277  0.00  0.00     0.083 C 
ATOM     25  C   UNL d   1      54.801   0.107  33.823  0.00  0.00     0.021 C 
ENDBRANCH   1  24
TORSDOF 4
ENDMDL
MODEL 3
REMARK VINA RESULT:      -2.0      7.979      8.420
REMARK  4 active torsions:
REMARK  status: ('A' for Active; 'I' for Inactive)
REMARK    1  A    between atoms: N_7  and  S_1 
REMARK    2  A    between atoms: C_8  and  S_1 
REMARK    3  A    between atoms: C_17  and  N_2 
REMARK    4  A    between atoms: C_14  and  N_7 
ROOT
ATOM      1  N   UNL d   1      58.348  -9.673  30.755  0.00  0.00    -0.273 N 
ATOM      2  C   UNL d   1      59.318  -9.730  30.256  0.00  0.00     0.265 A 
ATOM      3  C   UNL d   1      58.542  -9.591  31.523  0.00  0.00     0.067 A 
ATOM      4  C   UNL d   1      59.381  -9.589  31.575  0.00  0.00     0.021 A 
ATOM      5  C   UNL d   1      59.836  -9.664  30.889  0.00  0.00     0.058 A 
ATOM      6  C   UNL d   1      59.293  -9.434  33.009  0.00  0.00     0.105 A 
ATOM      7  C   UNL d   1      59.748  -9.511  32.314  0.00  0.00     0.014 A 
ATOM      8  C   UNL d   1      58.122  -9.515  32.214  0.00  0.00     0.018 A 
ATOM      9  C   UNL d   1      58.486  -9.434  32.978  0.00  0.00     0.014 A 
ATOM     10  O   UNL d   1      59.573  -9.814  29.487  0.00  0.00    -0.267 OA
ATOM     11  C   UNL d   1      60.641  -9.662  30.939  0.00  0.00     0.005 A 
ATOM     12  C   UNL d   1      60.553  -9.509  32.364  0.00  0.00     0.001 A 
ATOM     13  C   UNL d   1      61.007  -9.585  31.675  0.00  0.00     0.000 A 
ENDROOT
BRANCH   6  14
ATOM     14  S   UNL d   1      59.625  -9.357  33.741  0.00  0.00     0.287 S 
ATOM     15  O   UNL d   1      59.061  -9.816  34.070  0.00  0.00    -0.198 OA
ATOM     16  O   UNL d   1      60.218  -8.878  33.411  0.00  0.00    -0.198 OA
BRANCH  14  17
ATOM     17  N   UNL d   1      59.995  -9.256  34.483  0.00  0.00    -0.139 NA
BRANCH  17  18
ATOM     18  C   UNL d   1      59.734  -8.671  34.998  0.00  0.00     0.175 A 
ATOM     19  N   UNL d   1      59.650  -7.881  34.737  0.00  0.00    -0.225 NA
ATOM     20  C   UNL d   1      59.384  -7.298  35.272  0.00  0.00     0.101 A 
ATOM     21  C   UNL d   1      59.207  -7.507  36.050  0.00  0.00     0.021 A 
ATOM     22  C   UNL d   1      59.286  -8.276  36.314  0.00  0.00     0.005 A 
ATOM     23  C   UNL d   1      59.552  -8.862  35.781  0.00  0.00     0.040 A 
ENDBRANCH  17  18
ENDBRANCH  14  17
ENDBRANCH   6  14
BRANCH   1  24
ATOM     24  C   UNL d   1      57.557  -9.693  30.538  0.00  0.00     0.083 C 
ATOM     25  C   UNL d   1      57.356  -9.685  29.723  0.00  0.00     0.021 C 
ENDBRANCH   1  24
TORSDOF 4
ENDMDL
MODEL 4
REMARK VINA RESULT:      -0.9      2.382      5.333
REMARK  4 active torsions:
REMARK  status: ('A' for Active; 'I' for Inactive)
REMARK    1  A    between atoms: N_7  and  S_1 
REMARK    2  A    between atoms: C_8  and  S_1 
REMARK    3  A    between atoms: C_17  and  N_2 
REMARK    4  A    between atoms: C_14  and  N_7 
ROOT
ATOM      1  N   UNL d   1      55.528   0.125  33.476  0.00  0.00    -0.273 N 
ATOM      2  C   UNL d   1      56.156   0.404  34.325  0.00  0.00     0.265 A 
ATOM      3  C   UNL d   1      56.042   0.098  32.869  0.00  0.00     0.067 A 
ATOM      4  C   UNL d   1      56.802   0.294  33.170  0.00  0.00     0.021 A 
ATOM      5  C   UNL d   1      56.895   0.467  33.972  0.00  0.00     0.058 A 
ATOM      6  C   UNL d   1      57.366   0.136  31.849  0.00  0.00     0.105 A 
ATOM      7  C   UNL d   1      57.455   0.311  32.659  0.00  0.00     0.014 A 
ATOM      8  C   UNL d   1      55.982  -0.068  32.075  0.00  0.00     0.018 A 
ATOM      9  C   UNL d   1      56.644  -0.053  31.542  0.00  0.00     0.014 A 
ATOM     10  O   UNL d   1      56.037   0.538  35.120  0.00  0.00    -0.267 OA
ATOM     11  C   UNL d   1      57.624   0.654  34.261  0.00  0.00     0.005 A 
ATOM     12  C   UNL d   1      58.185   0.498  32.948  0.00  0.00     0.001 A 
ATOM     13  C   UNL d   1      58.275   0.672  33.753  0.00  0.00     0.000 A 
ENDROOT
BRANCH   6  14
ATOM     14  S   UNL d   1      57.986   0.146  31.330  0.00  0.00     0.287 S 
ATOM     15  O   UNL d   1      57.618   0.682  30.866  0.00  0.00    -0.198 OA
ATOM     16  O   UNL d   1      58.379  -0.411  31.804  0.00  0.00    -0.198 OA
BRANCH  14  17
ATOM     17  N   UNL d   1      58.643   0.131  30.815  0.00  0.00    -0.139 NA
BRANCH  17  18
ATOM     18  C   UNL d   1      58.553  -0.122  30.038  0.00  0.00     0.175 A 
ATOM     19  N   UNL d   1      58.636  -0.930  29.841  0.00  0.00    -0.225 NA
ATOM     20  C   UNL d   1      58.542  -1.171  29.048  0.00  0.00     0.101 A 
ATOM     21  C   UNL d   1      58.368  -0.610  28.467  0.00  0.00     0.021 A 
ATOM     22  C   UNL d   1      58.284   0.181  28.651  0.00  0.00     0.005 A 
ATOM     23  C   UNL d   1      58.378   0.426  29.445  0.00  0.00     0.040 A 
ENDBRANCH  17  18
ENDBRANCH  14  17
ENDBRANCH   6  14
BRANCH   1  24
ATOM     24  C   UNL d   1      54.736  -0.043  33.343  0.00  0.00     0.083 C 
ATOM     25  C   UNL d   1      54.158   0.538  33.525  0.00  0.00     0.021 C 
ENDBRANCH   1  24
TORSDOF 4
ENDMDL
MODEL 5
REMARK VINA RESULT:      -0.9      1.673      4.480
REMARK  4 active torsions:
REMARK  status: ('A' for Active; 'I' for Inactive)
REMARK    1  A    between atoms: N_7  and  S_1 
REMARK    2  A    between atoms: C_8  and  S_1 
REMARK    3  A    between atoms: C_17  and  N_2 
REMARK    4  A    between atoms: C_14  and  N_7 
ROOT
ATOM      1  N   UNL d   1      56.384  -0.825  32.547  0.00  0.00    -0.273 N 
ATOM      2  C   UNL d   1      56.907   0.021  32.997  0.00  0.00     0.265 A 
ATOM      3  C   UNL d   1      56.806  -0.971  31.887  0.00  0.00     0.067 A 
ATOM      4  C   UNL d   1      57.435  -0.414  31.859  0.00  0.00     0.021 A 
ATOM      5  C   UNL d   1      57.515   0.146  32.460  0.00  0.00     0.058 A 
ATOM      6  C   UNL d   1      57.895  -0.996  30.619  0.00  0.00     0.105 A 
ATOM      7  C   UNL d   1      57.972  -0.432  31.227  0.00  0.00     0.014 A 
ATOM      8  C   UNL d   1      56.753  -1.511  31.282  0.00  0.00     0.018 A 
ATOM      9  C   UNL d   1      57.297  -1.538  30.629  0.00  0.00     0.014 A 
ATOM     10  O   UNL d   1      56.812   0.476  33.666  0.00  0.00    -0.267 OA
ATOM     11  C   UNL d   1      58.119   0.681  32.433  0.00  0.00     0.005 A 
ATOM     12  C   UNL d   1      58.576   0.103  31.200  0.00  0.00     0.001 A 
ATOM     13  C   UNL d   1      58.654   0.665  31.804  0.00  0.00     0.000 A 
ENDROOT
BRANCH   6  14
ATOM     14  S   UNL d   1      58.404  -1.034  29.992  0.00  0.00     0.287 S 
ATOM     15  O   UNL d   1      58.798  -1.646  30.321  0.00  0.00    -0.198 OA
ATOM     16  O   UNL d   1      58.002  -0.398  29.639  0.00  0.00    -0.198 OA
BRANCH  14  17
ATOM     17  N   UNL d   1      58.913  -1.046  29.330  0.00  0.00    -0.139 NA
BRANCH  17  18
ATOM     18  C   UNL d   1      59.232  -1.756  29.067  0.00  0.00     0.175 A 
ATOM     19  N   UNL d   1      58.745  -2.338  28.716  0.00  0.00    -0.225 NA
ATOM     20  C   UNL d   1      59.085  -3.054  28.455  0.00  0.00     0.101 A 
ATOM     21  C   UNL d   1      59.895  -3.180  28.546  0.00  0.00     0.021 A 
ATOM     22  C   UNL d   1      60.379  -2.617  28.888  0.00  0.00     0.005 A 
ATOM     23  C   UNL d   1      60.041  -1.898  29.151  0.00  0.00     0.040 A 
ENDBRANCH  17  18
ENDBRANCH  14  17
ENDBRANCH   6  14
BRANCH   1  24
ATOM     24  C   UNL d   1      55.730  -1.289  32.719  0.00  0.00     0.083 C 
ATOM     25  C   UNL d   1      55.236  -1.077  33.364  0.00  0.00     0.021 C 
ENDBRANCH   1  24
TORSDOF 4
ENDMDL
MODEL 6
REMARK VINA RESULT:       0.1      7.786      8.587
REMARK  4 active torsions:
REMARK  status: ('A' for Active; 'I' for Inactive)
REMARK    1  A    between atoms: N_7  and  S_1 
REMARK    2  A    between atoms: C_8  and  S_1 
REMARK    3  A    between atoms: C_17  and  N_2 
REMARK    4  A    between atoms: C_14  and  N_7 
ROOT
ATOM      1  N   UNL d   1      59.137  -9.649  29.595  0.00  0.00    -0.273 N 
ATOM      2  C   UNL d   1      58.052  -9.704  29.484  0.00  0.00     0.265 A 
ATOM      3  C   UNL d   1      59.242  -9.667  30.384  0.00  0.00     0.067 A 
ATOM      4  C   UNL d   1      58.482  -9.718  30.740  0.00  0.00     0.021 A 
ATOM      5  C   UNL d   1      57.806  -9.741  30.267  0.00  0.00     0.058 A 
ATOM      6  C   UNL d   1      59.096  -9.724  32.048  0.00  0.00     0.105 A 
ATOM      7  C   UNL d   1      58.416  -9.746  31.566  0.00  0.00     0.014 A 
ATOM      8  C   UNL d   1      59.888  -9.647  30.875  0.00  0.00     0.018 A 
ATOM      9  C   UNL d   1      59.833  -9.675  31.723  0.00  0.00     0.014 A 
ATOM     10  O   UNL d   1      57.529  -9.714  28.859  0.00  0.00    -0.267 OA
ATOM     11  C   UNL d   1      57.077  -9.790  30.609  0.00  0.00     0.005 A 
ATOM     12  C   UNL d   1      57.687  -9.796  31.909  0.00  0.00     0.001 A 
ATOM     13  C   UNL d   1      57.010  -9.818  31.431  0.00  0.00     0.000 A 
ENDROOT
BRANCH   6  14
ATOM     14  S   UNL d   1      59.059  -9.750  32.855  0.00  0.00     0.287 S 
ATOM     15  O   UNL d   1      58.263  -9.685  32.843  0.00  0.00    -0.198 OA
ATOM     16  O   UNL d   1      59.887  -9.818  32.881  0.00  0.00    -0.198 OA
BRANCH  14  17
ATOM     17  N   UNL d   1      59.058  -9.779  33.690  0.00  0.00    -0.139 NA
BRANCH  17  18
ATOM     18  C   UNL d   1      59.533  -9.267  34.122  0.00  0.00     0.175 A 
ATOM     19  N   UNL d   1      59.284  -8.484  34.278  0.00  0.00    -0.225 NA
ATOM     20  C   UNL d   1      59.778  -7.976  34.718  0.00  0.00     0.101 A 
ATOM     21  C   UNL d   1      60.506  -8.250  34.994  0.00  0.00     0.021 A 
ATOM     22  C   UNL d   1      60.757  -9.013  34.847  0.00  0.00     0.005 A 
ATOM     23  C   UNL d   1      60.264  -9.525  34.406  0.00  0.00     0.040 A 
ENDBRANCH  17  18
ENDBRANCH  14  17
ENDBRANCH   6  14
BRANCH   1  24
ATOM     24  C   UNL d   1      59.790  -9.600  29.101  0.00  0.00     0.083 C 
ATOM     25  C   UNL d   1      59.788  -9.041  28.475  0.00  0.00     0.021 C 
ENDBRANCH   1  24
TORSDOF 4
ENDMDL
