MODEL 1
REMARK VINA RESULT:      58.7      0.000      0.000
REMARK  9 active torsions:
REMARK  status: ('A' for Active; 'I' for Inactive)
REMARK       I    between atoms: N_2  and  C_1 
REMARK    1  A    between atoms: C_16  and  C_1 
REMARK    2  A    between atoms: C_8  and  N_2 
REMARK    3  A    between atoms: N_4  and  C_3 
REMARK    4  A    between atoms: C_17  and  N_4 
REMARK    5  A    between atoms: C_18  and  N_4 
REMARK    6  A    between atoms: C_12  and  O_14 
REMARK    7  A    between atoms: O_14  and  C_21 
REMARK    8  A    between atoms: C_23  and  C_16 
REMARK    9  A    between atoms: C_21  and  C_23 
ROOT
ATOM      1  C   UNL d   1      61.204  48.783  50.664  0.00  0.00     0.328 C 
ATOM      2  N   UNL d   1      61.263  47.953  50.581  0.00  0.00    -0.365 NA
ATOM      3  O   UNL d   1      61.499  49.145  51.336  0.00  0.00    -0.251 OA
ENDROOT
BRANCH   1   4
ATOM      4  C   UNL d   1      60.852  49.228  50.075  0.00  0.00     0.078 C 
BRANCH   4   5
ATOM      5  C   UNL d   1      60.198  49.692  50.242  0.00  0.00     0.033 C 
BRANCH   5   6
ATOM      6  C   UNL d   1      59.428  49.384  50.173  0.00  0.00     0.123 C 
BRANCH   6   7
ATOM      7  O   UNL d   1      58.816  49.694  50.633  0.00  0.00    -0.305 OA
BRANCH   7   8
ATOM      8  C   UNL d   1      58.040  49.607  50.375  0.00  0.00     0.100 A 
ATOM      9  C   UNL d   1      57.420  49.530  50.948  0.00  0.00     0.025 A 
ATOM     10  C   UNL d   1      56.633  49.442  50.680  0.00  0.00     0.002 A 
ATOM     11  C   UNL d   1      56.041  49.368  51.245  0.00  0.00     0.000 C 
ATOM     12  C   UNL d   1      56.454  49.430  49.881  0.00  0.00     0.000 A 
ATOM     13  C   UNL d   1      57.056  49.505  49.322  0.00  0.00     0.002 A 
ATOM     14  C   UNL d   1      57.859  49.595  49.565  0.00  0.00     0.025 A 
ENDBRANCH   7   8
ENDBRANCH   6   7
ENDBRANCH   5   6
ENDBRANCH   4   5
ENDBRANCH   1   4
BRANCH   2  15
ATOM     15  C   UNL d   1      61.317  47.139  50.493  0.00  0.00     0.135 A 
ATOM     16  C   UNL d   1      61.117  46.628  51.112  0.00  0.00     0.034 A 
ATOM     17  C   UNL d   1      61.174  45.824  51.018  0.00  0.00     0.020 A 
ATOM     18  C   UNL d   1      61.430  45.501  50.308  0.00  0.00     0.064 A 
ATOM     19  C   UNL d   1      61.635  46.006  49.676  0.00  0.00     0.020 A 
ATOM     20  C   UNL d   1      61.580  46.825  49.765  0.00  0.00     0.034 A 
BRANCH  18  21
ATOM     21  N   UNL d   1      61.489  44.682  50.208  0.00  0.00    -0.304 N 
BRANCH  21  22
ATOM     22  C   UNL d   1      61.709  44.205  50.857  0.00  0.00     0.080 C 
ATOM     23  C   UNL d   1      61.132  43.915  51.370  0.00  0.00     0.021 C 
ENDBRANCH  21  22
BRANCH  21  24
ATOM     24  C   UNL d   1      61.336  44.331  49.481  0.00  0.00     0.080 C 
ATOM     25  C   UNL d   1      61.835  44.473  48.846  0.00  0.00     0.021 C 
ENDBRANCH  21  24
ENDBRANCH  18  21
ENDBRANCH   2  15
TORSDOF 9
ENDMDL
