MODEL 1
REMARK VINA RESULT:      -2.0      0.000      0.000
REMARK  3 active torsions:
REMARK  status: ('A' for Active; 'I' for Inactive)
REMARK    1  A    between atoms: S_4  and  C_1 
REMARK    2  A    between atoms: N_2  and  C_5 
REMARK    3  A    between atoms: C_9  and  S_4 
ROOT
ATOM      1  C   UNL d   1     -41.573-122.360 -51.899  0.00  0.00     0.133 A 
ATOM      2  C   UNL d   1     -41.711-122.420 -51.063  0.00  0.00     0.051 A 
ATOM      3  C   UNL d   1     -41.269-121.620 -52.169  0.00  0.00     0.024 A 
ATOM      4  C   UNL d   1     -41.553-121.793 -50.570  0.00  0.00     0.008 A 
ATOM      5  C   UNL d   1     -41.123-121.016 -51.653  0.00  0.00     0.002 A 
ATOM      6  C   UNL d   1     -41.255-121.078 -50.862  0.00  0.00     0.001 A 
ENDROOT
BRANCH   2   7
ATOM      7  S   UNL d   1     -42.011-123.121 -50.723  0.00  0.00    -0.082 SA
BRANCH   7   8
ATOM      8  C   UNL d   1     -42.299-123.108 -49.960  0.00  0.00     0.068 A 
ATOM      9  C   UNL d   1     -42.988-122.811 -49.624  0.00  0.00     0.110 A 
ATOM     10  N   UNL d   1     -42.969-122.960 -48.845  0.00  0.00    -0.147 NA
ATOM     11  C   UNL d   1     -43.593-122.418 -50.060  0.00  0.00     0.023 C 
ATOM     12  N   UNL d   1     -42.306-123.340 -48.650  0.00  0.00    -0.147 NA
ATOM     13  C   UNL d   1     -41.859-123.445 -49.354  0.00  0.00     0.110 A 
ATOM     14  C   UNL d   1     -41.123-123.814 -49.432  0.00  0.00     0.023 C 
ENDBRANCH   7   8
ENDBRANCH   2   7
BRANCH   1  15
ATOM     15  N   UNL d   1     -41.716-122.967 -52.449  0.00  0.00    -0.113 N 
ATOM     16  O   UNL d   1     -42.336-122.919 -52.934  0.00  0.00    -0.532 OA
ATOM     17  O   UNL d   1     -41.193-123.622 -52.478  0.00  0.00    -0.532 OA
ENDBRANCH   1  15
TORSDOF 3
ENDMDL
MODEL 2
REMARK VINA RESULT:      -2.0      1.429      1.753
REMARK  3 active torsions:
REMARK  status: ('A' for Active; 'I' for Inactive)
REMARK    1  A    between atoms: S_4  and  C_1 
REMARK    2  A    between atoms: N_2  and  C_5 
REMARK    3  A    between atoms: C_9  and  S_4 
ROOT
ATOM      1  C   UNL d   1     -41.587-122.166 -50.992  0.00  0.00     0.133 A 
ATOM      2  C   UNL d   1     -41.762-122.679 -50.338  0.00  0.00     0.051 A 
ATOM      3  C   UNL d   1     -41.257-122.540 -51.674  0.00  0.00     0.024 A 
ATOM      4  C   UNL d   1     -41.615-123.478 -50.385  0.00  0.00     0.008 A 
ATOM      5  C   UNL d   1     -41.123-123.336 -51.690  0.00  0.00     0.002 A 
ATOM      6  C   UNL d   1     -41.291-123.817 -51.067  0.00  0.00     0.001 A 
ENDROOT
BRANCH   2   7
ATOM      7  S   UNL d   1     -42.090-122.381 -49.631  0.00  0.00    -0.082 SA
BRANCH   7   8
ATOM      8  C   UNL d   1     -42.400-122.898 -49.081  0.00  0.00     0.068 A 
ATOM      9  C   UNL d   1     -43.109-123.312 -49.037  0.00  0.00     0.110 A 
ATOM     10  N   UNL d   1     -43.108-123.736 -48.366  0.00  0.00    -0.147 NA
ATOM     11  C   UNL d   1     -43.715-123.273 -49.621  0.00  0.00     0.023 C 
ATOM     12  N   UNL d   1     -42.437-123.623 -47.966  0.00  0.00    -0.147 NA
ATOM     13  C   UNL d   1     -41.967-123.086 -48.410  0.00  0.00     0.110 A 
ATOM     14  C   UNL d   1     -41.215-122.799 -48.218  0.00  0.00     0.023 C 
ENDBRANCH   7   8
ENDBRANCH   2   7
BRANCH   1  15
ATOM     15  N   UNL d   1     -41.716-121.344 -51.000  0.00  0.00    -0.113 N 
ATOM     16  O   UNL d   1     -41.129-120.854 -50.810  0.00  0.00    -0.532 OA
ATOM     17  O   UNL d   1     -42.473-121.053 -51.211  0.00  0.00    -0.532 OA
ENDBRANCH   1  15
TORSDOF 3
ENDMDL
MODEL 3
REMARK VINA RESULT:      -1.6      1.874      2.741
REMARK  3 active torsions:
REMARK  status: ('A' for Active; 'I' for Inactive)
REMARK    1  A    between atoms: S_4  and  C_1 
REMARK    2  A    between atoms: N_2  and  C_5 
REMARK    3  A    between atoms: C_9  and  S_4 
ROOT
ATOM      1  C   UNL d   1     -42.002-122.317 -54.004  0.00  0.00     0.133 A 
ATOM      2  C   UNL d   1     -41.789-122.529 -53.210  0.00  0.00     0.051 A 
ATOM      3  C   UNL d   1     -41.744-122.849 -54.608  0.00  0.00     0.024 A 
ATOM      4  C   UNL d   1     -41.363-123.205 -53.060  0.00  0.00     0.008 A 
ATOM      5  C   UNL d   1     -41.322-123.513 -54.426  0.00  0.00     0.002 A 
ATOM      6  C   UNL d   1     -41.123-123.708 -53.671  0.00  0.00     0.001 A 
ENDROOT
BRANCH   2   7
ATOM      7  S   UNL d   1     -42.010-122.051 -52.562  0.00  0.00    -0.082 SA
BRANCH   7   8
ATOM      8  C   UNL d   1     -41.770-122.257 -51.810  0.00  0.00     0.068 A 
ATOM      9  C   UNL d   1     -41.861-122.937 -51.357  0.00  0.00     0.110 A 
ATOM     10  N   UNL d   1     -41.507-122.819 -50.656  0.00  0.00    -0.147 NA
ATOM     11  C   UNL d   1     -42.267-123.627 -51.619  0.00  0.00     0.023 C 
ATOM     12  N   UNL d   1     -41.188-122.098 -50.623  0.00  0.00    -0.147 NA
ATOM     13  C   UNL d   1     -41.346-121.719 -51.357  0.00  0.00     0.110 A 
ATOM     14  C   UNL d   1     -41.123-120.956 -51.587  0.00  0.00     0.023 C 
ENDBRANCH   7   8
ENDBRANCH   2   7
BRANCH   1  15
ATOM     15  N   UNL d   1     -42.436-121.640 -54.217  0.00  0.00    -0.113 N 
ATOM     16  O   UNL d   1     -42.078-120.938 -54.244  0.00  0.00    -0.532 OA
ATOM     17  O   UNL d   1     -43.250-121.718 -54.398  0.00  0.00    -0.532 OA
ENDBRANCH   1  15
TORSDOF 3
ENDMDL
MODEL 4
REMARK VINA RESULT:       0.1      1.534      3.047
REMARK  3 active torsions:
REMARK  status: ('A' for Active; 'I' for Inactive)
REMARK    1  A    between atoms: S_4  and  C_1 
REMARK    2  A    between atoms: N_2  and  C_5 
REMARK    3  A    between atoms: C_9  and  S_4 
ROOT
ATOM      1  C   UNL d   1     -42.725-122.690 -50.084  0.00  0.00     0.133 A 
ATOM      2  C   UNL d   1     -42.205-122.817 -50.744  0.00  0.00     0.051 A 
ATOM      3  C   UNL d   1     -42.384-122.806 -49.320  0.00  0.00     0.024 A 
ATOM      4  C   UNL d   1     -41.431-123.036 -50.626  0.00  0.00     0.008 A 
ATOM      5  C   UNL d   1     -41.611-123.024 -49.237  0.00  0.00     0.002 A 
ATOM      6  C   UNL d   1     -41.123-123.143 -49.866  0.00  0.00     0.001 A 
ENDROOT
BRANCH   2   7
ATOM      7  S   UNL d   1     -42.472-122.721 -51.529  0.00  0.00    -0.082 SA
BRANCH   7   8
ATOM      8  C   UNL d   1     -41.948-122.480 -52.106  0.00  0.00     0.068 A 
ATOM      9  C   UNL d   1     -41.582-121.762 -52.269  0.00  0.00     0.110 A 
ATOM     10  N   UNL d   1     -41.122-121.856 -52.909  0.00  0.00    -0.147 NA
ATOM     11  C   UNL d   1     -41.696-121.062 -51.814  0.00  0.00     0.023 C 
ATOM     12  N   UNL d   1     -41.166-122.597 -53.177  0.00  0.00    -0.147 NA
ATOM     13  C   UNL d   1     -41.693-123.016 -52.673  0.00  0.00     0.110 A 
ATOM     14  C   UNL d   1     -41.917-123.811 -52.729  0.00  0.00     0.023 C 
ENDBRANCH   7   8
ENDBRANCH   2   7
BRANCH   1  15
ATOM     15  N   UNL d   1     -43.524-122.466 -50.144  0.00  0.00    -0.113 N 
ATOM     16  O   UNL d   1     -43.712-121.704 -50.224  0.00  0.00    -0.532 OA
ATOM     17  O   UNL d   1     -44.116-123.058 -50.118  0.00  0.00    -0.532 OA
ENDBRANCH   1  15
TORSDOF 3
ENDMDL
MODEL 5
REMARK VINA RESULT:       0.5      2.256      4.026
REMARK  3 active torsions:
REMARK  status: ('A' for Active; 'I' for Inactive)
REMARK    1  A    between atoms: S_4  and  C_1 
REMARK    2  A    between atoms: N_2  and  C_5 
REMARK    3  A    between atoms: C_9  and  S_4 
ROOT
ATOM      1  C   UNL d   1     -41.660-122.411 -52.026  0.00  0.00     0.133 A 
ATOM      2  C   UNL d   1     -41.765-122.445 -52.868  0.00  0.00     0.051 A 
ATOM      3  C   UNL d   1     -41.393-123.124 -51.661  0.00  0.00     0.024 A 
ATOM      4  C   UNL d   1     -41.614-123.130 -53.279  0.00  0.00     0.008 A 
ATOM      5  C   UNL d   1     -41.251-123.789 -52.097  0.00  0.00     0.002 A 
ATOM      6  C   UNL d   1     -41.353-123.815 -52.895  0.00  0.00     0.001 A 
ENDROOT
BRANCH   2   7
ATOM      7  S   UNL d   1     -42.027-121.779 -53.298  0.00  0.00    -0.082 SA
BRANCH   7   8
ATOM      8  C   UNL d   1     -42.320-121.876 -54.053  0.00  0.00     0.068 A 
ATOM      9  C   UNL d   1     -41.965-122.028 -54.779  0.00  0.00     0.110 A 
ATOM     10  N   UNL d   1     -42.534-122.066 -55.331  0.00  0.00    -0.147 NA
ATOM     11  C   UNL d   1     -41.135-122.122 -54.887  0.00  0.00     0.023 C 
ATOM     12  N   UNL d   1     -43.244-121.947 -55.009  0.00  0.00    -0.147 NA
ATOM     13  C   UNL d   1     -43.129-121.823 -54.185  0.00  0.00     0.110 A 
ATOM     14  C   UNL d   1     -43.708-121.676 -53.613  0.00  0.00     0.023 C 
ENDBRANCH   7   8
ENDBRANCH   2   7
BRANCH   1  15
ATOM     15  N   UNL d   1     -41.799-121.740 -51.556  0.00  0.00    -0.113 N 
ATOM     16  O   UNL d   1     -42.489-121.660 -51.182  0.00  0.00    -0.532 OA
ATOM     17  O   UNL d   1     -41.200-121.158 -51.488  0.00  0.00    -0.532 OA
ENDBRANCH   1  15
TORSDOF 3
ENDMDL
MODEL 6
REMARK VINA RESULT:       0.7      1.846      3.438
REMARK  3 active torsions:
REMARK  status: ('A' for Active; 'I' for Inactive)
REMARK    1  A    between atoms: S_4  and  C_1 
REMARK    2  A    between atoms: N_2  and  C_5 
REMARK    3  A    between atoms: C_9  and  S_4 
ROOT
ATOM      1  C   UNL d   1     -42.653-123.088 -48.818  0.00  0.00     0.133 A 
ATOM      2  C   UNL d   1     -42.669-122.887 -49.643  0.00  0.00     0.051 A 
ATOM      3  C   UNL d   1     -43.315-123.530 -48.534  0.00  0.00     0.024 A 
ATOM      4  C   UNL d   1     -43.292-123.114 -50.114  0.00  0.00     0.008 A 
ATOM      5  C   UNL d   1     -43.918-123.741 -49.028  0.00  0.00     0.002 A 
ATOM      6  C   UNL d   1     -43.928-123.547 -49.809  0.00  0.00     0.001 A 
ENDROOT
BRANCH   2   7
ATOM      7  S   UNL d   1     -42.050-122.451 -49.994  0.00  0.00    -0.082 SA
BRANCH   7   8
ATOM      8  C   UNL d   1     -42.022-122.372 -50.805  0.00  0.00     0.068 A 
ATOM      9  C   UNL d   1     -41.712-122.840 -51.406  0.00  0.00     0.110 A 
ATOM     10  N   UNL d   1     -41.849-122.479 -52.099  0.00  0.00    -0.147 NA
ATOM     11  C   UNL d   1     -41.320-123.574 -51.275  0.00  0.00     0.023 C 
ATOM     12  N   UNL d   1     -42.233-121.799 -51.988  0.00  0.00    -0.147 NA
ATOM     13  C   UNL d   1     -42.354-121.711 -51.161  0.00  0.00     0.110 A 
ATOM     14  C   UNL d   1     -42.732-121.085 -50.772  0.00  0.00     0.023 C 
ENDBRANCH   7   8
ENDBRANCH   2   7
BRANCH   1  15
ATOM     15  N   UNL d   1     -42.044-122.883 -48.290  0.00  0.00    -0.113 N 
ATOM     16  O   UNL d   1     -41.371-123.294 -48.289  0.00  0.00    -0.532 OA
ATOM     17  O   UNL d   1     -42.159-122.239 -47.766  0.00  0.00    -0.532 OA
ENDBRANCH   1  15
TORSDOF 3
ENDMDL
