MODEL 1
REMARK VINA RESULT:      -7.8      0.000      0.000
REMARK  6 active torsions:
REMARK  status: ('A' for Active; 'I' for Inactive)
REMARK    1  A    between atoms: C_16  and  N_1 
REMARK    2  A    between atoms: C_11  and  C_2 
REMARK    3  A    between atoms: S_15  and  C_3 
REMARK    4  A    between atoms: C_8  and  C_11 
REMARK    5  A    between atoms: C_13  and  C_17 
REMARK       I    between atoms: N_14  and  C_13 
REMARK    6  A    between atoms: C_17  and  S_15 
ROOT
ATOM      1  N   UNL d   1      51.822  33.572  53.319  0.00  0.00    -0.269 N 
ATOM      2  C   UNL d   1      51.994  32.765  53.219  0.00  0.00     0.172 A 
ATOM      3  C   UNL d   1      51.023  33.674  53.158  0.00  0.00     0.201 A 
ATOM      4  N   UNL d   1      51.305  32.383  52.998  0.00  0.00    -0.128 NA
ATOM      5  N   UNL d   1      50.702  32.951  52.961  0.00  0.00    -0.121 NA
ENDROOT
BRANCH   3   6
ATOM      6  S   UNL d   1      50.597  34.395  53.187  0.00  0.00    -0.043 SA
BRANCH   6   7
ATOM      7  C   UNL d   1      49.887  34.475  52.758  0.00  0.00     0.099 C 
BRANCH   7   8
ATOM      8  C   UNL d   1      49.366  35.080  52.951  0.00  0.00     0.271 C 
ATOM      9  N   UNL d   1      48.735  35.257  52.451  0.00  0.00    -0.272 N 
ATOM     10  C   UNL d   1      48.207  35.867  52.643  0.00  0.00     0.083 A 
ATOM     11  C   UNL d   1      48.623  34.828  51.754  0.00  0.00     0.083 A 
ATOM     12  C   UNL d   1      47.576  36.045  52.143  0.00  0.00     0.019 A 
ATOM     13  C   UNL d   1      47.471  35.610  51.447  0.00  0.00     0.003 A 
ATOM     14  C   UNL d   1      47.992  35.005  51.254  0.00  0.00     0.019 A 
ATOM     15  O   UNL d   1      49.473  35.517  53.651  0.00  0.00    -0.266 OA
ENDBRANCH   7   8
ENDBRANCH   6   7
ENDBRANCH   3   6
BRANCH   1  16
ATOM     16  C   UNL d   1      52.329  34.183  53.538  0.00  0.00     0.067 A 
ATOM     17  C   UNL d   1      52.449  34.341  54.349  0.00  0.00     0.018 A 
ATOM     18  C   UNL d   1      52.959  34.956  54.579  0.00  0.00     0.002 A 
ATOM     19  C   UNL d   1      53.338  35.399  53.994  0.00  0.00     0.000 A 
ATOM     20  C   UNL d   1      53.224  35.249  53.200  0.00  0.00     0.002 A 
ATOM     21  C   UNL d   1      52.713  34.633  52.970  0.00  0.00     0.018 A 
ENDBRANCH   1  16
BRANCH   2  22
ATOM     22  C   UNL d   1      52.771  32.494  53.346  0.00  0.00     0.059 C 
BRANCH  22  23
ATOM     23  C   UNL d   1      52.931  31.678  53.310  0.00  0.00     0.094 A 
ATOM     24  C   UNL d   1      53.091  31.250  53.997  0.00  0.00     0.082 A 
ATOM     25  C   UNL d   1      53.248  30.445  53.951  0.00  0.00     0.285 A 
ATOM     26  O   UNL d   1      53.408  30.017  54.638  0.00  0.00    -0.265 OA
ATOM     27  N   UNL d   1      53.245  30.066  53.219  0.00  0.00    -0.152 NA
ATOM     28  C   UNL d   1      53.088  30.482  52.539  0.00  0.00     0.371 A 
ATOM     29  N   UNL d   1      52.928  31.300  52.577  0.00  0.00    -0.191 NA
ATOM     30  O   UNL d   1      53.091  30.075  51.804  0.00  0.00    -0.242 OA
ENDBRANCH  22  23
ENDBRANCH   2  22
TORSDOF 6
ENDMDL
MODEL 2
REMARK VINA RESULT:      -7.0      1.383      2.093
REMARK  6 active torsions:
REMARK  status: ('A' for Active; 'I' for Inactive)
REMARK    1  A    between atoms: C_16  and  N_1 
REMARK    2  A    between atoms: C_11  and  C_2 
REMARK    3  A    between atoms: S_15  and  C_3 
REMARK    4  A    between atoms: C_8  and  C_11 
REMARK    5  A    between atoms: C_13  and  C_17 
REMARK       I    between atoms: N_14  and  C_13 
REMARK    6  A    between atoms: C_17  and  S_15 
ROOT
ATOM      1  N   UNL d   1      53.097  32.402  53.466  0.00  0.00    -0.269 N 
ATOM      2  C   UNL d   1      53.029  31.597  53.272  0.00  0.00     0.172 A 
ATOM      3  C   UNL d   1      52.466  32.793  53.112  0.00  0.00     0.201 A 
ATOM      4  N   UNL d   1      52.364  31.502  52.804  0.00  0.00    -0.128 NA
ATOM      5  N   UNL d   1      52.016  32.249  52.707  0.00  0.00    -0.121 NA
ENDROOT
BRANCH   3   6
ATOM      6  S   UNL d   1      52.304  33.614  53.153  0.00  0.00    -0.043 SA
BRANCH   6   7
ATOM      7  C   UNL d   1      51.672  33.934  52.715  0.00  0.00     0.099 C 
BRANCH   7   8
ATOM      8  C   UNL d   1      51.187  34.499  53.060  0.00  0.00     0.271 C 
ATOM      9  N   UNL d   1      50.428  34.630  52.766  0.00  0.00    -0.272 N 
ATOM     10  C   UNL d   1      49.936  35.200  53.113  0.00  0.00     0.083 A 
ATOM     11  C   UNL d   1      50.152  34.193  52.121  0.00  0.00     0.083 A 
ATOM     12  C   UNL d   1      49.177  35.331  52.818  0.00  0.00     0.019 A 
ATOM     13  C   UNL d   1      48.908  34.889  52.172  0.00  0.00     0.003 A 
ATOM     14  C   UNL d   1      49.393  34.324  51.826  0.00  0.00     0.019 A 
ATOM     15  O   UNL d   1      51.458  34.943  53.710  0.00  0.00    -0.266 OA
ENDBRANCH   7   8
ENDBRANCH   6   7
ENDBRANCH   3   6
BRANCH   1  16
ATOM     16  C   UNL d   1      53.671  32.775  53.923  0.00  0.00     0.067 A 
ATOM     17  C   UNL d   1      54.381  33.024  53.563  0.00  0.00     0.018 A 
ATOM     18  C   UNL d   1      54.966  33.401  54.017  0.00  0.00     0.002 A 
ATOM     19  C   UNL d   1      54.829  33.521  54.822  0.00  0.00     0.000 A 
ATOM     20  C   UNL d   1      54.137  33.279  55.181  0.00  0.00     0.002 A 
ATOM     21  C   UNL d   1      53.551  32.902  54.726  0.00  0.00     0.018 A 
ENDBRANCH   1  16
BRANCH   2  22
ATOM     22  C   UNL d   1      53.597  31.059  53.557  0.00  0.00     0.059 C 
BRANCH  22  23
ATOM     23  C   UNL d   1      53.378  30.268  53.695  0.00  0.00     0.094 A 
ATOM     24  C   UNL d   1      53.057  29.809  53.088  0.00  0.00     0.082 A 
ATOM     25  C   UNL d   1      52.844  29.029  53.234  0.00  0.00     0.285 A 
ATOM     26  O   UNL d   1      52.522  28.570  52.628  0.00  0.00    -0.265 OA
ATOM     27  N   UNL d   1      52.952  28.706  53.985  0.00  0.00    -0.152 NA
ATOM     28  C   UNL d   1      53.267  29.153  54.586  0.00  0.00     0.371 A 
ATOM     29  N   UNL d   1      53.486  29.945  54.445  0.00  0.00    -0.191 NA
ATOM     30  O   UNL d   1      53.368  28.803  55.342  0.00  0.00    -0.242 OA
ENDBRANCH  22  23
ENDBRANCH   2  22
TORSDOF 6
ENDMDL
MODEL 3
REMARK VINA RESULT:      -6.9      1.076      5.207
REMARK  6 active torsions:
REMARK  status: ('A' for Active; 'I' for Inactive)
REMARK    1  A    between atoms: C_16  and  N_1 
REMARK    2  A    between atoms: C_11  and  C_2 
REMARK    3  A    between atoms: S_15  and  C_3 
REMARK    4  A    between atoms: C_8  and  C_11 
REMARK    5  A    between atoms: C_13  and  C_17 
REMARK       I    between atoms: N_14  and  C_13 
REMARK    6  A    between atoms: C_17  and  S_15 
ROOT
ATOM      1  N   UNL d   1      51.651  33.885  53.199  0.00  0.00    -0.269 N 
ATOM      2  C   UNL d   1      50.867  34.033  52.964  0.00  0.00     0.172 A 
ATOM      3  C   UNL d   1      51.778  33.076  53.127  0.00  0.00     0.201 A 
ATOM      4  N   UNL d   1      50.525  33.321  52.752  0.00  0.00    -0.128 NA
ATOM      5  N   UNL d   1      51.095  32.727  52.855  0.00  0.00    -0.121 NA
ENDROOT
BRANCH   3   6
ATOM      6  S   UNL d   1      52.489  32.668  53.302  0.00  0.00    -0.043 SA
BRANCH   6   7
ATOM      7  C   UNL d   1      52.550  31.853  53.138  0.00  0.00     0.099 C 
BRANCH   7   8
ATOM      8  C   UNL d   1      53.213  31.440  53.390  0.00  0.00     0.271 C 
ATOM      9  N   UNL d   1      53.170  30.627  53.519  0.00  0.00    -0.272 N 
ATOM     10  C   UNL d   1      53.838  30.207  53.774  0.00  0.00     0.083 A 
ATOM     11  C   UNL d   1      52.460  30.223  53.394  0.00  0.00     0.083 A 
ATOM     12  C   UNL d   1      53.795  29.393  53.902  0.00  0.00     0.019 A 
ATOM     13  C   UNL d   1      53.080  28.997  53.774  0.00  0.00     0.003 A 
ATOM     14  C   UNL d   1      52.417  29.410  53.522  0.00  0.00     0.019 A 
ATOM     15  O   UNL d   1      53.932  31.840  53.519  0.00  0.00    -0.266 OA
ENDBRANCH   7   8
ENDBRANCH   6   7
ENDBRANCH   3   6
BRANCH   1  16
ATOM     16  C   UNL d   1      52.219  34.420  53.460  0.00  0.00     0.067 A 
ATOM     17  C   UNL d   1      52.276  34.588  54.276  0.00  0.00     0.018 A 
ATOM     18  C   UNL d   1      52.847  35.127  54.548  0.00  0.00     0.002 A 
ATOM     19  C   UNL d   1      53.350  35.486  54.000  0.00  0.00     0.000 A 
ATOM     20  C   UNL d   1      53.298  35.325  53.201  0.00  0.00     0.002 A 
ATOM     21  C   UNL d   1      52.726  34.786  52.929  0.00  0.00     0.018 A 
ENDBRANCH   1  16
BRANCH   2  22
ATOM     22  C   UNL d   1      50.576  34.813  52.978  0.00  0.00     0.059 C 
BRANCH  22  23
ATOM     23  C   UNL d   1      49.794  34.963  52.741  0.00  0.00     0.094 A 
ATOM     24  C   UNL d   1      49.545  34.782  51.975  0.00  0.00     0.082 A 
ATOM     25  C   UNL d   1      48.769  34.933  51.749  0.00  0.00     0.285 A 
ATOM     26  O   UNL d   1      48.521  34.752  50.983  0.00  0.00    -0.265 OA
ATOM     27  N   UNL d   1      48.241  35.265  52.288  0.00  0.00    -0.152 NA
ATOM     28  C   UNL d   1      48.480  35.446  53.043  0.00  0.00     0.371 A 
ATOM     29  N   UNL d   1      49.266  35.295  53.280  0.00  0.00    -0.191 NA
ATOM     30  O   UNL d   1      47.924  35.784  53.574  0.00  0.00    -0.242 OA
ENDBRANCH  22  23
ENDBRANCH   2  22
TORSDOF 6
ENDMDL
MODEL 4
REMARK VINA RESULT:      -5.9      1.693      5.428
REMARK  6 active torsions:
REMARK  status: ('A' for Active; 'I' for Inactive)
REMARK    1  A    between atoms: C_16  and  N_1 
REMARK    2  A    between atoms: C_11  and  C_2 
REMARK    3  A    between atoms: S_15  and  C_3 
REMARK    4  A    between atoms: C_8  and  C_11 
REMARK    5  A    between atoms: C_13  and  C_17 
REMARK       I    between atoms: N_14  and  C_13 
REMARK    6  A    between atoms: C_17  and  S_15 
ROOT
ATOM      1  N   UNL d   1      52.811  32.627  53.237  0.00  0.00    -0.269 N 
ATOM      2  C   UNL d   1      52.163  32.972  52.846  0.00  0.00     0.172 A 
ATOM      3  C   UNL d   1      52.801  31.823  53.063  0.00  0.00     0.201 A 
ATOM      4  N   UNL d   1      51.766  32.383  52.440  0.00  0.00    -0.128 NA
ATOM      5  N   UNL d   1      52.166  31.669  52.578  0.00  0.00    -0.121 NA
ENDROOT
BRANCH   3   6
ATOM      6  S   UNL d   1      53.348  31.249  53.335  0.00  0.00    -0.043 SA
BRANCH   6   7
ATOM      7  C   UNL d   1      53.093  30.469  53.478  0.00  0.00     0.099 C 
BRANCH   7   8
ATOM      8  C   UNL d   1      53.650  29.882  53.616  0.00  0.00     0.271 C 
ATOM      9  N   UNL d   1      53.541  29.344  54.231  0.00  0.00    -0.272 N 
ATOM     10  C   UNL d   1      54.102  28.750  54.373  0.00  0.00     0.083 A 
ATOM     11  C   UNL d   1      52.871  29.392  54.712  0.00  0.00     0.083 A 
ATOM     12  C   UNL d   1      53.993  28.212  54.988  0.00  0.00     0.019 A 
ATOM     13  C   UNL d   1      53.319  28.267  55.465  0.00  0.00     0.003 A 
ATOM     14  C   UNL d   1      52.761  28.854  55.327  0.00  0.00     0.019 A 
ATOM     15  O   UNL d   1      54.328  29.827  53.136  0.00  0.00    -0.266 OA
ENDBRANCH   7   8
ENDBRANCH   6   7
ENDBRANCH   3   6
BRANCH   1  16
ATOM     16  C   UNL d   1      53.375  32.987  53.715  0.00  0.00     0.067 A 
ATOM     17  C   UNL d   1      54.092  33.246  53.375  0.00  0.00     0.018 A 
ATOM     18  C   UNL d   1      54.668  33.611  53.850  0.00  0.00     0.002 A 
ATOM     19  C   UNL d   1      54.515  33.710  54.656  0.00  0.00     0.000 A 
ATOM     20  C   UNL d   1      53.815  33.459  54.994  0.00  0.00     0.002 A 
ATOM     21  C   UNL d   1      53.239  33.093  54.518  0.00  0.00     0.018 A 
ENDBRANCH   1  16
BRANCH   2  22
ATOM     22  C   UNL d   1      52.030  33.790  52.921  0.00  0.00     0.059 C 
BRANCH  22  23
ATOM     23  C   UNL d   1      51.312  34.114  52.654  0.00  0.00     0.094 A 
ATOM     24  C   UNL d   1      50.756  34.404  53.192  0.00  0.00     0.082 A 
ATOM     25  C   UNL d   1      50.049  34.722  52.919  0.00  0.00     0.285 A 
ATOM     26  O   UNL d   1      49.494  35.012  53.456  0.00  0.00    -0.265 OA
ATOM     27  N   UNL d   1      49.896  34.751  52.109  0.00  0.00    -0.152 NA
ATOM     28  C   UNL d   1      50.439  34.467  51.576  0.00  0.00     0.371 A 
ATOM     29  N   UNL d   1      51.159  34.143  51.845  0.00  0.00    -0.191 NA
ATOM     30  O   UNL d   1      50.262  34.507  50.756  0.00  0.00    -0.242 OA
ENDBRANCH  22  23
ENDBRANCH   2  22
TORSDOF 6
ENDMDL
