MODEL 1
REMARK VINA RESULT:      -9.4      0.000      0.000
REMARK  7 active torsions:
REMARK  status: ('A' for Active; 'I' for Inactive)
REMARK    1  A    between atoms: C_6  and  C_13 
REMARK       I    between atoms: N_12  and  C_6 
REMARK    2  A    between atoms: O_8  and  C_7 
REMARK    3  A    between atoms: C_13  and  O_8 
REMARK    4  A    between atoms: O_14  and  C_10 
REMARK    5  A    between atoms: C_11  and  C_20 
REMARK    6  A    between atoms: C_15  and  N_12 
REMARK    7  A    between atoms: C_20  and  C_15 
ROOT
ATOM      1  C   UNL d   1      51.179  34.173  52.520  0.00  0.00     0.304 C 
ATOM      2  O   UNL d   1      51.150  34.090  51.697  0.00  0.00    -0.263 OA
ATOM      3  N   UNL d   1      50.536  34.461  52.941  0.00  0.00    -0.205 NA
ENDROOT
BRANCH   1   4
ATOM      4  C   UNL d   1      51.870  33.963  52.923  0.00  0.00     0.185 C 
BRANCH   4   5
ATOM      5  O   UNL d   1      52.190  33.212  52.821  0.00  0.00    -0.298 OA
BRANCH   5   6
ATOM      6  C   UNL d   1      52.840  32.983  53.263  0.00  0.00     0.122 A 
ATOM      7  C   UNL d   1      53.039  32.185  53.323  0.00  0.00     0.117 A 
ATOM      8  O   UNL d   1      52.687  31.503  53.002  0.00  0.00    -0.330 OA
ATOM      9  C   UNL d   1      53.695  31.954  53.769  0.00  0.00     0.022 A 
ATOM     10  C   UNL d   1      53.132  30.849  53.253  0.00  0.00     0.117 A 
ATOM     11  C   UNL d   1      53.620  30.268  53.542  0.00  0.00     0.035 C 
ATOM     12  C   UNL d   1      52.563  30.460  52.806  0.00  0.00     0.035 C 
ATOM     13  C   UNL d   1      53.751  31.129  53.725  0.00  0.00     0.003 A 
ATOM     14  C   UNL d   1      54.150  32.523  54.152  0.00  0.00     0.002 A 
ATOM     15  C   UNL d   1      53.952  33.309  54.091  0.00  0.00     0.002 A 
ATOM     16  C   UNL d   1      53.296  33.539  53.646  0.00  0.00     0.027 A 
ENDBRANCH   5   6
ENDBRANCH   4   5
ENDBRANCH   1   4
BRANCH   3  17
ATOM     17  C   UNL d   1      49.853  34.669  52.542  0.00  0.00     0.102 C 
BRANCH  17  18
ATOM     18  C   UNL d   1      49.250  35.088  52.928  0.00  0.00     0.023 C 
BRANCH  18  19
ATOM     19  C   UNL d   1      48.581  35.327  52.520  0.00  0.00     0.024 A 
ATOM     20  C   UNL d   1      48.073  35.886  52.851  0.00  0.00     0.094 A 
ATOM     21  C   UNL d   1      47.401  36.119  52.429  0.00  0.00     0.024 A 
ATOM     22  C   UNL d   1      47.235  35.801  51.686  0.00  0.00     0.002 A 
ATOM     23  C   UNL d   1      47.736  35.247  51.354  0.00  0.00     0.000 A 
ATOM     24  C   UNL d   1      48.408  35.005  51.760  0.00  0.00     0.002 A 
BRANCH  20  25
ATOM     25  O   UNL d   1      48.234  36.200  53.583  0.00  0.00    -0.328 OA
ATOM     26  C   UNL d   1      47.698  36.709  53.934  0.00  0.00     0.181 C 
ENDBRANCH  20  25
ENDBRANCH  18  19
ENDBRANCH  17  18
ENDBRANCH   3  17
TORSDOF 7
ENDMDL
MODEL 2
REMARK VINA RESULT:      -8.4      0.736      6.263
REMARK  7 active torsions:
REMARK  status: ('A' for Active; 'I' for Inactive)
REMARK    1  A    between atoms: C_6  and  C_13 
REMARK       I    between atoms: N_12  and  C_6 
REMARK    2  A    between atoms: O_8  and  C_7 
REMARK    3  A    between atoms: C_13  and  O_8 
REMARK    4  A    between atoms: O_14  and  C_10 
REMARK    5  A    between atoms: C_11  and  C_20 
REMARK    6  A    between atoms: C_15  and  N_12 
REMARK    7  A    between atoms: C_20  and  C_15 
ROOT
ATOM      1  C   UNL d   1      50.766  34.378  52.849  0.00  0.00     0.304 C 
ATOM      2  O   UNL d   1      51.060  35.010  53.297  0.00  0.00    -0.263 OA
ATOM      3  N   UNL d   1      51.171  33.665  52.805  0.00  0.00    -0.205 NA
ENDROOT
BRANCH   1   4
ATOM      4  C   UNL d   1      50.054  34.469  52.440  0.00  0.00     0.185 C 
BRANCH   4   5
ATOM      5  O   UNL d   1      49.471  34.967  52.739  0.00  0.00    -0.298 OA
BRANCH   5   6
ATOM      6  C   UNL d   1      48.806  35.131  52.290  0.00  0.00     0.122 A 
ATOM      7  C   UNL d   1      48.199  35.594  52.604  0.00  0.00     0.117 A 
ATOM      8  O   UNL d   1      48.113  35.961  53.345  0.00  0.00    -0.330 OA
ATOM      9  C   UNL d   1      47.529  35.759  52.151  0.00  0.00     0.022 A 
ATOM     10  C   UNL d   1      47.382  36.355  53.346  0.00  0.00     0.117 A 
ATOM     11  C   UNL d   1      46.657  36.709  53.263  0.00  0.00     0.035 C 
ATOM     12  C   UNL d   1      47.638  36.544  54.103  0.00  0.00     0.035 C 
ATOM     13  C   UNL d   1      47.025  36.229  52.610  0.00  0.00     0.003 A 
ATOM     14  C   UNL d   1      47.468  35.461  51.386  0.00  0.00     0.002 A 
ATOM     15  C   UNL d   1      48.066  35.006  51.079  0.00  0.00     0.002 A 
ATOM     16  C   UNL d   1      48.737  34.840  51.532  0.00  0.00     0.027 A 
ENDBRANCH   5   6
ENDBRANCH   4   5
ENDBRANCH   1   4
BRANCH   3  17
ATOM     17  C   UNL d   1      51.876  33.575  53.210  0.00  0.00     0.102 C 
BRANCH  17  18
ATOM     18  C   UNL d   1      52.314  32.875  53.143  0.00  0.00     0.023 C 
BRANCH  18  19
ATOM     19  C   UNL d   1      52.995  32.765  53.585  0.00  0.00     0.024 A 
ATOM     20  C   UNL d   1      53.353  32.023  53.615  0.00  0.00     0.094 A 
ATOM     21  C   UNL d   1      54.040  31.925  54.065  0.00  0.00     0.024 A 
ATOM     22  C   UNL d   1      54.369  32.557  54.481  0.00  0.00     0.002 A 
ATOM     23  C   UNL d   1      54.017  33.295  54.455  0.00  0.00     0.000 A 
ATOM     24  C   UNL d   1      53.334  33.408  54.012  0.00  0.00     0.002 A 
BRANCH  20  25
ATOM     25  O   UNL d   1      53.032  31.398  53.206  0.00  0.00    -0.328 OA
ATOM     26  C   UNL d   1      53.319  30.642  53.327  0.00  0.00     0.181 C 
ENDBRANCH  20  25
ENDBRANCH  18  19
ENDBRANCH  17  18
ENDBRANCH   3  17
TORSDOF 7
ENDMDL
