MODEL 1
REMARK VINA RESULT:      -2.6      0.000      0.000
REMARK  4 active torsions:
REMARK  status: ('A' for Active; 'I' for Inactive)
REMARK    1  A    between atoms: C_3  and  N_1 
REMARK    2  A    between atoms: C_6  and  C_3 
REMARK    3  A    between atoms: C_9  and  C_3 
REMARK    4  A    between atoms: N_5  and  C_6 
ROOT
ATOM      1  C   UNL d   1     -42.298-123.098 -49.927  0.00  0.00     0.106 C 
ENDROOT
BRANCH   1   2
ATOM      2  N   UNL d   1     -41.895-122.630 -50.491  0.00  0.00    -0.228 N 
ATOM      3  N   UNL d   1     -41.842-121.809 -50.599  0.00  0.00    -0.165 NA
ATOM      4  C   UNL d   1     -41.366-121.689 -51.246  0.00  0.00     0.103 A 
ATOM      5  C   UNL d   1     -41.154-120.937 -51.566  0.00  0.00     0.022 C 
ATOM      6  C   UNL d   1     -41.123-122.398 -51.541  0.00  0.00     0.040 A 
ATOM      7  C   UNL d   1     -41.446-122.994 -51.079  0.00  0.00     0.085 A 
ATOM      8  C   UNL d   1     -41.347-123.817 -51.177  0.00  0.00     0.021 C 
ENDBRANCH   1   2
BRANCH   1   9
ATOM      9  C   UNL d   1     -42.987-123.497 -50.143  0.00  0.00     0.167 C 
BRANCH   9  10
ATOM     10  N   UNL d   1     -43.727-123.204 -49.922  0.00  0.00    -0.111 N 
ATOM     11  O   UNL d   1     -43.945-122.432 -50.114  0.00  0.00    -0.532 OA
ATOM     12  O   UNL d   1     -44.258-123.694 -49.501  0.00  0.00    -0.532 OA
ENDBRANCH   9  10
ENDBRANCH   1   9
BRANCH   1  13
ATOM     13  C   UNL d   1     -41.996-123.163 -49.126  0.00  0.00     0.019 A 
ATOM     14  C   UNL d   1     -41.470-123.760 -48.932  0.00  0.00     0.002 A 
ATOM     15  C   UNL d   1     -41.183-123.817 -48.161  0.00  0.00     0.000 A 
ATOM     16  C   UNL d   1     -41.422-123.279 -47.583  0.00  0.00     0.000 A 
ATOM     17  C   UNL d   1     -41.948-122.682 -47.777  0.00  0.00     0.000 A 
ATOM     18  C   UNL d   1     -41.124-123.343 -46.792  0.00  0.00     0.000 C 
ATOM     19  C   UNL d   1     -42.235-122.625 -48.549  0.00  0.00     0.002 A 
ENDBRANCH   1  13
TORSDOF 4
ENDMDL
MODEL 2
REMARK VINA RESULT:       0.2      1.468      3.630
REMARK  4 active torsions:
REMARK  status: ('A' for Active; 'I' for Inactive)
REMARK    1  A    between atoms: C_3  and  N_1 
REMARK    2  A    between atoms: C_6  and  C_3 
REMARK    3  A    between atoms: C_9  and  C_3 
REMARK    4  A    between atoms: N_5  and  C_6 
ROOT
ATOM      1  C   UNL d   1     -41.746-122.673 -50.646  0.00  0.00     0.106 C 
ENDROOT
BRANCH   1   2
ATOM      2  N   UNL d   1     -42.281-123.067 -50.139  0.00  0.00    -0.228 N 
ATOM      3  N   UNL d   1     -43.108-123.130 -50.141  0.00  0.00    -0.165 NA
ATOM      4  C   UNL d   1     -43.309-123.589 -49.501  0.00  0.00     0.103 A 
ATOM      5  C   UNL d   1     -44.095-123.803 -49.280  0.00  0.00     0.022 C 
ATOM      6  C   UNL d   1     -42.644-123.811 -49.106  0.00  0.00     0.040 A 
ATOM      7  C   UNL d   1     -41.994-123.492 -49.493  0.00  0.00     0.085 A 
ATOM      8  C   UNL d   1     -41.192-123.575 -49.281  0.00  0.00     0.021 C 
ENDBRANCH   1   2
BRANCH   1   9
ATOM      9  C   UNL d   1     -41.293-122.046 -50.358  0.00  0.00     0.167 C 
BRANCH   9  10
ATOM     10  N   UNL d   1     -41.531-121.266 -50.485  0.00  0.00    -0.111 N 
ATOM     11  O   UNL d   1     -42.160-120.946 -50.058  0.00  0.00    -0.532 OA
ATOM     12  O   UNL d   1     -41.132-120.797 -51.051  0.00  0.00    -0.532 OA
ENDBRANCH   9  10
ENDBRANCH   1   9
BRANCH   1  13
ATOM     13  C   UNL d   1     -41.667-122.920 -51.464  0.00  0.00     0.019 A 
ATOM     14  C   UNL d   1     -42.051-122.507 -52.058  0.00  0.00     0.002 A 
ATOM     15  C   UNL d   1     -41.972-122.749 -52.842  0.00  0.00     0.000 A 
ATOM     16  C   UNL d   1     -41.508-123.404 -53.034  0.00  0.00     0.000 A 
ATOM     17  C   UNL d   1     -41.123-123.817 -52.441  0.00  0.00     0.000 A 
ATOM     18  C   UNL d   1     -41.430-123.648 -53.842  0.00  0.00     0.000 C 
ATOM     19  C   UNL d   1     -41.203-123.575 -51.656  0.00  0.00     0.002 A 
ENDBRANCH   1  13
TORSDOF 4
ENDMDL
