MODEL 1
REMARK VINA RESULT:      25.8      0.000      0.000
REMARK  6 active torsions:
REMARK  status: ('A' for Active; 'I' for Inactive)
REMARK    1  A    between atoms: C_7  and  C_1 
REMARK    2  A    between atoms: N_6  and  C_3 
REMARK    3  A    between atoms: N_8  and  N_6 
REMARK    4  A    between atoms: O_12  and  C_7 
REMARK    5  A    between atoms: C_9  and  N_8 
REMARK    6  A    between atoms: C_18  and  O_12 
ROOT
ATOM      1  C   UNL d   1     -58.409 -98.790 -44.654  0.00  0.00     0.084 A 
ATOM      2  N   UNL d   1     -57.726 -98.787 -45.752  0.00  0.00    -0.225 NA
ATOM      3  C   UNL d   1     -57.185 -98.773 -45.136  0.00  0.00     0.184 A 
ATOM      4  C   UNL d   1     -58.492 -98.797 -45.445  0.00  0.00     0.088 A 
ATOM      5  C   UNL d   1     -57.627 -98.775 -44.439  0.00  0.00     0.044 A 
ATOM      6  C   UNL d   1     -59.226 -98.813 -45.834  0.00  0.00     0.021 C 
ATOM      7  C   UNL d   1     -57.315 -98.764 -43.672  0.00  0.00     0.003 C 
ENDROOT
BRANCH   3   8
ATOM      8  N   UNL d   1     -56.375 -98.759 -45.107  0.00  0.00    -0.129 NA
BRANCH   8   9
ATOM      9  N   UNL d   1     -55.956 -99.031 -44.443  0.00  0.00    -0.147 NA
BRANCH   9  10
ATOM     10  C   UNL d   1     -55.533 -99.754 -44.438  0.00  0.00     0.103 A 
ATOM     11  C   UNL d   1     -55.178-100.033 -43.752  0.00  0.00     0.019 A 
ATOM     12  C   UNL d   1     -55.234 -99.576 -43.007  0.00  0.00     0.002 C 
ATOM     13  C   UNL d   1     -54.766-100.736 -43.747  0.00  0.00     0.002 A 
ATOM     14  C   UNL d   1     -54.712-101.164 -44.438  0.00  0.00     0.000 A 
ATOM     15  C   UNL d   1     -55.048-100.919 -45.125  0.00  0.00     0.002 A 
ATOM     16  C   UNL d   1     -55.459-100.212 -45.119  0.00  0.00     0.021 A 
ENDBRANCH   9  10
ENDBRANCH   8   9
ENDBRANCH   3   8
BRANCH   1  17
ATOM     17  C   UNL d   1     -59.076 -98.797 -44.127  0.00  0.00     0.302 C 
ATOM     18  O   UNL d   1     -59.849 -98.842 -44.473  0.00  0.00    -0.259 OA
BRANCH  17  19
ATOM     19  O   UNL d   1     -58.967 -98.763 -43.320  0.00  0.00    -0.271 OA
BRANCH  19  20
ATOM     20  C   UNL d   1     -59.639 -98.803 -42.819  0.00  0.00     0.126 C 
ATOM     21  C   UNL d   1     -59.529 -98.768 -41.985  0.00  0.00     0.029 C 
ENDBRANCH  19  20
ENDBRANCH  17  19
ENDBRANCH   1  17
TORSDOF 6
ENDMDL
