MODEL 1
REMARK VINA RESULT:       1.1      0.000      0.000
REMARK  1 active torsions:
REMARK  status: ('A' for Active; 'I' for Inactive)
REMARK    1  A    between atoms: C_8  and  CA_5 
ROOT
ATOM      1  N   UNL d   1      23.890  11.822  -2.227  0.00  0.00    -0.224 NA
ATOM      2  C   UNL d   1      23.914  12.178  -1.490  0.00  0.00     0.162 A 
ATOM      3  N   UNL d   1      23.501  11.850  -0.864  0.00  0.00    -0.225 NA
ATOM      4  C   UNL d   1      24.354  12.868  -1.384  0.00  0.00     0.036 A 
ATOM      5  CA  UNL d   1      24.300  12.143  -2.863  0.00  0.00     0.125 A 
ATOM      6  C   UNL d   1      24.768  13.197  -2.015  0.00  0.00     0.005 A 
ATOM      7  C   UNL d   1      24.741  12.832  -2.756  0.00  0.00     0.023 A 
ATOM      8  C   UNL d   1      23.528  12.214  -0.123  0.00  0.00     0.101 A 
ATOM      9  C   UNL d   1      24.384  13.232  -0.651  0.00  0.00     0.005 A 
ATOM     10  C   UNL d   1      23.969  12.903  -0.017  0.00  0.00     0.021 A 
ENDROOT
BRANCH   5  11
ATOM     11  C   UNL d   1      24.276  11.786  -3.594  0.00  0.00     0.253 C 
ATOM     12  O   UNL d   1      24.750  12.072  -4.206  0.00  0.00    -0.281 OA
ENDBRANCH   5  11
TORSDOF 1
ENDMDL
MODEL 2
REMARK VINA RESULT:       4.0      9.960     10.440
REMARK  1 active torsions:
REMARK  status: ('A' for Active; 'I' for Inactive)
REMARK    1  A    between atoms: C_8  and  CA_5 
ROOT
ATOM      1  N   UNL d   1      14.262  11.780  -2.494  0.00  0.00    -0.224 NA
ATOM      2  C   UNL d   1      14.324  11.780  -1.679  0.00  0.00     0.162 A 
ATOM      3  N   UNL d   1      15.062  11.780  -1.325  0.00  0.00    -0.225 NA
ATOM      4  C   UNL d   1      13.640  11.780  -1.217  0.00  0.00     0.036 A 
ATOM      5  CA  UNL d   1      13.526  11.781  -2.861  0.00  0.00     0.125 A 
ATOM      6  C   UNL d   1      12.898  11.781  -1.574  0.00  0.00     0.005 A 
ATOM      7  C   UNL d   1      12.843  11.781  -2.399  0.00  0.00     0.023 A 
ATOM      8  C   UNL d   1      15.119  11.780  -0.501  0.00  0.00     0.101 A 
ATOM      9  C   UNL d   1      13.691  11.780  -0.400  0.00  0.00     0.005 A 
ATOM     10  C   UNL d   1      14.435  11.780  -0.039  0.00  0.00     0.021 A 
ENDROOT
BRANCH   5  11
ATOM     11  C   UNL d   1      13.467  11.781  -3.672  0.00  0.00     0.253 C 
ATOM     12  O   UNL d   1      13.057  12.386  -4.054  0.00  0.00    -0.281 OA
ENDBRANCH   5  11
TORSDOF 1
ENDMDL
