MODEL 1
REMARK VINA RESULT:      62.4      0.000      0.000
REMARK  6 active torsions:
REMARK  status: ('A' for Active; 'I' for Inactive)
REMARK    1  A    between atoms: C_13  and  N_1 
REMARK    2  A    between atoms: S_9  and  C_2 
REMARK    3  A    between atoms: C_10  and  C_7 
REMARK    4  A    between atoms: C_19  and  S_9 
REMARK    5  A    between atoms: O_23  and  C_10 
REMARK    6  A    between atoms: C_14  and  C_19 
ROOT
ATOM      1  N   UNL d   1     -54.835-101.091 -42.923  0.00  0.00    -0.254 N 
ATOM      2  C   UNL d   1     -54.786-100.425 -43.408  0.00  0.00     0.182 A 
ATOM      3  C   UNL d   1     -54.909-101.841 -43.260  0.00  0.00     0.274 A 
ATOM      4  C   UNL d   1     -54.933-101.922 -44.077  0.00  0.00     0.104 A 
ATOM      5  N   UNL d   1     -54.811-100.509 -44.228  0.00  0.00    -0.222 NA
ATOM      6  C   UNL d   1     -54.884-101.256 -44.561  0.00  0.00     0.095 A 
ATOM      7  S   UNL d   1     -55.002-102.582 -44.563  0.00  0.00    -0.080 SA
ATOM      8  O   UNL d   1     -54.958-102.507 -42.776  0.00  0.00    -0.266 OA
ATOM      9  C   UNL d   1     -54.923-101.506 -45.345  0.00  0.00     0.027 A 
ATOM     10  C   UNL d   1     -54.995-102.319 -45.348  0.00  0.00     0.037 A 
ENDROOT
BRANCH   2  11
ATOM     11  S   UNL d   1     -54.712 -99.666 -43.073  0.00  0.00    -0.047 SA
BRANCH  11  12
ATOM     12  C   UNL d   1     -54.904 -99.001 -43.521  0.00  0.00     0.063 C 
BRANCH  12  13
ATOM     13  C   UNL d   1     -55.632 -98.959 -43.907  0.00  0.00     0.107 A 
ATOM     14  O   UNL d   1     -56.409 -99.075 -43.641  0.00  0.00    -0.301 OA
ATOM     15  C   UNL d   1     -56.912 -98.959 -44.277  0.00  0.00     0.163 A 
ATOM     16  C   UNL d   1     -56.455 -98.771 -44.941  0.00  0.00     0.032 A 
ATOM     17  C   UNL d   1     -55.664 -98.772 -44.709  0.00  0.00     0.027 A 
BRANCH  15  18
ATOM     18  C   UNL d   1     -57.737 -99.016 -44.267  0.00  0.00     0.319 C 
ATOM     19  O   UNL d   1     -58.174 -98.909 -44.958  0.00  0.00    -0.257 OA
BRANCH  18  20
ATOM     20  O   UNL d   1     -58.121 -99.183 -43.557  0.00  0.00    -0.294 OA
ATOM     21  C   UNL d   1     -58.803 -98.766 -43.349  0.00  0.00     0.185 C 
ENDBRANCH  18  20
ENDBRANCH  15  18
ENDBRANCH  12  13
ENDBRANCH  11  12
ENDBRANCH   2  11
BRANCH   1  22
ATOM     22  C   UNL d   1     -54.811-101.013 -42.111  0.00  0.00     0.069 A 
ATOM     23  C   UNL d   1     -54.806-101.682 -41.628  0.00  0.00     0.018 A 
ATOM     24  C   UNL d   1     -54.781-101.597 -40.808  0.00  0.00     0.002 A 
ATOM     25  C   UNL d   1     -54.762-100.845 -40.470  0.00  0.00     0.000 A 
ATOM     26  C   UNL d   1     -54.768-100.176 -40.953  0.00  0.00     0.002 A 
ATOM     27  C   UNL d   1     -54.738-100.753 -39.639  0.00  0.00     0.000 C 
ATOM     28  C   UNL d   1     -54.792-100.260 -41.773  0.00  0.00     0.018 A 
ENDBRANCH   1  22
TORSDOF 6
ENDMDL
