MODEL 1
REMARK VINA RESULT:       2.7      0.000      0.000
REMARK  8 active torsions:
REMARK  status: ('A' for Active; 'I' for Inactive)
REMARK    1  A    between atoms: C_6  and  C_1 
REMARK    2  A    between atoms: S_11  and  C_3 
REMARK    3  A    between atoms: C_8  and  C_4 
REMARK       I    between atoms: N_10  and  C_6 
REMARK    4  A    between atoms: C_22  and  N_10 
REMARK    5  A    between atoms: C_21  and  S_11 
REMARK    6  A    between atoms: C_13  and  C_21 
REMARK    7  A    between atoms: O_20  and  C_13 
REMARK    8  A    between atoms: C_24  and  O_20 
ROOT
ATOM      1  C   UNL d   1      57.589  -0.267  31.499  0.00  0.00     0.078 A 
ATOM      2  C   UNL d   1      58.827   0.066  30.920  0.00  0.00     0.094 A 
ATOM      3  C   UNL d   1      58.553  -0.192  30.185  0.00  0.00     0.120 A 
ATOM      4  C   UNL d   1      58.348   0.031  31.582  0.00  0.00     0.041 A 
ATOM      5  C   UNL d   1      57.315  -0.525  30.765  0.00  0.00     0.087 A 
ATOM      6  N   UNL d   1      57.795  -0.489  30.102  0.00  0.00    -0.238 NA
ATOM      7  C   UNL d   1      59.623   0.374  30.985  0.00  0.00     0.103 C 
ATOM      8  N   UNL d   1      60.401   0.678  31.063  0.00  0.00    -0.191 NA
ATOM      9  C   UNL d   1      56.531  -0.836  30.668  0.00  0.00     0.021 C 
ENDROOT
BRANCH   4  10
ATOM     10  C   UNL d   1      58.615   0.282  32.297  0.00  0.00     0.101 A 
ATOM     11  O   UNL d   1      58.130   0.430  32.949  0.00  0.00    -0.305 OA
ATOM     12  C   UNL d   1      58.595   0.675  33.574  0.00  0.00     0.123 A 
ATOM     13  C   UNL d   1      59.354   0.677  33.309  0.00  0.00     0.029 A 
ATOM     14  C   UNL d   1      59.390   0.443  32.540  0.00  0.00     0.027 A 
ENDBRANCH   4  10
BRANCH   3  15
ATOM     15  S   UNL d   1      59.040  -0.160  29.494  0.00  0.00    -0.061 SA
BRANCH  15  16
ATOM     16  C   UNL d   1      58.960  -0.746  28.908  0.00  0.00     0.105 C 
BRANCH  16  17
ATOM     17  C   UNL d   1      59.546  -1.311  28.809  0.00  0.00     0.307 C 
ATOM     18  O   UNL d   1      60.316  -1.135  29.034  0.00  0.00    -0.258 OA
BRANCH  17  19
ATOM     19  O   UNL d   1      59.358  -2.051  28.485  0.00  0.00    -0.273 OA
BRANCH  19  20
ATOM     20  C   UNL d   1      59.824  -2.703  28.649  0.00  0.00     0.103 C 
ATOM     21  C   UNL d   1      60.628  -2.695  28.463  0.00  0.00     0.027 C 
ATOM     22  C   UNL d   1      59.480  -3.366  29.000  0.00  0.00     0.027 C 
ENDBRANCH  19  20
ENDBRANCH  17  19
ENDBRANCH  16  17
ENDBRANCH  15  16
ENDBRANCH   3  15
BRANCH   1  23
ATOM     23  C   UNL d   1      57.076  -0.312  32.177  0.00  0.00     0.281 C 
ATOM     24  N   UNL d   1      56.304  -0.044  32.121  0.00  0.00    -0.208 NA
ATOM     25  O   UNL d   1      57.364  -0.626  32.884  0.00  0.00    -0.265 OA
BRANCH  24  26
ATOM     26  C   UNL d   1      55.806  -0.091  32.792  0.00  0.00     0.085 A 
ATOM     27  C   UNL d   1      55.703  -0.812  33.180  0.00  0.00     0.019 A 
ATOM     28  C   UNL d   1      55.205  -0.842  33.846  0.00  0.00     0.002 A 
ATOM     29  C   UNL d   1      54.824  -0.163  34.107  0.00  0.00     0.000 A 
ATOM     30  C   UNL d   1      54.943   0.543  33.704  0.00  0.00     0.002 A 
ATOM     31  C   UNL d   1      55.426   0.584  33.055  0.00  0.00     0.019 A 
ENDBRANCH  24  26
ENDBRANCH   1  23
TORSDOF 8
ENDMDL
MODEL 2
REMARK VINA RESULT:       3.5      0.839      1.142
REMARK  8 active torsions:
REMARK  status: ('A' for Active; 'I' for Inactive)
REMARK    1  A    between atoms: C_6  and  C_1 
REMARK    2  A    between atoms: S_11  and  C_3 
REMARK    3  A    between atoms: C_8  and  C_4 
REMARK       I    between atoms: N_10  and  C_6 
REMARK    4  A    between atoms: C_22  and  N_10 
REMARK    5  A    between atoms: C_21  and  S_11 
REMARK    6  A    between atoms: C_13  and  C_21 
REMARK    7  A    between atoms: O_20  and  C_13 
REMARK    8  A    between atoms: C_24  and  O_20 
ROOT
ATOM      1  C   UNL d   1      56.940  -0.351  32.267  0.00  0.00     0.078 A 
ATOM      2  C   UNL d   1      58.241   0.038  31.899  0.00  0.00     0.094 A 
ATOM      3  C   UNL d   1      58.091  -0.195  31.122  0.00  0.00     0.120 A 
ATOM      4  C   UNL d   1      57.668  -0.038  32.478  0.00  0.00     0.041 A 
ATOM      5  C   UNL d   1      56.790  -0.584  31.490  0.00  0.00     0.087 A 
ATOM      6  N   UNL d   1      57.364  -0.507  30.911  0.00  0.00    -0.238 NA
ATOM      7  C   UNL d   1      59.007   0.362  32.098  0.00  0.00     0.103 C 
ATOM      8  N   UNL d   1      59.755   0.682  32.307  0.00  0.00    -0.191 NA
ATOM      9  C   UNL d   1      56.039  -0.909  31.261  0.00  0.00     0.021 C 
ENDROOT
BRANCH   4  10
ATOM     10  C   UNL d   1      57.814   0.188  33.235  0.00  0.00     0.101 A 
ATOM     11  O   UNL d   1      58.529   0.064  33.627  0.00  0.00    -0.305 OA
ATOM     12  C   UNL d   1      58.472   0.367  34.383  0.00  0.00     0.123 A 
ATOM     13  C   UNL d   1      57.732   0.673  34.453  0.00  0.00     0.029 A 
ATOM     14  C   UNL d   1      57.317   0.576  33.771  0.00  0.00     0.027 A 
ENDBRANCH   4  10
BRANCH   3  15
ATOM     15  S   UNL d   1      58.676  -0.121  30.515  0.00  0.00    -0.061 SA
BRANCH  15  16
ATOM     16  C   UNL d   1      58.522  -0.427  29.756  0.00  0.00     0.105 C 
BRANCH  16  17
ATOM     17  C   UNL d   1      59.140  -0.693  29.286  0.00  0.00     0.307 C 
ATOM     18  O   UNL d   1      59.814  -0.231  29.210  0.00  0.00    -0.258 OA
BRANCH  17  19
ATOM     19  O   UNL d   1      59.078  -1.421  28.895  0.00  0.00    -0.273 OA
BRANCH  19  20
ATOM     20  C   UNL d   1      59.743  -1.882  28.775  0.00  0.00     0.103 C 
ATOM     21  C   UNL d   1      60.495  -1.561  28.885  0.00  0.00     0.027 C 
ATOM     22  C   UNL d   1      59.652  -2.669  28.544  0.00  0.00     0.027 C 
ENDBRANCH  19  20
ENDBRANCH  17  19
ENDBRANCH  16  17
ENDBRANCH  15  16
ENDBRANCH   3  15
BRANCH   1  23
ATOM     23  C   UNL d   1      56.331  -0.438  32.856  0.00  0.00     0.281 C 
ATOM     24  N   UNL d   1      55.730   0.116  32.903  0.00  0.00    -0.208 NA
ATOM     25  O   UNL d   1      56.355  -1.080  33.373  0.00  0.00    -0.265 OA
BRANCH  24  26
ATOM     26  C   UNL d   1      55.135   0.024  33.484  0.00  0.00     0.085 A 
ATOM     27  C   UNL d   1      54.818  -0.723  33.637  0.00  0.00     0.019 A 
ATOM     28  C   UNL d   1      54.227  -0.797  34.218  0.00  0.00     0.002 A 
ATOM     29  C   UNL d   1      53.968  -0.136  34.630  0.00  0.00     0.000 A 
ATOM     30  C   UNL d   1      54.299   0.597  34.460  0.00  0.00     0.002 A 
ATOM     31  C   UNL d   1      54.874   0.682  33.897  0.00  0.00     0.019 A 
ENDBRANCH  24  26
ENDBRANCH   1  23
TORSDOF 8
ENDMDL
