MODEL 1
REMARK VINA RESULT:      26.0      0.000      0.000
REMARK  3 active torsions:
REMARK  status: ('A' for Active; 'I' for Inactive)
REMARK    1  A    between atoms: C_2  and  N_1 
REMARK    2  A    between atoms: N_6  and  C_5 
REMARK    3  A    between atoms: C_12  and  N_6 
ROOT
ATOM      1  C   UNL d   1      57.341  49.532  50.415  0.00  0.00     0.128 A 
ATOM      2  C   UNL d   1      57.684  49.564  49.666  0.00  0.00     0.046 A 
ATOM      3  C   UNL d   1      58.505  49.622  49.591  0.00  0.00     0.122 A 
ATOM      4  C   UNL d   1      58.979  49.649  50.264  0.00  0.00     0.101 A 
ATOM      5  C   UNL d   1      57.815  49.559  51.088  0.00  0.00     0.025 A 
ATOM      6  C   UNL d   1      58.632  49.617  51.010  0.00  0.00     0.022 A 
ATOM      7  N   UNL d   1      58.848  49.654  48.842  0.00  0.00    -0.146 N 
ENDROOT
BRANCH   4   8
ATOM      8  N   UNL d   1      59.796  49.707  50.185  0.00  0.00    -0.244 NA
BRANCH   8   9
ATOM      9  C   UNL d   1      60.287  49.325  50.727  0.00  0.00     0.081 A 
ATOM     10  C   UNL d   1      60.507  49.706  51.425  0.00  0.00     0.019 A 
ATOM     11  C   UNL d   1      60.998  49.325  51.966  0.00  0.00     0.002 A 
ATOM     12  C   UNL d   1      61.270  48.561  51.810  0.00  0.00     0.000 A 
ATOM     13  C   UNL d   1      61.050  48.180  51.112  0.00  0.00     0.002 A 
ATOM     14  C   UNL d   1      60.559  48.562  50.571  0.00  0.00     0.019 A 
ENDBRANCH   8   9
ENDBRANCH   4   8
BRANCH   1  15
ATOM     15  N   UNL d   1      56.521  49.474  50.489  0.00  0.00    -0.114 N 
ATOM     16  O   UNL d   1      56.063  49.258  49.838  0.00  0.00    -0.532 OA
ATOM     17  O   UNL d   1      56.160  49.631  51.214  0.00  0.00    -0.532 OA
ENDBRANCH   1  15
TORSDOF 3
ENDMDL
