MODEL 1
REMARK VINA RESULT:      36.8      0.000      0.000
REMARK  5 active torsions:
REMARK  status: ('A' for Active; 'I' for Inactive)
REMARK    1  A    between atoms: N_7  and  C_1 
REMARK    2  A    between atoms: C_4  and  C_3 
REMARK       I    between atoms: C_8  and  N_7 
REMARK    3  A    between atoms: C_15  and  C_8 
REMARK    4  A    between atoms: O_20  and  C_15 
REMARK    5  A    between atoms: C_22  and  O_20 
ROOT
ATOM      1  C   UNL d   1      45.902 -18.211  40.424  0.00  0.00     0.204 A 
ATOM      2  S   UNL d   1      46.274 -18.132  41.152  0.00  0.00    -0.031 SA
ATOM      3  C   UNL d   1      46.031 -18.767  41.636  0.00  0.00     0.119 A 
ATOM      4  N   UNL d   1      45.427 -18.889  40.444  0.00  0.00    -0.123 NA
ATOM      5  N   UNL d   1      45.518 -19.219  41.196  0.00  0.00    -0.143 NA
ENDROOT
BRANCH   1   6
ATOM      6  N   UNL d   1      45.950 -17.734  39.750  0.00  0.00    -0.248 N 
ATOM      7  C   UNL d   1      45.242 -17.289  39.522  0.00  0.00     0.291 C 
ATOM      8  O   UNL d   1      44.532 -17.357  39.993  0.00  0.00    -0.264 OA
ATOM      9  C   UNL d   1      46.636 -17.685  39.318  0.00  0.00     0.104 C 
BRANCH   7  10
ATOM     10  C   UNL d   1      45.260 -16.803  38.854  0.00  0.00     0.184 C 
BRANCH  10  11
ATOM     11  O   UNL d   1      44.548 -16.676  38.431  0.00  0.00    -0.300 OA
BRANCH  11  12
ATOM     12  C   UNL d   1      44.607 -16.226  37.732  0.00  0.00     0.100 A 
ATOM     13  C   UNL d   1      44.331 -16.484  36.999  0.00  0.00     0.025 A 
ATOM     14  C   UNL d   1      44.400 -16.025  36.330  0.00  0.00     0.002 A 
ATOM     15  C   UNL d   1      44.757 -15.266  36.350  0.00  0.00     0.000 A 
ATOM     16  C   UNL d   1      45.047 -14.989  37.105  0.00  0.00     0.002 A 
ATOM     17  C   UNL d   1      44.970 -15.475  37.800  0.00  0.00     0.025 A 
ENDBRANCH  11  12
ENDBRANCH  10  11
ENDBRANCH   7  10
ENDBRANCH   1   6
BRANCH   3  18
ATOM     18  C   UNL d   1      46.225 -18.967  42.413  0.00  0.00     0.081 A 
ATOM     19  C   UNL d   1      46.340 -18.669  43.154  0.00  0.00    -0.017 A 
ATOM     20  C   UNL d   1      46.535 -19.161  43.732  0.00  0.00    -0.008 A 
ATOM     21  C   UNL d   1      46.646 -18.820  44.483  0.00  0.00    -0.001 A 
ATOM     22  C   UNL d   1      46.583 -19.917  43.444  0.00  0.00    -0.022 A 
ATOM     23  C   UNL d   1      46.581 -19.316  43.844  0.00  0.00    -0.008 A 
ATOM     24  C   UNL d   1      46.388 -18.929  43.200  0.00  0.00    -0.017 A 
ATOM     25  C   UNL d   1      46.645 -20.236  43.519  0.00  0.00    -0.022 A 
ATOM     26  C   UNL d   1      46.487 -20.328  42.715  0.00  0.00     0.045 A 
ATOM     27  C   UNL d   1      46.287 -19.748  42.172  0.00  0.00     0.023 A 
ENDBRANCH   3  18
TORSDOF 5
ENDMDL
