MODEL 1
REMARK VINA RESULT:      -8.8      0.000      0.000
REMARK  3 active torsions:
REMARK  status: ('A' for Active; 'I' for Inactive)
REMARK    1  A    between atoms: C_7  and  C_1 
REMARK    2  A    between atoms: C_10  and  N_2 
REMARK    3  A    between atoms: C_14  and  C_7 
ROOT
ATOM      1  C   UNL d   1     -49.107  12.663  23.013  0.00  0.00     0.155 A 
ATOM      2  N   UNL d   1     -48.583  13.303  22.938  0.00  0.00    -0.277 N 
ATOM      3  C   UNL d   1     -47.782  13.173  23.023  0.00  0.00     0.153 A 
ATOM      4  C   UNL d   1     -47.497  12.410  23.182  0.00  0.00     0.092 A 
ATOM      5  N   UNL d   1     -48.822  11.903  23.172  0.00  0.00    -0.190 NA
ATOM      6  C   UNL d   1     -48.017  11.790  23.254  0.00  0.00     0.283 A 
ATOM      7  N   UNL d   1     -47.248  13.813  22.948  0.00  0.00    -0.228 NA
ATOM      8  C   UNL d   1     -46.679  12.293  23.265  0.00  0.00     0.009 A 
ATOM      9  O   UNL d   1     -47.725  11.029  23.413  0.00  0.00    -0.265 OA
ATOM     10  C   UNL d   1     -46.165  12.925  23.190  0.00  0.00     0.019 A 
ATOM     11  C   UNL d   1     -46.446  13.675  23.034  0.00  0.00     0.083 A 
ATOM     12  C   UNL d   1     -46.395  11.534  23.423  0.00  0.00     0.000 C 
ATOM     13  C   UNL d   1     -45.913  14.307  22.961  0.00  0.00     0.021 C 
ENDROOT
BRANCH   2  14
ATOM     14  C   UNL d   1     -48.864  14.056  22.781  0.00  0.00     0.067 A 
ATOM     15  C   UNL d   1     -49.104  14.535  23.392  0.00  0.00     0.018 A 
ATOM     16  C   UNL d   1     -49.389  15.296  23.233  0.00  0.00     0.002 A 
ATOM     17  C   UNL d   1     -49.432  15.574  22.465  0.00  0.00     0.000 A 
ATOM     18  C   UNL d   1     -49.185  15.075  21.844  0.00  0.00     0.002 A 
ATOM     19  C   UNL d   1     -48.902  14.321  22.001  0.00  0.00     0.018 A 
ENDBRANCH   2  14
BRANCH   1  20
ATOM     20  C   UNL d   1     -49.915  12.788  22.929  0.00  0.00     0.080 C 
BRANCH  20  21
ATOM     21  C   UNL d   1     -50.471  12.180  22.884  0.00  0.00     0.199 C 
ATOM     22  O   UNL d   1     -50.565  11.822  22.066  0.00  0.00    -0.286 OA
ATOM     23  C   UNL d   1     -51.059  11.809  23.698  0.00  0.00     0.045 C 
ENDBRANCH  20  21
ENDBRANCH   1  20
TORSDOF 3
ENDMDL
MODEL 2
REMARK VINA RESULT:      -8.3      1.027      2.849
REMARK  3 active torsions:
REMARK  status: ('A' for Active; 'I' for Inactive)
REMARK    1  A    between atoms: C_7  and  C_1 
REMARK    2  A    between atoms: C_10  and  N_2 
REMARK    3  A    between atoms: C_14  and  C_7 
ROOT
ATOM      1  C   UNL d   1     -47.578  13.269  23.001  0.00  0.00     0.155 A 
ATOM      2  N   UNL d   1     -48.396  13.410  22.973  0.00  0.00    -0.277 N 
ATOM      3  C   UNL d   1     -48.910  12.799  23.140  0.00  0.00     0.153 A 
ATOM      4  C   UNL d   1     -48.617  12.048  23.336  0.00  0.00     0.092 A 
ATOM      5  N   UNL d   1     -47.286  12.521  23.196  0.00  0.00    -0.190 NA
ATOM      6  C   UNL d   1     -47.815  11.919  23.361  0.00  0.00     0.283 A 
ATOM      7  N   UNL d   1     -49.736  12.933  23.114  0.00  0.00    -0.228 NA
ATOM      8  C   UNL d   1     -49.152  11.435  23.504  0.00  0.00     0.009 A 
ATOM      9  O   UNL d   1     -47.529  11.166  23.557  0.00  0.00    -0.265 OA
ATOM     10  C   UNL d   1     -49.958  11.576  23.475  0.00  0.00     0.019 A 
ATOM     11  C   UNL d   1     -50.246  12.315  23.283  0.00  0.00     0.083 A 
ATOM     12  C   UNL d   1     -48.861  10.688  23.698  0.00  0.00     0.000 C 
ATOM     13  C   UNL d   1     -51.064  12.443  23.257  0.00  0.00     0.021 C 
ENDROOT
BRANCH   2  14
ATOM     14  C   UNL d   1     -48.685  14.151  22.780  0.00  0.00     0.067 A 
ATOM     15  C   UNL d   1     -48.864  14.683  23.368  0.00  0.00     0.018 A 
ATOM     16  C   UNL d   1     -49.156  15.433  23.173  0.00  0.00     0.002 A 
ATOM     17  C   UNL d   1     -49.268  15.646  22.391  0.00  0.00     0.000 A 
ATOM     18  C   UNL d   1     -49.083  15.095  21.793  0.00  0.00     0.002 A 
ATOM     19  C   UNL d   1     -48.793  14.351  21.987  0.00  0.00     0.018 A 
ENDBRANCH   2  14
BRANCH   1  20
ATOM     20  C   UNL d   1     -47.055  13.881  22.834  0.00  0.00     0.080 C 
BRANCH  20  21
ATOM     21  C   UNL d   1     -46.235  13.798  22.837  0.00  0.00     0.199 C 
ATOM     22  O   UNL d   1     -45.842  14.005  23.617  0.00  0.00    -0.286 OA
ATOM     23  C   UNL d   1     -45.636  13.473  22.011  0.00  0.00     0.045 C 
ENDBRANCH  20  21
ENDBRANCH   1  20
TORSDOF 3
ENDMDL
MODEL 3
REMARK VINA RESULT:      -7.2      1.090      2.806
REMARK  3 active torsions:
REMARK  status: ('A' for Active; 'I' for Inactive)
REMARK    1  A    between atoms: C_7  and  C_1 
REMARK    2  A    between atoms: C_10  and  N_2 
REMARK    3  A    between atoms: C_14  and  C_7 
ROOT
ATOM      1  C   UNL d   1     -47.989  12.574  22.893  0.00  0.00     0.155 A 
ATOM      2  N   UNL d   1     -48.654  13.071  22.851  0.00  0.00    -0.277 N 
ATOM      3  C   UNL d   1     -48.545  13.872  22.752  0.00  0.00     0.153 A 
ATOM      4  C   UNL d   1     -47.779  14.186  22.694  0.00  0.00     0.092 A 
ATOM      5  N   UNL d   1     -47.227  12.887  22.835  0.00  0.00    -0.190 NA
ATOM      6  C   UNL d   1     -47.135  13.693  22.736  0.00  0.00     0.283 A 
ATOM      7  N   UNL d   1     -49.210  14.379  22.709  0.00  0.00    -0.228 NA
ATOM      8  C   UNL d   1     -47.684  15.005  22.592  0.00  0.00     0.009 A 
ATOM      9  O   UNL d   1     -46.372  14.014  22.677  0.00  0.00    -0.265 OA
ATOM     10  C   UNL d   1     -48.340  15.492  22.551  0.00  0.00     0.019 A 
ATOM     11  C   UNL d   1     -49.094  15.183  22.609  0.00  0.00     0.083 A 
ATOM     12  C   UNL d   1     -46.922  15.317  22.534  0.00  0.00     0.000 C 
ATOM     13  C   UNL d   1     -49.749  15.688  22.566  0.00  0.00     0.021 C 
ENDROOT
BRANCH   2  14
ATOM     14  C   UNL d   1     -49.410  12.761  22.909  0.00  0.00     0.067 A 
ATOM     15  C   UNL d   1     -49.744  12.637  23.640  0.00  0.00     0.018 A 
ATOM     16  C   UNL d   1     -50.508  12.324  23.698  0.00  0.00     0.002 A 
ATOM     17  C   UNL d   1     -50.934  12.136  23.025  0.00  0.00     0.000 A 
ATOM     18  C   UNL d   1     -50.585  12.266  22.279  0.00  0.00     0.002 A 
ATOM     19  C   UNL d   1     -49.827  12.577  22.221  0.00  0.00     0.018 A 
ENDBRANCH   2  14
BRANCH   1  20
ATOM     20  C   UNL d   1     -48.093  11.765  22.994  0.00  0.00     0.080 C 
BRANCH  20  21
ATOM     21  C   UNL d   1     -47.479  11.216  22.955  0.00  0.00     0.199 C 
ATOM     22  O   UNL d   1     -47.477  10.711  22.213  0.00  0.00    -0.286 OA
ATOM     23  C   UNL d   1     -46.721  11.072  23.698  0.00  0.00     0.045 C 
ENDBRANCH  20  21
ENDBRANCH   1  20
TORSDOF 3
ENDMDL
