MODEL 1
REMARK VINA RESULT:     -10.8      0.000      0.000
REMARK  3 active torsions:
REMARK  status: ('A' for Active; 'I' for Inactive)
REMARK       I    between atoms: C_4  and  N_1 
REMARK    1  A    between atoms: C_7  and  C_3 
REMARK    2  A    between atoms: C_9  and  C_4 
REMARK    3  A    between atoms: C_8  and  C_5 
ROOT
ATOM      1  N   UNL d   1      53.156  32.454  53.623  0.00  0.00    -0.191 N 
ATOM      2  N   UNL d   1      52.451  32.579  53.229  0.00  0.00    -0.163 NA
ATOM      3  C   UNL d   1      53.395  33.205  53.925  0.00  0.00     0.110 A 
ATOM      4  C   UNL d   1      53.553  31.754  53.712  0.00  0.00     0.303 C 
ATOM      5  C   UNL d   1      52.246  33.376  53.277  0.00  0.00     0.103 A 
ATOM      6  C   UNL d   1      52.821  33.757  53.700  0.00  0.00     0.042 A 
ATOM      7  O   UNL d   1      54.299  31.749  54.156  0.00  0.00    -0.263 OA
ENDROOT
BRANCH   3   8
ATOM      8  C   UNL d   1      54.077  33.354  54.364  0.00  0.00     0.118 A 
ATOM      9  O   UNL d   1      54.819  33.470  54.054  0.00  0.00    -0.304 OA
ATOM     10  C   UNL d   1      55.347  33.603  54.689  0.00  0.00     0.123 A 
ATOM     11  C   UNL d   1      54.908  33.565  55.386  0.00  0.00     0.029 A 
ATOM     12  C   UNL d   1      54.115  33.409  55.171  0.00  0.00     0.028 A 
ENDBRANCH   3   8
BRANCH   4  13
ATOM     13  C   UNL d   1      53.278  31.052  53.399  0.00  0.00     0.158 A 
ATOM     14  O   UNL d   1      53.159  30.880  52.604  0.00  0.00    -0.300 OA
ATOM     15  C   UNL d   1      52.878  30.113  52.535  0.00  0.00     0.123 A 
ATOM     16  C   UNL d   1      52.821  29.799  53.292  0.00  0.00     0.029 A 
ATOM     17  C   UNL d   1      53.067  30.377  53.833  0.00  0.00     0.032 A 
ENDBRANCH   4  13
BRANCH   5  18
ATOM     18  C   UNL d   1      51.560  33.705  52.937  0.00  0.00     0.019 A 
ATOM     19  C   UNL d   1      50.882  33.687  53.363  0.00  0.00     0.002 A 
ATOM     20  C   UNL d   1      50.185  34.003  53.058  0.00  0.00     0.007 A 
ATOM     21  C   UNL d   1      50.191  34.337  52.313  0.00  0.00     0.035 A 
ATOM     22  C   UNL d   1      50.886  34.365  51.855  0.00  0.00     0.007 A 
ATOM     23 BR   UNL d   1      49.490  34.651  52.013  0.00  0.00    -0.049 Br
ATOM     24  C   UNL d   1      51.593  34.034  52.186  0.00  0.00     0.002 A 
ENDBRANCH   5  18
TORSDOF 3
ENDMDL
MODEL 2
REMARK VINA RESULT:     -10.0      0.642      2.637
REMARK  3 active torsions:
REMARK  status: ('A' for Active; 'I' for Inactive)
REMARK       I    between atoms: C_4  and  N_1 
REMARK    1  A    between atoms: C_7  and  C_3 
REMARK    2  A    between atoms: C_9  and  C_4 
REMARK    3  A    between atoms: C_8  and  C_5 
ROOT
ATOM      1  N   UNL d   1      53.204  32.207  53.701  0.00  0.00    -0.191 N 
ATOM      2  N   UNL d   1      52.781  32.898  53.594  0.00  0.00    -0.163 NA
ATOM      3  C   UNL d   1      52.746  31.592  53.347  0.00  0.00     0.110 A 
ATOM      4  C   UNL d   1      53.918  32.120  54.071  0.00  0.00     0.303 C 
ATOM      5  C   UNL d   1      52.082  32.734  53.188  0.00  0.00     0.103 A 
ATOM      6  C   UNL d   1      52.062  31.938  53.039  0.00  0.00     0.042 A 
ATOM      7  O   UNL d   1      54.270  31.327  54.122  0.00  0.00    -0.263 OA
ENDROOT
BRANCH   3   8
ATOM      8  C   UNL d   1      52.951  30.794  53.318  0.00  0.00     0.118 A 
ATOM      9  O   UNL d   1      52.863  30.264  53.928  0.00  0.00    -0.304 OA
ATOM     10  C   UNL d   1      53.138  29.518  53.665  0.00  0.00     0.123 A 
ATOM     11  C   UNL d   1      53.393  29.612  52.885  0.00  0.00     0.029 A 
ATOM     12  C   UNL d   1      53.271  30.414  52.679  0.00  0.00     0.028 A 
ENDBRANCH   3   8
BRANCH   4  13
ATOM     13  C   UNL d   1      54.322  32.749  54.398  0.00  0.00     0.158 A 
ATOM     14  O   UNL d   1      54.846  33.253  54.014  0.00  0.00    -0.300 OA
ATOM     15  C   UNL d   1      55.126  33.808  54.548  0.00  0.00     0.123 A 
ATOM     16  C   UNL d   1      54.775  33.653  55.275  0.00  0.00     0.029 A 
ATOM     17  C   UNL d   1      54.275  32.997  55.189  0.00  0.00     0.032 A 
ENDBRANCH   4  13
BRANCH   5  18
ATOM     18  C   UNL d   1      51.513  33.307  52.982  0.00  0.00     0.019 A 
ATOM     19  C   UNL d   1      50.831  33.329  53.401  0.00  0.00     0.002 A 
ATOM     20  C   UNL d   1      50.247  33.883  53.224  0.00  0.00     0.007 A 
ATOM     21  C   UNL d   1      50.371  34.412  52.615  0.00  0.00     0.035 A 
ATOM     22  C   UNL d   1      51.074  34.405  52.168  0.00  0.00     0.007 A 
ATOM     23 BR   UNL d   1      49.783  34.964  52.442  0.00  0.00    -0.049 Br
ATOM     24  C   UNL d   1      51.663  33.827  52.366  0.00  0.00     0.002 A 
ENDBRANCH   5  18
TORSDOF 3
ENDMDL
MODEL 3
REMARK VINA RESULT:      -9.0      1.836      4.040
REMARK  3 active torsions:
REMARK  status: ('A' for Active; 'I' for Inactive)
REMARK       I    between atoms: C_4  and  N_1 
REMARK    1  A    between atoms: C_7  and  C_3 
REMARK    2  A    between atoms: C_9  and  C_4 
REMARK    3  A    between atoms: C_8  and  C_5 
ROOT
ATOM      1  N   UNL d   1      53.157  32.899  53.687  0.00  0.00    -0.191 N 
ATOM      2  N   UNL d   1      53.433  32.168  53.926  0.00  0.00    -0.163 NA
ATOM      3  C   UNL d   1      52.471  32.752  53.219  0.00  0.00     0.110 A 
ATOM      4  C   UNL d   1      53.473  33.624  53.860  0.00  0.00     0.303 C 
ATOM      5  C   UNL d   1      52.943  31.577  53.623  0.00  0.00     0.103 A 
ATOM      6  C   UNL d   1      52.358  31.934  53.193  0.00  0.00     0.042 A 
ATOM      7  O   UNL d   1      53.086  34.335  53.545  0.00  0.00    -0.263 OA
ENDROOT
BRANCH   3   8
ATOM      8  C   UNL d   1      52.002  33.326  52.856  0.00  0.00     0.118 A 
ATOM      9  O   UNL d   1      52.152  33.667  52.134  0.00  0.00    -0.304 OA
ATOM     10  C   UNL d   1      51.541  34.218  51.976  0.00  0.00     0.123 A 
ATOM     11  C   UNL d   1      51.023  34.200  52.617  0.00  0.00     0.029 A 
ATOM     12  C   UNL d   1      51.321  33.639  53.162  0.00  0.00     0.028 A 
ENDBRANCH   3   8
BRANCH   4  13
ATOM     13  C   UNL d   1      54.142  33.712  54.320  0.00  0.00     0.158 A 
ATOM     14  O   UNL d   1      54.920  33.592  54.086  0.00  0.00    -0.300 OA
ATOM     15  C   UNL d   1      55.418  33.742  54.719  0.00  0.00     0.123 A 
ATOM     16  C   UNL d   1      54.949  33.959  55.358  0.00  0.00     0.029 A 
ATOM     17  C   UNL d   1      54.156  33.942  55.117  0.00  0.00     0.032 A 
ENDBRANCH   4  13
BRANCH   5  18
ATOM     18  C   UNL d   1      53.056  30.761  53.754  0.00  0.00     0.019 A 
ATOM     19  C   UNL d   1      53.155  30.511  54.508  0.00  0.00     0.002 A 
ATOM     20  C   UNL d   1      53.269  29.711  54.674  0.00  0.00     0.007 A 
ATOM     21  C   UNL d   1      53.281  29.174  54.060  0.00  0.00     0.035 A 
ATOM     22  C   UNL d   1      53.180  29.416  53.269  0.00  0.00     0.007 A 
ATOM     23 BR   UNL d   1      53.395  28.376  54.232  0.00  0.00    -0.049 Br
ATOM     24  C   UNL d   1      53.064  30.242  53.119  0.00  0.00     0.002 A 
ENDBRANCH   5  18
TORSDOF 3
ENDMDL
MODEL 4
REMARK VINA RESULT:      -8.8      1.739      3.434
REMARK  3 active torsions:
REMARK  status: ('A' for Active; 'I' for Inactive)
REMARK       I    between atoms: C_4  and  N_1 
REMARK    1  A    between atoms: C_7  and  C_3 
REMARK    2  A    between atoms: C_9  and  C_4 
REMARK    3  A    between atoms: C_8  and  C_5 
ROOT
ATOM      1  N   UNL d   1      53.316  33.072  53.861  0.00  0.00    -0.191 N 
ATOM      2  N   UNL d   1      52.955  32.393  53.586  0.00  0.00    -0.163 NA
ATOM      3  C   UNL d   1      54.021  32.824  54.251  0.00  0.00     0.110 A 
ATOM      4  C   UNL d   1      53.056  33.834  53.781  0.00  0.00     0.303 C 
ATOM      5  C   UNL d   1      53.410  31.736  53.791  0.00  0.00     0.103 A 
ATOM      6  C   UNL d   1      54.059  32.000  54.196  0.00  0.00     0.042 A 
ATOM      7  O   UNL d   1      53.532  34.477  54.120  0.00  0.00    -0.263 OA
ENDROOT
BRANCH   3   8
ATOM      8  C   UNL d   1      54.570  33.318  54.619  0.00  0.00     0.118 A 
ATOM      9  O   UNL d   1      55.214  33.657  54.258  0.00  0.00    -0.304 OA
ATOM     10  C   UNL d   1      55.620  34.115  54.829  0.00  0.00     0.123 A 
ATOM     11  C   UNL d   1      55.207  34.044  55.539  0.00  0.00     0.029 A 
ATOM     12  C   UNL d   1      54.552  33.544  55.397  0.00  0.00     0.028 A 
ENDBRANCH   3   8
BRANCH   4  13
ATOM     13  C   UNL d   1      52.363  34.023  53.392  0.00  0.00     0.158 A 
ATOM     14  O   UNL d   1      51.598  33.931  53.677  0.00  0.00    -0.300 OA
ATOM     15  C   UNL d   1      51.067  34.189  53.108  0.00  0.00     0.123 A 
ATOM     16  C   UNL d   1      51.502  34.446  52.460  0.00  0.00     0.029 A 
ATOM     17  C   UNL d   1      52.307  34.345  52.630  0.00  0.00     0.032 A 
ENDBRANCH   4  13
BRANCH   5  18
ATOM     18  C   UNL d   1      53.211  30.950  53.600  0.00  0.00     0.019 A 
ATOM     19  C   UNL d   1      53.341  30.384  54.151  0.00  0.00     0.002 A 
ATOM     20  C   UNL d   1      53.156  29.595  53.996  0.00  0.00     0.007 A 
ATOM     21  C   UNL d   1      52.837  29.396  53.272  0.00  0.00     0.035 A 
ATOM     22  C   UNL d   1      52.694  29.971  52.686  0.00  0.00     0.007 A 
ATOM     23 BR   UNL d   1      52.654  28.606  53.123  0.00  0.00    -0.049 Br
ATOM     24  C   UNL d   1      52.891  30.776  52.865  0.00  0.00     0.002 A 
ENDBRANCH   5  18
TORSDOF 3
ENDMDL
