MODEL 1
REMARK VINA RESULT:      23.0      0.000      0.000
REMARK  1 active torsions:
REMARK  status: ('A' for Active; 'I' for Inactive)
REMARK    1  A    between atoms: C_9  and  C_5 
ROOT
ATOM      1  C   UNL d   1      46.104 -17.791  43.317  0.00  0.00     0.062 A 
ATOM      2  C   UNL d   1      46.179 -17.987  42.535  0.00  0.00     0.197 A 
ATOM      3  C   UNL d   1      46.187 -18.401  43.903  0.00  0.00     0.044 A 
ATOM      4  C   UNL d   1      45.948 -17.000  43.529  0.00  0.00     0.112 A 
ATOM      5  C   UNL d   1      45.877 -16.836  44.342  0.00  0.00     0.084 A 
ATOM      6  C   UNL d   1      46.342 -19.180  43.682  0.00  0.00     0.196 A 
ATOM      7  C   UNL d   1      46.338 -18.786  42.292  0.00  0.00     0.042 A 
ATOM      8  C   UNL d   1      46.419 -19.375  42.857  0.00  0.00     0.042 A 
ATOM      9  C   UNL d   1      46.115 -18.225  44.707  0.00  0.00     0.004 A 
ATOM     10  C   UNL d   1      45.964 -17.473  44.954  0.00  0.00     0.008 A 
ATOM     11  O   UNL d   1      46.096 -17.377  41.949  0.00  0.00    -0.286 OA
ATOM     12  O   UNL d   1      46.426 -19.794  44.273  0.00  0.00    -0.287 OA
ATOM     13  N   UNL d   1      45.869 -16.423  42.974  0.00  0.00    -0.148 N 
ATOM     14  C   UNL d   1      46.410 -18.961  41.489  0.00  0.00     0.003 A 
ATOM     15  C   UNL d   1      46.573 -20.154  42.635  0.00  0.00     0.003 A 
ATOM     16  C   UNL d   1      46.562 -19.719  41.246  0.00  0.00     0.000 A 
ATOM     17  C   UNL d   1      46.645 -20.329  41.832  0.00  0.00     0.000 A 
ENDROOT
BRANCH   5  18
ATOM     18  C   UNL d   1      45.724 -16.056  44.533  0.00  0.00     0.212 C 
ATOM     19  O   UNL d   1      45.002 -15.891  44.865  0.00  0.00    -0.644 OA
ATOM     20  O   UNL d   1      46.302 -15.471  44.384  0.00  0.00    -0.644 OA
ENDBRANCH   5  18
TORSDOF 1
ENDMDL
MODEL 2
REMARK VINA RESULT:      25.3      6.947      7.637
REMARK  1 active torsions:
REMARK  status: ('A' for Active; 'I' for Inactive)
REMARK    1  A    between atoms: C_9  and  C_5 
ROOT
ATOM      1  C   UNL d   1      44.377 -15.093  36.914  0.00  0.00     0.062 A 
ATOM      2  C   UNL d   1      43.611 -14.829  36.908  0.00  0.00     0.197 A 
ATOM      3  C   UNL d   1      44.532 -15.906  36.719  0.00  0.00     0.044 A 
ATOM      4  C   UNL d   1      44.991 -14.566  37.111  0.00  0.00     0.112 A 
ATOM      5  C   UNL d   1      45.765 -14.873  37.107  0.00  0.00     0.084 A 
ATOM      6  C   UNL d   1      43.916 -16.418  36.527  0.00  0.00     0.196 A 
ATOM      7  C   UNL d   1      42.965 -15.346  36.711  0.00  0.00     0.042 A 
ATOM      8  C   UNL d   1      43.115 -16.130  36.523  0.00  0.00     0.042 A 
ATOM      9  C   UNL d   1      45.304 -16.198  36.719  0.00  0.00     0.004 A 
ATOM     10  C   UNL d   1      45.928 -15.721  36.904  0.00  0.00     0.008 A 
ATOM     11  O   UNL d   1      43.455 -14.017  37.103  0.00  0.00    -0.286 OA
ATOM     12  O   UNL d   1      44.073 -17.237  36.330  0.00  0.00    -0.287 OA
ATOM     13  N   UNL d   1      44.844 -13.797  37.295  0.00  0.00    -0.148 N 
ATOM     14  C   UNL d   1      42.194 -15.054  36.711  0.00  0.00     0.003 A 
ATOM     15  C   UNL d   1      42.499 -16.642  36.330  0.00  0.00     0.003 A 
ATOM     16  C   UNL d   1      41.571 -15.537  36.525  0.00  0.00     0.000 A 
ATOM     17  C   UNL d   1      41.727 -16.350  36.330  0.00  0.00     0.000 A 
ENDROOT
BRANCH   5  18
ATOM     18  C   UNL d   1      46.356 -14.343  37.302  0.00  0.00     0.212 C 
ATOM     19  O   UNL d   1      46.647 -14.375  38.058  0.00  0.00    -0.644 OA
ATOM     20  O   UNL d   1      46.633 -13.801  36.729  0.00  0.00    -0.644 OA
ENDBRANCH   5  18
TORSDOF 1
ENDMDL
