MODEL 1
REMARK VINA RESULT:      -8.3      0.000      0.000
REMARK  8 active torsions:
REMARK  status: ('A' for Active; 'I' for Inactive)
REMARK    1  A    between atoms: N_9  and  C_1 
REMARK    2  A    between atoms: C_4  and  S_15 
REMARK    3  A    between atoms: C_18  and  C_8 
REMARK       I    between atoms: C_13  and  N_9 
REMARK       I    between atoms: C_10  and  N_14 
REMARK    4  A    between atoms: C_16  and  C_10 
REMARK    5  A    between atoms: C_22  and  C_13 
REMARK    6  A    between atoms: N_14  and  C_18 
REMARK    7  A    between atoms: S_15  and  C_22 
REMARK    8  A    between atoms: O_26  and  C_23 
ROOT
ATOM      1  O   UNL d   1      48.606  35.263  51.903  0.00  0.00    -0.262 OA
ATOM      2  C   UNL d   1      49.100  34.726  51.502  0.00  0.00     0.236 A 
ATOM      3  N   UNL d   1      48.668  34.400  50.887  0.00  0.00    -0.114 NA
ATOM      4  N   UNL d   1      47.912  34.730  50.902  0.00  0.00    -0.119 NA
ATOM      5  C   UNL d   1      47.875  35.260  51.527  0.00  0.00     0.224 A 
ENDROOT
BRANCH   2   6
ATOM      6  S   UNL d   1      49.886  34.557  51.697  0.00  0.00    -0.036 SA
BRANCH   6   7
ATOM      7  C   UNL d   1      50.063  34.177  52.399  0.00  0.00     0.101 C 
BRANCH   7   8
ATOM      8  C   UNL d   1      50.864  34.051  52.620  0.00  0.00     0.288 C 
ATOM      9  N   UNL d   1      51.042  33.522  53.230  0.00  0.00    -0.182 NA
ATOM     10  O   UNL d   1      51.465  34.451  52.232  0.00  0.00    -0.265 OA
BRANCH   9  11
ATOM     11  C   UNL d   1      51.832  33.391  53.456  0.00  0.00     0.197 A 
ATOM     12  N   UNL d   1      52.235  33.806  54.054  0.00  0.00    -0.221 NA
ATOM     13  C   UNL d   1      53.003  33.502  54.097  0.00  0.00     0.090 A 
ATOM     14  C   UNL d   1      53.643  33.688  54.573  0.00  0.00     0.020 A 
ATOM     15  C   UNL d   1      53.073  32.896  53.524  0.00  0.00     0.050 A 
ATOM     16  C   UNL d   1      54.363  33.284  54.495  0.00  0.00     0.002 A 
ATOM     17  C   UNL d   1      54.428  32.683  53.923  0.00  0.00     0.001 A 
ATOM     18  C   UNL d   1      53.788  32.496  53.447  0.00  0.00     0.008 A 
ATOM     19  S   UNL d   1      52.347  32.829  53.128  0.00  0.00    -0.047 SA
ENDBRANCH   9  11
ENDBRANCH   7   8
ENDBRANCH   6   7
ENDBRANCH   2   6
BRANCH   5  20
ATOM     20  C   UNL d   1      47.216  35.713  51.740  0.00  0.00     0.149 C 
BRANCH  20  21
ATOM     21  N   UNL d   1      46.761  35.504  52.393  0.00  0.00    -0.203 NA
ATOM     22  C   UNL d   1      46.126  35.985  52.624  0.00  0.00     0.279 C 
ATOM     23  O   UNL d   1      45.948  36.670  52.205  0.00  0.00    -0.265 OA
BRANCH  22  24
ATOM     24  C   UNL d   1      45.672  35.770  53.283  0.00  0.00     0.058 A 
ATOM     25  C   UNL d   1      45.004  35.291  53.189  0.00  0.00     0.007 A 
ATOM     26  C   UNL d   1      44.557  35.081  53.848  0.00  0.00     0.024 A 
ATOM     27  C   UNL d   1      44.784  35.352  54.591  0.00  0.00     0.094 A 
ATOM     28  C   UNL d   1      45.438  35.822  54.683  0.00  0.00     0.024 A 
ATOM     29  C   UNL d   1      45.885  36.032  54.024  0.00  0.00     0.007 A 
BRANCH  27  30
ATOM     30  O   UNL d   1      44.333  35.140  55.254  0.00  0.00    -0.328 OA
ATOM     31  C   UNL d   1      44.315  34.350  55.521  0.00  0.00     0.181 C 
ENDBRANCH  27  30
ENDBRANCH  22  24
ENDBRANCH  20  21
ENDBRANCH   5  20
TORSDOF 8
ENDMDL
MODEL 2
REMARK VINA RESULT:      -6.3      1.345      1.677
REMARK  8 active torsions:
REMARK  status: ('A' for Active; 'I' for Inactive)
REMARK    1  A    between atoms: N_9  and  C_1 
REMARK    2  A    between atoms: C_4  and  S_15 
REMARK    3  A    between atoms: C_18  and  C_8 
REMARK       I    between atoms: C_13  and  N_9 
REMARK       I    between atoms: C_10  and  N_14 
REMARK    4  A    between atoms: C_16  and  C_10 
REMARK    5  A    between atoms: C_22  and  C_13 
REMARK    6  A    between atoms: N_14  and  C_18 
REMARK    7  A    between atoms: S_15  and  C_22 
REMARK    8  A    between atoms: O_26  and  C_23 
ROOT
ATOM      1  O   UNL d   1      48.887  34.974  52.432  0.00  0.00    -0.262 OA
ATOM      2  C   UNL d   1      49.654  34.904  52.751  0.00  0.00     0.236 A 
ATOM      3  N   UNL d   1      49.708  35.417  53.388  0.00  0.00    -0.114 NA
ATOM      4  N   UNL d   1      48.983  35.804  53.467  0.00  0.00    -0.119 NA
ATOM      5  C   UNL d   1      48.480  35.531  52.879  0.00  0.00     0.224 A 
ENDROOT
BRANCH   2   6
ATOM      6  S   UNL d   1      50.248  34.404  52.469  0.00  0.00    -0.036 SA
BRANCH   6   7
ATOM      7  C   UNL d   1      50.958  34.340  52.870  0.00  0.00     0.101 C 
BRANCH   7   8
ATOM      8  C   UNL d   1      51.430  33.650  52.788  0.00  0.00     0.288 C 
ATOM      9  N   UNL d   1      51.742  33.284  53.461  0.00  0.00    -0.182 NA
ATOM     10  O   UNL d   1      51.579  33.342  52.044  0.00  0.00    -0.265 OA
BRANCH   9  11
ATOM     11  C   UNL d   1      52.210  32.601  53.389  0.00  0.00     0.197 A 
ATOM     12  N   UNL d   1      51.920  31.832  53.258  0.00  0.00    -0.221 NA
ATOM     13  C   UNL d   1      52.569  31.321  53.223  0.00  0.00     0.090 A 
ATOM     14  C   UNL d   1      52.627  30.512  53.108  0.00  0.00     0.020 A 
ATOM     15  C   UNL d   1      53.263  31.777  53.333  0.00  0.00     0.050 A 
ATOM     16  C   UNL d   1      53.367  30.136  53.098  0.00  0.00     0.002 A 
ATOM     17  C   UNL d   1      54.053  30.594  53.208  0.00  0.00     0.001 A 
ATOM     18  C   UNL d   1      53.995  31.403  53.323  0.00  0.00     0.008 A 
ATOM     19  S   UNL d   1      53.038  32.569  53.436  0.00  0.00    -0.047 SA
ENDBRANCH   9  11
ENDBRANCH   7   8
ENDBRANCH   6   7
ENDBRANCH   2   6
BRANCH   5  20
ATOM     20  C   UNL d   1      47.699  35.775  52.759  0.00  0.00     0.149 C 
BRANCH  20  21
ATOM     21  N   UNL d   1      47.179  35.840  53.393  0.00  0.00    -0.203 NA
ATOM     22  C   UNL d   1      46.376  35.991  53.255  0.00  0.00     0.279 C 
ATOM     23  O   UNL d   1      46.093  36.075  52.487  0.00  0.00    -0.265 OA
BRANCH  22  24
ATOM     24  C   UNL d   1      45.857  36.056  53.899  0.00  0.00     0.058 A 
ATOM     25  C   UNL d   1      45.224  35.530  53.977  0.00  0.00     0.007 A 
ATOM     26  C   UNL d   1      44.713  35.600  54.619  0.00  0.00     0.024 A 
ATOM     27  C   UNL d   1      44.843  36.195  55.173  0.00  0.00     0.094 A 
ATOM     28  C   UNL d   1      45.464  36.709  55.096  0.00  0.00     0.024 A 
ATOM     29  C   UNL d   1      45.975  36.639  54.454  0.00  0.00     0.007 A 
BRANCH  27  30
ATOM     30  O   UNL d   1      44.328  36.265  55.820  0.00  0.00    -0.328 OA
ATOM     31  C   UNL d   1      44.604  36.546  56.555  0.00  0.00     0.181 C 
ENDBRANCH  27  30
ENDBRANCH  22  24
ENDBRANCH  20  21
ENDBRANCH   5  20
TORSDOF 8
ENDMDL
MODEL 3
REMARK VINA RESULT:      -5.9      1.868      2.595
REMARK  8 active torsions:
REMARK  status: ('A' for Active; 'I' for Inactive)
REMARK    1  A    between atoms: N_9  and  C_1 
REMARK    2  A    between atoms: C_4  and  S_15 
REMARK    3  A    between atoms: C_18  and  C_8 
REMARK       I    between atoms: C_13  and  N_9 
REMARK       I    between atoms: C_10  and  N_14 
REMARK    4  A    between atoms: C_16  and  C_10 
REMARK    5  A    between atoms: C_22  and  C_13 
REMARK    6  A    between atoms: N_14  and  C_18 
REMARK    7  A    between atoms: S_15  and  C_22 
REMARK    8  A    between atoms: O_26  and  C_23 
ROOT
ATOM      1  O   UNL d   1      50.016  34.943  53.308  0.00  0.00    -0.262 OA
ATOM      2  C   UNL d   1      50.527  34.449  52.874  0.00  0.00     0.236 A 
ATOM      3  N   UNL d   1      50.227  34.384  52.114  0.00  0.00    -0.114 NA
ATOM      4  N   UNL d   1      49.536  34.832  52.073  0.00  0.00    -0.119 NA
ATOM      5  C   UNL d   1      49.407  35.175  52.807  0.00  0.00     0.224 A 
ENDROOT
BRANCH   2   6
ATOM      6  S   UNL d   1      51.213  34.092  53.166  0.00  0.00    -0.036 SA
BRANCH   6   7
ATOM      7  C   UNL d   1      51.631  33.564  52.702  0.00  0.00     0.101 C 
BRANCH   7   8
ATOM      8  C   UNL d   1      51.954  32.866  53.042  0.00  0.00     0.288 C 
ATOM      9  N   UNL d   1      52.293  32.291  52.554  0.00  0.00    -0.182 NA
ATOM     10  O   UNL d   1      51.930  32.757  53.854  0.00  0.00    -0.265 OA
BRANCH   9  11
ATOM     11  C   UNL d   1      52.614  31.598  52.881  0.00  0.00     0.197 A 
ATOM     12  N   UNL d   1      52.186  30.908  53.058  0.00  0.00    -0.221 NA
ATOM     13  C   UNL d   1      52.715  30.356  53.373  0.00  0.00     0.090 A 
ATOM     14  C   UNL d   1      52.615  29.590  53.644  0.00  0.00     0.020 A 
ATOM     15  C   UNL d   1      53.474  30.708  53.389  0.00  0.00     0.050 A 
ATOM     16  C   UNL d   1      53.258  29.155  53.936  0.00  0.00     0.002 A 
ATOM     17  C   UNL d   1      54.011  29.509  53.951  0.00  0.00     0.001 A 
ATOM     18  C   UNL d   1      54.111  30.276  53.680  0.00  0.00     0.008 A 
ATOM     19  S   UNL d   1      53.410  31.477  53.085  0.00  0.00    -0.047 SA
ENDBRANCH   9  11
ENDBRANCH   7   8
ENDBRANCH   6   7
ENDBRANCH   2   6
BRANCH   5  20
ATOM     20  C   UNL d   1      48.774  35.669  53.008  0.00  0.00     0.149 C 
BRANCH  20  21
ATOM     21  N   UNL d   1      48.047  35.588  52.632  0.00  0.00    -0.203 NA
ATOM     22  C   UNL d   1      47.414  36.080  52.846  0.00  0.00     0.279 C 
ATOM     23  O   UNL d   1      47.508  36.649  53.432  0.00  0.00    -0.265 OA
BRANCH  22  24
ATOM     24  C   UNL d   1      46.684  35.993  52.464  0.00  0.00     0.058 A 
ATOM     25  C   UNL d   1      46.646  35.976  51.638  0.00  0.00     0.007 A 
ATOM     26  C   UNL d   1      45.917  35.890  51.264  0.00  0.00     0.024 A 
ATOM     27  C   UNL d   1      45.236  35.821  51.722  0.00  0.00     0.094 A 
ATOM     28  C   UNL d   1      45.274  35.838  52.531  0.00  0.00     0.024 A 
ATOM     29  C   UNL d   1      46.003  35.924  52.905  0.00  0.00     0.007 A 
BRANCH  27  30
ATOM     30  O   UNL d   1      44.503  35.734  51.346  0.00  0.00    -0.328 OA
ATOM     31  C   UNL d   1      44.314  36.188  50.672  0.00  0.00     0.181 C 
ENDBRANCH  27  30
ENDBRANCH  22  24
ENDBRANCH  20  21
ENDBRANCH   5  20
TORSDOF 8
ENDMDL
