MODEL 1
REMARK VINA RESULT:      65.8      0.000      0.000
REMARK  6 active torsions:
REMARK  status: ('A' for Active; 'I' for Inactive)
REMARK    1  A    between atoms: N_13  and  C_2 
REMARK    2  A    between atoms: C_22  and  C_5 
REMARK    3  A    between atoms: C_23  and  C_6 
REMARK    4  A    between atoms: C_7  and  S_17 
REMARK       I    between atoms: C_16  and  N_13 
REMARK    5  A    between atoms: C_25  and  C_16 
REMARK    6  A    between atoms: S_17  and  C_25 
ROOT
ATOM      1  C   UNL d   1      46.192 -18.652  42.413  0.00  0.00     0.092 A 
ATOM      2  C   UNL d   1      45.970 -17.710  43.459  0.00  0.00     0.057 A 
ATOM      3  C   UNL d   1      46.084 -18.484  43.214  0.00  0.00     0.016 A 
ATOM      4  C   UNL d   1      46.185 -18.042  41.864  0.00  0.00     0.120 A 
ATOM      5  N   UNL d   1      46.071 -17.261  42.106  0.00  0.00    -0.239 NA
ATOM      6  C   UNL d   1      45.963 -17.094  42.907  0.00  0.00     0.081 A 
ATOM      7  C   UNL d   1      45.863 -17.551  44.258  0.00  0.00     0.193 A 
ATOM      8  C   UNL d   1      46.306 -19.432  42.171  0.00  0.00     0.103 C 
ATOM      9  N   UNL d   1      46.420 -20.208  41.918  0.00  0.00    -0.191 NA
ATOM     10  C   UNL d   1      45.741 -16.148  43.954  0.00  0.00     0.042 A 
ATOM     11  C   UNL d   1      45.746 -16.762  44.515  0.00  0.00     0.019 A 
ATOM     12  C   UNL d   1      45.849 -16.314  43.148  0.00  0.00    -0.003 A 
ATOM     13  O   UNL d   1      45.869 -18.163  44.815  0.00  0.00    -0.287 OA
ATOM     14  C   UNL d   1      45.699 -15.409  43.593  0.00  0.00     0.009 C 
ATOM     15  C   UNL d   1      45.632 -15.988  44.763  0.00  0.00     0.009 C 
ENDROOT
BRANCH   4  16
ATOM     16  S   UNL d   1      46.293 -18.208  41.062  0.00  0.00    -0.062 SA
BRANCH  16  17
ATOM     17  C   UNL d   1      46.630 -17.642  40.562  0.00  0.00     0.100 C 
BRANCH  17  18
ATOM     18  C   UNL d   1      46.275 -17.477  39.835  0.00  0.00     0.302 C 
ATOM     19  N   UNL d   1      46.282 -16.715  39.535  0.00  0.00    -0.018 NA
ATOM     20  O   UNL d   1      45.913 -18.077  39.409  0.00  0.00    -0.264 OA
BRANCH  19  21
ATOM     21  C   UNL d   1      45.921 -16.547  38.798  0.00  0.00     0.760 A 
ATOM     22  N   UNL d   1      45.144 -16.303  38.683  0.00  0.00    -0.051 NA
ATOM     23  C   UNL d   1      45.031 -16.205  37.879  0.00  0.00     0.147 A 
ATOM     24  S   UNL d   1      45.731 -16.388  37.501  0.00  0.00     0.052 SA
ATOM     25  N   UNL d   1      46.283 -16.600  38.071  0.00  0.00    -0.019 NA
BRANCH  23  26
ATOM     26  C   UNL d   1      44.347 -15.966  37.480  0.00  0.00     0.026 A 
ATOM     27  C   UNL d   1      43.830 -15.433  37.836  0.00  0.00     0.002 A 
ATOM     28  C   UNL d   1      43.145 -15.194  37.435  0.00  0.00     0.000 A 
ATOM     29  C   UNL d   1      42.976 -15.483  36.688  0.00  0.00     0.000 A 
ATOM     30  C   UNL d   1      43.493 -16.016  36.333  0.00  0.00     0.000 A 
ATOM     31  C   UNL d   1      44.185 -16.261  36.731  0.00  0.00     0.002 A 
ENDBRANCH  23  26
ENDBRANCH  19  21
ENDBRANCH  17  18
ENDBRANCH  16  17
ENDBRANCH   4  16
BRANCH   3  32
ATOM     32  C   UNL d   1      46.090 -19.095  43.762  0.00  0.00     0.001 A 
ATOM     33  C   UNL d   1      45.542 -19.710  43.698  0.00  0.00     0.000 A 
ATOM     34  C   UNL d   1      45.549 -20.321  44.246  0.00  0.00     0.000 A 
ATOM     35  C   UNL d   1      46.097 -20.328  44.861  0.00  0.00     0.000 A 
ATOM     36  C   UNL d   1      46.645 -19.713  44.926  0.00  0.00     0.000 A 
ATOM     37  C   UNL d   1      46.642 -19.095  44.375  0.00  0.00     0.000 A 
ENDBRANCH   3  32
TORSDOF 6
ENDMDL
