MODEL 1
REMARK VINA RESULT:      -2.5      0.000      0.000
REMARK  8 active torsions:
REMARK  status: ('A' for Active; 'I' for Inactive)
REMARK       I    between atoms: C_2  and  N_1 
REMARK    1  A    between atoms: C_3  and  N_1 
REMARK    2  A    between atoms: C_4  and  C_2 
REMARK    3  A    between atoms: N_12  and  C_3 
REMARK    4  A    between atoms: O_19  and  C_5 
REMARK    5  A    between atoms: O_20  and  C_6 
REMARK    6  A    between atoms: O_21  and  C_7 
REMARK    7  A    between atoms: C_10  and  C_18 
REMARK    8  A    between atoms: C_18  and  N_12 
ROOT
ATOM      1  C   UNL d   1      31.094  17.393 -24.156  0.00  0.00     0.062 A 
ATOM      2  C   UNL d   1      29.649  16.577 -24.164  0.00  0.00     0.138 A 
ATOM      3  C   UNL d   1      29.721  17.300 -24.570  0.00  0.00     0.118 A 
ATOM      4  C   UNL d   1      30.309  16.279 -23.762  0.00  0.00     0.118 A 
ATOM      5  C   UNL d   1      31.022  16.681 -23.757  0.00  0.00     0.031 A 
ATOM      6  C   UNL d   1      30.448  17.706 -24.563  0.00  0.00     0.031 A 
ENDROOT
BRANCH   1   7
ATOM      7  C   UNL d   1      31.827  17.800 -24.148  0.00  0.00     0.281 C 
ATOM      8  N   UNL d   1      31.959  18.385 -23.571  0.00  0.00    -0.179 NA
ATOM      9  O   UNL d   1      32.408  17.632 -24.694  0.00  0.00    -0.265 OA
BRANCH   8  10
ATOM     10  C   UNL d   1      32.685  18.788 -23.564  0.00  0.00     0.224 C 
ATOM     11  S   UNL d   1      33.154  18.920 -24.229  0.00  0.00    -0.037 SA
BRANCH  10  12
ATOM     12  N   UNL d   1      32.926  19.062 -22.837  0.00  0.00    -0.214 NA
BRANCH  12  13
ATOM     13  C   UNL d   1      33.170  19.844 -22.750  0.00  0.00     0.126 C 
BRANCH  13  14
ATOM     14  C   UNL d   1      33.163  20.209 -22.015  0.00  0.00     0.119 A 
ATOM     15  O   UNL d   1      33.241  19.849 -21.257  0.00  0.00    -0.304 OA
ATOM     16  C   UNL d   1      33.200  20.444 -20.691  0.00  0.00     0.123 A 
ATOM     17  C   UNL d   1      33.100  21.158 -21.067  0.00  0.00     0.029 A 
ATOM     18  C   UNL d   1      33.076  21.021 -21.898  0.00  0.00     0.028 A 
ENDBRANCH  13  14
ENDBRANCH  12  13
ENDBRANCH  10  12
ENDBRANCH   8  10
ENDBRANCH   1   7
BRANCH   4  19
ATOM     19  O   UNL d   1      30.231  15.551 -23.354  0.00  0.00    -0.326 OA
ATOM     20  C   UNL d   1      30.630  15.453 -22.621  0.00  0.00     0.181 C 
ENDBRANCH   4  19
BRANCH   3  21
ATOM     21  O   UNL d   1      29.059  17.616 -24.985  0.00  0.00    -0.326 OA
ATOM     22  C   UNL d   1      28.733  18.337 -24.777  0.00  0.00     0.181 C 
ENDBRANCH   3  21
BRANCH   2  23
ATOM     23  O   UNL d   1      28.923  16.158 -24.163  0.00  0.00    -0.324 OA
ATOM     24  C   UNL d   1      28.546  15.949 -24.872  0.00  0.00     0.182 C 
ENDBRANCH   2  23
TORSDOF 8
ENDMDL
MODEL 2
REMARK VINA RESULT:      -1.5      1.466      1.706
REMARK  8 active torsions:
REMARK  status: ('A' for Active; 'I' for Inactive)
REMARK       I    between atoms: C_2  and  N_1 
REMARK    1  A    between atoms: C_3  and  N_1 
REMARK    2  A    between atoms: C_4  and  C_2 
REMARK    3  A    between atoms: N_12  and  C_3 
REMARK    4  A    between atoms: O_19  and  C_5 
REMARK    5  A    between atoms: O_20  and  C_6 
REMARK    6  A    between atoms: O_21  and  C_7 
REMARK    7  A    between atoms: C_10  and  C_18 
REMARK    8  A    between atoms: C_18  and  N_12 
ROOT
ATOM      1  C   UNL d   1      30.598  16.518 -24.161  0.00  0.00     0.062 A 
ATOM      2  C   UNL d   1      28.946  16.521 -24.009  0.00  0.00     0.138 A 
ATOM      3  C   UNL d   1      29.317  17.059 -24.525  0.00  0.00     0.118 A 
ATOM      4  C   UNL d   1      29.416  15.992 -23.580  0.00  0.00     0.118 A 
ATOM      5  C   UNL d   1      30.231  15.990 -23.654  0.00  0.00     0.031 A 
ATOM      6  C   UNL d   1      30.147  17.053 -24.598  0.00  0.00     0.031 A 
ENDROOT
BRANCH   1   7
ATOM      7  C   UNL d   1      31.433  16.512 -24.233  0.00  0.00     0.281 C 
ATOM      8  N   UNL d   1      31.880  17.083 -23.824  0.00  0.00    -0.179 NA
ATOM      9  O   UNL d   1      31.812  15.957 -24.695  0.00  0.00    -0.265 OA
BRANCH   8  10
ATOM     10  C   UNL d   1      32.707  17.076 -23.896  0.00  0.00     0.224 C 
ATOM     11  S   UNL d   1      33.179  16.403 -23.817  0.00  0.00    -0.037 SA
BRANCH  10  12
ATOM     12  N   UNL d   1      33.051  17.795 -24.055  0.00  0.00    -0.214 NA
BRANCH  12  13
ATOM     13  C   UNL d   1      33.059  18.385 -23.479  0.00  0.00     0.126 C 
BRANCH  13  14
ATOM     14  C   UNL d   1      33.122  19.176 -23.686  0.00  0.00     0.119 A 
ATOM     15  O   UNL d   1      33.198  19.505 -24.459  0.00  0.00    -0.304 OA
ATOM     16  C   UNL d   1      33.241  20.323 -24.381  0.00  0.00     0.123 A 
ATOM     17  C   UNL d   1      33.195  20.513 -23.592  0.00  0.00     0.029 A 
ATOM     18  C   UNL d   1      33.120  19.801 -23.148  0.00  0.00     0.028 A 
ENDBRANCH  13  14
ENDBRANCH  12  13
ENDBRANCH  10  12
ENDBRANCH   8  10
ENDBRANCH   1   7
BRANCH   4  19
ATOM     19  O   UNL d   1      29.037  15.453 -23.062  0.00  0.00    -0.326 OA
ATOM     20  C   UNL d   1      29.209  15.492 -22.240  0.00  0.00     0.181 C 
ENDBRANCH   4  19
BRANCH   3  21
ATOM     21  O   UNL d   1      28.852  17.604 -24.969  0.00  0.00    -0.326 OA
ATOM     22  C   UNL d   1      29.022  18.404 -24.970  0.00  0.00     0.181 C 
ENDBRANCH   3  21
BRANCH   2  23
ATOM     23  O   UNL d   1      28.111  16.516 -23.927  0.00  0.00    -0.324 OA
ATOM     24  C   UNL d   1      27.642  15.971 -24.340  0.00  0.00     0.182 C 
ENDBRANCH   2  23
TORSDOF 8
ENDMDL
MODEL 3
REMARK VINA RESULT:      -0.8      2.153      5.493
REMARK  8 active torsions:
REMARK  status: ('A' for Active; 'I' for Inactive)
REMARK       I    between atoms: C_2  and  N_1 
REMARK    1  A    between atoms: C_3  and  N_1 
REMARK    2  A    between atoms: C_4  and  C_2 
REMARK    3  A    between atoms: N_12  and  C_3 
REMARK    4  A    between atoms: O_19  and  C_5 
REMARK    5  A    between atoms: O_20  and  C_6 
REMARK    6  A    between atoms: O_21  and  C_7 
REMARK    7  A    between atoms: C_10  and  C_18 
REMARK    8  A    between atoms: C_18  and  N_12 
ROOT
ATOM      1  C   UNL d   1      33.235  20.819 -22.941  0.00  0.00     0.062 A 
ATOM      2  C   UNL d   1      33.235  21.747 -21.566  0.00  0.00     0.138 A 
ATOM      3  C   UNL d   1      33.237  20.917 -21.508  0.00  0.00     0.118 A 
ATOM      4  C   UNL d   1      33.233  22.093 -22.318  0.00  0.00     0.118 A 
ATOM      5  C   UNL d   1      33.233  21.637 -22.997  0.00  0.00     0.031 A 
ATOM      6  C   UNL d   1      33.236  20.456 -22.201  0.00  0.00     0.031 A 
ENDROOT
BRANCH   1   7
ATOM      7  C   UNL d   1      33.235  20.356 -23.640  0.00  0.00     0.281 C 
ATOM      8  N   UNL d   1      33.235  19.526 -23.576  0.00  0.00    -0.179 NA
ATOM      9  O   UNL d   1      33.234  20.705 -24.377  0.00  0.00    -0.265 OA
BRANCH   8  10
ATOM     10  C   UNL d   1      33.235  19.068 -24.269  0.00  0.00     0.224 C 
ATOM     11  S   UNL d   1      33.241  19.376 -25.034  0.00  0.00    -0.037 SA
BRANCH  10  12
ATOM     12  N   UNL d   1      33.228  18.263 -24.155  0.00  0.00    -0.214 NA
BRANCH  12  13
ATOM     13  C   UNL d   1      32.721  17.788 -24.599  0.00  0.00     0.126 C 
BRANCH  13  14
ATOM     14  C   UNL d   1      32.640  16.988 -24.434  0.00  0.00     0.119 A 
ATOM     15  O   UNL d   1      33.122  16.352 -24.705  0.00  0.00    -0.304 OA
ATOM     16  C   UNL d   1      32.818  15.655 -24.390  0.00  0.00     0.123 A 
ATOM     17  C   UNL d   1      32.168  15.834 -23.936  0.00  0.00     0.029 A 
ATOM     18  C   UNL d   1      32.048  16.668 -23.957  0.00  0.00     0.028 A 
ENDBRANCH  13  14
ENDBRANCH  12  13
ENDBRANCH  10  12
ENDBRANCH   8  10
ENDBRANCH   1   7
BRANCH   4  19
ATOM     19  O   UNL d   1      33.231  22.930 -22.371  0.00  0.00    -0.326 OA
ATOM     20  C   UNL d   1      32.931  23.291 -23.069  0.00  0.00     0.181 C 
ENDBRANCH   4  19
BRANCH   3  21
ATOM     21  O   UNL d   1      33.238  20.549 -20.749  0.00  0.00    -0.326 OA
ATOM     22  C   UNL d   1      33.172  19.738 -20.670  0.00  0.00     0.181 C 
ENDBRANCH   3  21
BRANCH   2  23
ATOM     23  O   UNL d   1      33.235  22.224 -20.876  0.00  0.00    -0.324 OA
ATOM     24  C   UNL d   1      32.541  22.345 -20.437  0.00  0.00     0.182 C 
ENDBRANCH   2  23
TORSDOF 8
ENDMDL
