MODEL 1
REMARK VINA RESULT:      69.1      0.000      0.000
REMARK  5 active torsions:
REMARK  status: ('A' for Active; 'I' for Inactive)
REMARK    1  A    between atoms: N_2  and  S_1 
REMARK    2  A    between atoms: C_4  and  S_1 
REMARK    3  A    between atoms: S_8  and  C_3 
REMARK    4  A    between atoms: C_18  and  S_8 
REMARK    5  A    between atoms: C_17  and  C_18 
ROOT
ATOM      1  N   UNL d   1     -54.929-101.644 -39.989  0.00  0.00    -0.208 N 
ATOM      2  C   UNL d   1     -55.036-101.624 -40.813  0.00  0.00     0.189 A 
ATOM      3  N   UNL d   1     -54.902-102.386 -41.109  0.00  0.00    -0.219 NA
ATOM      4  C   UNL d   1     -54.728-102.423 -39.776  0.00  0.00     0.114 A 
ATOM      5  C   UNL d   1     -54.713-102.875 -40.467  0.00  0.00     0.121 A 
ENDROOT
BRANCH   1   6
ATOM      6  S   UNL d   1     -55.009-101.000 -39.474  0.00  0.00     0.273 S 
ATOM      7  O   UNL d   1     -55.028-100.230 -39.171  0.00  0.00    -0.200 OA
ATOM      8  O   UNL d   1     -54.819-100.517 -40.106  0.00  0.00    -0.200 OA
BRANCH   6   9
ATOM      9  C   UNL d   1     -55.203-101.472 -38.823  0.00  0.00     0.104 A 
ATOM     10  C   UNL d   1     -54.862-101.308 -38.093  0.00  0.00     0.013 A 
ATOM     11  C   UNL d   1     -55.058-101.782 -37.445  0.00  0.00     0.001 A 
ATOM     12  C   UNL d   1     -54.718-101.620 -36.712  0.00  0.00     0.000 A 
ATOM     13  C   UNL d   1     -55.587-102.408 -37.530  0.00  0.00     0.000 A 
ATOM     14  C   UNL d   1     -54.906-102.086 -36.058  0.00  0.00     0.000 A 
ATOM     15  C   UNL d   1     -55.438-102.718 -36.141  0.00  0.00     0.000 A 
ATOM     16  C   UNL d   1     -55.776-102.876 -36.872  0.00  0.00     0.000 A 
ATOM     17  C   UNL d   1     -55.928-102.571 -38.263  0.00  0.00     0.001 A 
ATOM     18  C   UNL d   1     -55.731-102.093 -38.920  0.00  0.00     0.013 A 
ENDBRANCH   6   9
ENDBRANCH   1   6
BRANCH   2  19
ATOM     19  S   UNL d   1     -55.241-100.955 -41.260  0.00  0.00    -0.049 SA
BRANCH  19  20
ATOM     20  C   UNL d   1     -54.760-100.719 -41.888  0.00  0.00     0.040 C 
BRANCH  20  21
ATOM     21  C   UNL d   1     -55.075-100.663 -42.646  0.00  0.00     0.026 A 
ATOM     22  C   UNL d   1     -54.717-101.082 -43.280  0.00  0.00     0.099 A 
ATOM     23  N   UNL d   1     -55.018-101.038 -44.042  0.00  0.00    -0.242 NA
ATOM     24  C   UNL d   1     -55.685-100.571 -44.175  0.00  0.00     0.099 A 
ATOM     25  C   UNL d   1     -56.040-100.159 -43.558  0.00  0.00     0.021 A 
ATOM     26  C   UNL d   1     -55.734-100.206 -42.795  0.00  0.00     0.004 A 
ENDBRANCH  20  21
ENDBRANCH  19  20
ENDBRANCH   2  19
TORSDOF 5
ENDMDL
