MODEL 1
REMARK VINA RESULT:       7.8      0.000      0.000
REMARK  9 active torsions:
REMARK  status: ('A' for Active; 'I' for Inactive)
REMARK    1  A    between atoms: N_6  and  S_1 
REMARK    2  A    between atoms: C_12  and  S_1 
REMARK    3  A    between atoms: C_2  and  C_3 
REMARK    4  A    between atoms: C_4  and  C_2 
REMARK    5  A    between atoms: C_5  and  C_2 
REMARK    6  A    between atoms: O_14  and  C_4 
REMARK    7  A    between atoms: C_9  and  C_5 
REMARK    8  A    between atoms: C_7  and  N_6 
REMARK    9  A    between atoms: C_29  and  O_14 
ROOT
ATOM      1  C   UNL d   1      32.491  22.322 -21.969  0.00  0.00     0.049 A 
ATOM      2  C   UNL d   1      32.852  21.753 -23.225  0.00  0.00     0.094 A 
ATOM      3  C   UNL d   1      32.112  22.943 -22.368  0.00  0.00     0.196 A 
ATOM      4  C   UNL d   1      32.859  21.729 -22.396  0.00  0.00     0.023 A 
ATOM      5  C   UNL d   1      32.103  22.970 -23.202  0.00  0.00     0.040 A 
ATOM      6  C   UNL d   1      32.472  22.377 -23.629  0.00  0.00     0.021 A 
ATOM      7  O   UNL d   1      31.741  23.540 -21.937  0.00  0.00    -0.287 OA
ATOM      8  C   UNL d   1      31.716  23.605 -23.552  0.00  0.00     0.003 A 
ATOM      9  C   UNL d   1      32.469  22.394 -24.455  0.00  0.00     0.002 A 
ATOM     10  C   UNL d   1      31.726  23.601 -24.439  0.00  0.00     0.000 A 
ATOM     11  C   UNL d   1      32.086  23.022 -24.856  0.00  0.00     0.000 A 
ENDROOT
BRANCH   2  12
ATOM     12  N   UNL d   1      33.241  21.127 -23.637  0.00  0.00    -0.158 NA
BRANCH  12  13
ATOM     13  S   UNL d   1      32.851  20.418 -23.761  0.00  0.00     0.285 S 
ATOM     14  O   UNL d   1      32.707  20.350 -22.936  0.00  0.00    -0.198 OA
ATOM     15  O   UNL d   1      32.984  20.466 -24.577  0.00  0.00    -0.198 OA
BRANCH  13  16
ATOM     16  C   UNL d   1      32.445  19.681 -23.875  0.00  0.00     0.105 A 
ATOM     17  C   UNL d   1      32.750  18.983 -23.592  0.00  0.00     0.013 A 
ATOM     18  C   UNL d   1      32.360  18.280 -23.702  0.00  0.00     0.001 A 
ATOM     19  C   UNL d   1      32.680  17.593 -23.413  0.00  0.00     0.000 A 
ATOM     20  C   UNL d   1      31.618  18.263 -24.119  0.00  0.00     0.000 A 
ATOM     21  C   UNL d   1      32.271  16.832 -23.524  0.00  0.00     0.000 A 
ATOM     22  C   UNL d   1      31.544  16.826 -23.934  0.00  0.00     0.000 A 
ATOM     23  C   UNL d   1      31.211  17.541 -24.235  0.00  0.00     0.000 A 
ATOM     24  C   UNL d   1      31.334  18.975 -24.392  0.00  0.00     0.001 A 
ATOM     25  C   UNL d   1      31.728  19.681 -24.281  0.00  0.00     0.013 A 
ENDBRANCH  13  16
ENDBRANCH  12  13
ENDBRANCH   2  12
BRANCH   1  26
ATOM     26  C   UNL d   1      32.500  22.295 -21.134  0.00  0.00     0.110 C 
BRANCH  26  27
ATOM     27  C   UNL d   1      32.493  21.550 -20.779  0.00  0.00     0.303 C 
ATOM     28  O   UNL d   1      31.933  20.985 -20.999  0.00  0.00    -0.259 OA
BRANCH  27  29
ATOM     29  O   UNL d   1      33.065  21.414 -20.208  0.00  0.00    -0.273 OA
BRANCH  29  30
ATOM     30  C   UNL d   1      33.164  20.646 -19.924  0.00  0.00     0.103 C 
ATOM     31  C   UNL d   1      33.240  20.518 -19.137  0.00  0.00     0.027 C 
ATOM     32  C   UNL d   1      33.183  20.022 -20.459  0.00  0.00     0.027 C 
ENDBRANCH  29  30
ENDBRANCH  27  29
ENDBRANCH  26  27
BRANCH  26  33
ATOM     33  C   UNL d   1      32.515  22.997 -20.684  0.00  0.00     0.272 C 
ATOM     34  O   UNL d   1      32.653  23.697 -21.049  0.00  0.00    -0.282 OA
BRANCH  33  35
ATOM     35  C   UNL d   1      32.388  22.962 -19.876  0.00  0.00     0.456 C 
ATOM     36  F   UNL d   1      31.574  23.127 -20.030  0.00  0.00    -0.163 F 
ATOM     37  F   UNL d   1      33.188  22.802 -19.758  0.00  0.00    -0.163 F 
ATOM     38  F   UNL d   1      32.236  22.932 -19.080  0.00  0.00    -0.163 F 
ENDBRANCH  33  35
ENDBRANCH  26  33
ENDBRANCH   1  26
TORSDOF 9
ENDMDL
