MODEL 1
REMARK VINA RESULT:      -3.4      0.000      0.000
REMARK  5 active torsions:
REMARK  status: ('A' for Active; 'I' for Inactive)
REMARK    1  A    between atoms: C_4  and  N_1 
REMARK    2  A    between atoms: C_9  and  C_2 
REMARK    3  A    between atoms: C_14  and  C_6 
REMARK    4  A    between atoms: C_7  and  C_9 
REMARK    5  A    between atoms: O_26  and  C_22 
ROOT
ATOM      1  N   UNL d   1      58.801  -1.624  29.487  0.00  0.00    -0.254 N 
ATOM      2  C   UNL d   1      58.067  -0.670  30.073  0.00  0.00     0.101 A 
ATOM      3  C   UNL d   1      58.185  -1.992  29.894  0.00  0.00     0.305 A 
ATOM      4  C   UNL d   1      57.728  -1.405  30.259  0.00  0.00     0.256 A 
ATOM      5  C   UNL d   1      58.729  -0.805  29.597  0.00  0.00     0.081 A 
ATOM      6  O   UNL d   1      58.040  -2.805  29.938  0.00  0.00    -0.263 OA
ATOM      7  O   UNL d   1      57.053  -1.531  30.726  0.00  0.00    -0.281 OA
ENDROOT
BRANCH   2   8
ATOM      8  C   UNL d   1      57.788   0.067  30.324  0.00  0.00     0.223 C 
ATOM      9  O   UNL d   1      57.657   0.665  29.777  0.00  0.00    -0.284 OA
BRANCH   8  10
ATOM     10  C   UNL d   1      57.639   0.204  31.126  0.00  0.00     0.139 A 
ATOM     11  O   UNL d   1      56.895   0.229  31.481  0.00  0.00    -0.302 OA
ATOM     12  C   UNL d   1      57.005   0.380  32.288  0.00  0.00     0.122 A 
ATOM     13  C   UNL d   1      56.472   0.464  32.908  0.00  0.00     0.117 A 
ATOM     14  C   UNL d   1      57.813   0.446  32.426  0.00  0.00     0.027 A 
ATOM     15  C   UNL d   1      56.747   0.614  33.668  0.00  0.00     0.026 A 
ATOM     16  C   UNL d   1      57.564   0.681  33.808  0.00  0.00     0.002 A 
ATOM     17  C   UNL d   1      58.092   0.597  33.187  0.00  0.00     0.002 A 
ATOM     18  C   UNL d   1      58.205   0.338  31.710  0.00  0.00     0.030 A 
BRANCH  13  19
ATOM     19  O   UNL d   1      55.663   0.397  32.770  0.00  0.00    -0.326 OA
ATOM     20  C   UNL d   1      55.127   0.428  33.404  0.00  0.00     0.181 C 
ENDBRANCH  13  19
ENDBRANCH   8  10
ENDBRANCH   2   8
BRANCH   5  21
ATOM     21  C   UNL d   1      59.225  -0.226  29.289  0.00  0.00     0.046 A 
ATOM     22  S   UNL d   1      59.145   0.135  28.549  0.00  0.00    -0.085 SA
ATOM     23  C   UNL d   1      59.757   0.682  28.460  0.00  0.00     0.035 A 
ATOM     24  C   UNL d   1      60.219   0.660  29.151  0.00  0.00     0.007 A 
ATOM     25  C   UNL d   1      59.886   0.100  29.656  0.00  0.00     0.009 A 
ENDBRANCH   5  21
BRANCH   1  26
ATOM     26  C   UNL d   1      59.170  -2.299  29.178  0.00  0.00     0.179 A 
ATOM     27  N   UNL d   1      58.859  -2.816  28.611  0.00  0.00    -0.108 NA
ATOM     28  O   UNL d   1      59.417  -3.413  28.467  0.00  0.00    -0.210 OA
ATOM     29  C   UNL d   1      60.083  -3.265  28.950  0.00  0.00     0.128 A 
ATOM     30  C   UNL d   1      59.931  -2.582  29.386  0.00  0.00     0.067 A 
ATOM     31  C   UNL d   1      60.766  -3.724  28.981  0.00  0.00     0.029 C 
ENDBRANCH   1  26
TORSDOF 5
ENDMDL
