MODEL 1
REMARK VINA RESULT:     102.4      0.000      0.000
REMARK  5 active torsions:
REMARK  status: ('A' for Active; 'I' for Inactive)
REMARK    1  A    between atoms: C_8  and  C_1 
REMARK    2  A    between atoms: C_7  and  O_11 
REMARK    3  A    between atoms: C_9  and  C_7 
REMARK    4  A    between atoms: O_11  and  C_15 
REMARK    5  A    between atoms: O_23  and  C_18 
ROOT
ATOM      1  C   UNL d   1      58.164  48.477  50.812  0.00  0.00     0.064 A 
ATOM      2  C   UNL d   1      58.880  48.888  50.860  0.00  0.00     0.199 A 
ATOM      3  C   UNL d   1      58.163  47.667  50.656  0.00  0.00     0.103 A 
ATOM      4  C   UNL d   1      59.591  48.488  50.751  0.00  0.00     0.062 A 
ATOM      5  C   UNL d   1      59.591  47.678  50.595  0.00  0.00     0.105 A 
ATOM      6  O   UNL d   1      58.879  47.268  50.547  0.00  0.00    -0.307 OA
ATOM      7  C   UNL d   1      60.303  47.278  50.486  0.00  0.00     0.050 A 
ATOM      8  C   UNL d   1      60.304  48.898  50.799  0.00  0.00     0.007 A 
ATOM      9  O   UNL d   1      58.881  49.698  51.017  0.00  0.00    -0.286 OA
ATOM     10  C   UNL d   1      61.022  47.696  50.535  0.00  0.00     0.105 A 
ATOM     11  C   UNL d   1      61.023  48.498  50.690  0.00  0.00     0.025 A 
ATOM     12  C   UNL d   1      57.450  47.257  50.608  0.00  0.00     0.027 C 
ENDROOT
BRANCH   1  13
ATOM     13  C   UNL d   1      57.452  48.885  50.923  0.00  0.00     0.027 A 
ATOM     14  C   UNL d   1      56.976  49.081  50.278  0.00  0.00     0.094 A 
ATOM     15  C   UNL d   1      56.270  49.486  50.395  0.00  0.00     0.024 A 
ATOM     16  C   UNL d   1      56.033  49.700  51.161  0.00  0.00     0.002 A 
ATOM     17  C   UNL d   1      56.513  49.502  51.813  0.00  0.00     0.000 A 
ATOM     18  C   UNL d   1      57.220  49.097  51.696  0.00  0.00     0.002 A 
BRANCH  14  19
ATOM     19  O   UNL d   1      57.212  48.869  49.522  0.00  0.00    -0.328 OA
ATOM     20  C   UNL d   1      56.703  48.995  48.886  0.00  0.00     0.181 C 
ENDBRANCH  14  19
ENDBRANCH   1  13
BRANCH  10  21
ATOM     21  O   UNL d   1      61.738  47.289  50.424  0.00  0.00    -0.271 OA
BRANCH  21  22
ATOM     22  C   UNL d   1      61.992  47.122  49.655  0.00  0.00     0.323 C 
ATOM     23  O   UNL d   1      62.056  47.725  49.094  0.00  0.00    -0.257 OA
BRANCH  22  24
ATOM     24  C   UNL d   1      62.183  46.342  49.445  0.00  0.00     0.163 A 
ATOM     25  O   UNL d   1      62.918  45.983  49.548  0.00  0.00    -0.300 OA
ATOM     26  C   UNL d   1      62.860  45.209  49.263  0.00  0.00     0.123 A 
ATOM     27  C   UNL d   1      62.095  45.091  48.986  0.00  0.00     0.029 A 
ATOM     28  C   UNL d   1      61.672  45.795  49.099  0.00  0.00     0.032 A 
ENDBRANCH  22  24
ENDBRANCH  21  22
ENDBRANCH  10  21
TORSDOF 5
ENDMDL
