MODEL 1
REMARK VINA RESULT:      -8.7      0.000      0.000
REMARK  3 active torsions:
REMARK  status: ('A' for Active; 'I' for Inactive)
REMARK    1  A    between atoms: N_3  and  C_1 
REMARK       I    between atoms: C_5  and  N_3 
REMARK    2  A    between atoms: C_9  and  C_5 
REMARK    3  A    between atoms: O_22  and  C_20 
ROOT
ATOM      1  N   UNL d   1      51.257  34.418  52.760  0.00  0.00    -0.183 NA
ATOM      2  C   UNL d   1      50.497  34.122  52.888  0.00  0.00     0.281 C 
ATOM      3  O   UNL d   1      50.391  33.442  53.377  0.00  0.00    -0.265 OA
ENDROOT
BRANCH   1   4
ATOM      4  C   UNL d   1      51.914  34.057  53.102  0.00  0.00     0.197 A 
ATOM      5  N   UNL d   1      52.299  33.386  52.799  0.00  0.00    -0.221 NA
ATOM      6  C   UNL d   1      52.927  33.213  53.315  0.00  0.00     0.090 A 
ATOM      7  C   UNL d   1      53.495  32.616  53.299  0.00  0.00     0.022 A 
ATOM      8  C   UNL d   1      52.919  33.774  53.920  0.00  0.00     0.052 A 
ATOM      9  C   UNL d   1      54.063  32.588  53.905  0.00  0.00     0.026 A 
ATOM     10  C   UNL d   1      54.056  33.143  54.504  0.00  0.00     0.095 A 
ATOM     11  C   UNL d   1      53.486  33.747  54.527  0.00  0.00     0.032 A 
ATOM     12  S   UNL d   1      52.296  34.284  53.779  0.00  0.00    -0.047 SA
BRANCH  10  13
ATOM     13  O   UNL d   1      54.638  33.120  55.132  0.00  0.00    -0.328 OA
ATOM     14  C   UNL d   1      55.237  33.708  55.152  0.00  0.00     0.181 C 
ENDBRANCH  10  13
ENDBRANCH   1   4
BRANCH   2  15
ATOM     15  C   UNL d   1      49.839  34.483  52.546  0.00  0.00     0.059 A 
ATOM     16  C   UNL d   1      49.377  34.993  52.995  0.00  0.00     0.013 A 
ATOM     17  C   UNL d   1      48.721  35.358  52.667  0.00  0.00     0.049 A 
ATOM     18  S   UNL d   1      48.163  35.889  52.980  0.00  0.00    -0.064 SA
ATOM     19  C   UNL d   1      48.519  35.210  51.865  0.00  0.00     0.088 A 
ATOM     20  C   UNL d   1      47.626  36.060  52.369  0.00  0.00     0.135 A 
ATOM     21  N   UNL d   1      47.834  35.653  51.687  0.00  0.00    -0.236 NA
ATOM     22  C   UNL d   1      48.978  34.697  51.402  0.00  0.00     0.020 A 
ATOM     23  C   UNL d   1      49.636  34.336  51.745  0.00  0.00     0.006 A 
ENDBRANCH   2  15
TORSDOF 3
ENDMDL
MODEL 2
REMARK VINA RESULT:      -8.3      1.350      5.303
REMARK  3 active torsions:
REMARK  status: ('A' for Active; 'I' for Inactive)
REMARK    1  A    between atoms: N_3  and  C_1 
REMARK       I    between atoms: C_5  and  N_3 
REMARK    2  A    between atoms: C_9  and  C_5 
REMARK    3  A    between atoms: O_22  and  C_20 
ROOT
ATOM      1  N   UNL d   1      51.307  34.124  52.703  0.00  0.00    -0.183 NA
ATOM      2  C   UNL d   1      51.408  33.433  53.143  0.00  0.00     0.281 C 
ATOM      3  O   UNL d   1      50.732  32.978  53.365  0.00  0.00    -0.265 OA
ENDROOT
BRANCH   1   4
ATOM      4  C   UNL d   1      50.555  34.375  52.477  0.00  0.00     0.197 A 
ATOM      5  N   UNL d   1      50.208  34.228  51.738  0.00  0.00    -0.221 NA
ATOM      6  C   UNL d   1      49.455  34.579  51.750  0.00  0.00     0.090 A 
ATOM      7  C   UNL d   1      48.862  34.614  51.177  0.00  0.00     0.022 A 
ATOM      8  C   UNL d   1      49.352  34.933  52.488  0.00  0.00     0.052 A 
ATOM      9  C   UNL d   1      48.156  35.014  51.357  0.00  0.00     0.026 A 
ATOM     10  C   UNL d   1      48.054  35.364  52.088  0.00  0.00     0.095 A 
ATOM     11  C   UNL d   1      48.646  35.333  52.669  0.00  0.00     0.032 A 
ATOM     12  S   UNL d   1      50.030  34.802  52.923  0.00  0.00    -0.047 SA
BRANCH  10  13
ATOM     13  O   UNL d   1      47.329  35.777  52.280  0.00  0.00    -0.328 OA
ATOM     14  C   UNL d   1      46.706  35.788  51.717  0.00  0.00     0.181 C 
ENDBRANCH  10  13
ENDBRANCH   1   4
BRANCH   2  15
ATOM     15  C   UNL d   1      52.160  33.181  53.369  0.00  0.00     0.059 A 
ATOM     16  C   UNL d   1      52.563  33.586  53.959  0.00  0.00     0.013 A 
ATOM     17  C   UNL d   1      53.310  33.347  54.193  0.00  0.00     0.049 A 
ATOM     18  S   UNL d   1      53.839  33.642  54.762  0.00  0.00    -0.064 SA
ATOM     19  C   UNL d   1      53.668  32.680  53.827  0.00  0.00     0.088 A 
ATOM     20  C   UNL d   1      54.513  33.157  54.739  0.00  0.00     0.135 A 
ATOM     21  N   UNL d   1      54.419  32.569  54.174  0.00  0.00    -0.236 NA
ATOM     22  C   UNL d   1      53.271  32.262  53.230  0.00  0.00     0.020 A 
ATOM     23  C   UNL d   1      52.518  32.515  53.004  0.00  0.00     0.006 A 
ENDBRANCH   2  15
TORSDOF 3
ENDMDL
MODEL 3
REMARK VINA RESULT:      -6.5     10.451     11.031
REMARK  3 active torsions:
REMARK  status: ('A' for Active; 'I' for Inactive)
REMARK    1  A    between atoms: N_3  and  C_1 
REMARK       I    between atoms: C_5  and  N_3 
REMARK    2  A    between atoms: C_9  and  C_5 
REMARK    3  A    between atoms: O_22  and  C_20 
ROOT
ATOM      1  N   UNL d   1      44.442  26.992  56.849  0.00  0.00    -0.183 NA
ATOM      2  C   UNL d   1      45.107  27.472  56.946  0.00  0.00     0.281 C 
ATOM      3  O   UNL d   1      45.877  27.140  56.853  0.00  0.00    -0.265 OA
ENDROOT
BRANCH   1   4
ATOM      4  C   UNL d   1      44.521  26.192  56.663  0.00  0.00     0.197 A 
ATOM      5  N   UNL d   1      44.701  25.896  55.908  0.00  0.00    -0.221 NA
ATOM      6  C   UNL d   1      44.726  25.068  55.973  0.00  0.00     0.090 A 
ATOM      7  C   UNL d   1      44.877  24.483  55.412  0.00  0.00     0.022 A 
ATOM      8  C   UNL d   1      44.564  24.870  56.758  0.00  0.00     0.052 A 
ATOM      9  C   UNL d   1      44.863  23.687  55.650  0.00  0.00     0.026 A 
ATOM     10  C   UNL d   1      44.703  23.491  56.426  0.00  0.00     0.095 A 
ATOM     11  C   UNL d   1      44.550  24.074  56.997  0.00  0.00     0.032 A 
ATOM     12  S   UNL d   1      44.441  25.565  57.169  0.00  0.00    -0.047 SA
BRANCH  10  13
ATOM     13  O   UNL d   1      44.686  22.673  56.679  0.00  0.00    -0.328 OA
ATOM     14  C   UNL d   1      45.323  22.169  56.466  0.00  0.00     0.181 C 
ENDBRANCH  10  13
ENDBRANCH   1   4
BRANCH   2  15
ATOM     15  C   UNL d   1      45.028  28.271  57.132  0.00  0.00     0.059 A 
ATOM     16  C   UNL d   1      45.133  28.520  57.908  0.00  0.00     0.013 A 
ATOM     17  C   UNL d   1      45.058  29.310  58.106  0.00  0.00     0.049 A 
ATOM     18  S   UNL d   1      45.132  29.715  58.828  0.00  0.00    -0.064 SA
ATOM     19  C   UNL d   1      44.871  29.873  57.510  0.00  0.00     0.088 A 
ATOM     20  C   UNL d   1      44.990  30.518  58.670  0.00  0.00     0.135 A 
ATOM     21  N   UNL d   1      44.830  30.625  57.871  0.00  0.00    -0.236 NA
ATOM     22  C   UNL d   1      44.762  29.635  56.723  0.00  0.00     0.020 A 
ATOM     23  C   UNL d   1      44.841  28.834  56.537  0.00  0.00     0.006 A 
ENDBRANCH   2  15
TORSDOF 3
ENDMDL
MODEL 4
REMARK VINA RESULT:      -6.2     10.259     10.971
REMARK  3 active torsions:
REMARK  status: ('A' for Active; 'I' for Inactive)
REMARK    1  A    between atoms: N_3  and  C_1 
REMARK       I    between atoms: C_5  and  N_3 
REMARK    2  A    between atoms: C_9  and  C_5 
REMARK    3  A    between atoms: O_22  and  C_20 
ROOT
ATOM      1  N   UNL d   1      44.382  28.043  57.976  0.00  0.00    -0.183 NA
ATOM      2  C   UNL d   1      45.045  28.399  58.314  0.00  0.00     0.281 C 
ATOM      3  O   UNL d   1      45.793  28.009  58.275  0.00  0.00    -0.265 OA
ENDROOT
BRANCH   1   4
ATOM      4  C   UNL d   1      44.440  27.311  57.601  0.00  0.00     0.197 A 
ATOM      5  N   UNL d   1      44.324  26.577  57.973  0.00  0.00    -0.221 NA
ATOM      6  C   UNL d   1      44.435  25.992  57.394  0.00  0.00     0.090 A 
ATOM      7  C   UNL d   1      44.393  25.170  57.436  0.00  0.00     0.022 A 
ATOM      8  C   UNL d   1      44.616  26.371  56.683  0.00  0.00     0.052 A 
ATOM      9  C   UNL d   1      44.535  24.726  56.748  0.00  0.00     0.026 A 
ATOM     10  C   UNL d   1      44.713  25.100  56.045  0.00  0.00     0.095 A 
ATOM     11  C   UNL d   1      44.758  25.927  55.994  0.00  0.00     0.032 A 
ATOM     12  S   UNL d   1      44.616  27.175  56.822  0.00  0.00    -0.047 SA
BRANCH  10  13
ATOM     13  O   UNL d   1      44.861  24.649  55.332  0.00  0.00    -0.328 OA
ATOM     14  C   UNL d   1      44.813  23.811  55.363  0.00  0.00     0.181 C 
ENDBRANCH  10  13
ENDBRANCH   1   4
BRANCH   2  15
ATOM     15  C   UNL d   1      44.987  29.131  58.688  0.00  0.00     0.059 A 
ATOM     16  C   UNL d   1      44.781  29.165  59.483  0.00  0.00     0.013 A 
ATOM     17  C   UNL d   1      44.720  29.886  59.867  0.00  0.00     0.049 A 
ATOM     18  S   UNL d   1      44.527  30.087  60.650  0.00  0.00    -0.064 SA
ATOM     19  C   UNL d   1      44.870  30.597  59.445  0.00  0.00     0.088 A 
ATOM     20  C   UNL d   1      44.559  30.916  60.700  0.00  0.00     0.135 A 
ATOM     21  N   UNL d   1      44.767  31.236  59.973  0.00  0.00    -0.236 NA
ATOM     22  C   UNL d   1      45.079  30.576  58.642  0.00  0.00     0.020 A 
ATOM     23  C   UNL d   1      45.137  29.843  58.268  0.00  0.00     0.006 A 
ENDBRANCH   2  15
TORSDOF 3
ENDMDL
MODEL 5
REMARK VINA RESULT:      -5.9     10.088     11.011
REMARK  3 active torsions:
REMARK  status: ('A' for Active; 'I' for Inactive)
REMARK    1  A    between atoms: N_3  and  C_1 
REMARK       I    between atoms: C_5  and  N_3 
REMARK    2  A    between atoms: C_9  and  C_5 
REMARK    3  A    between atoms: O_22  and  C_20 
ROOT
ATOM      1  N   UNL d   1      44.314  27.076  56.787  0.00  0.00    -0.183 NA
ATOM      2  C   UNL d   1      44.952  26.560  56.693  0.00  0.00     0.281 C 
ATOM      3  O   UNL d   1      45.738  26.866  56.696  0.00  0.00    -0.265 OA
ENDROOT
BRANCH   1   4
ATOM      4  C   UNL d   1      44.435  27.885  56.884  0.00  0.00     0.197 A 
ATOM      5  N   UNL d   1      44.423  28.444  56.270  0.00  0.00    -0.221 NA
ATOM      6  C   UNL d   1      44.570  29.186  56.615  0.00  0.00     0.090 A 
ATOM      7  C   UNL d   1      44.624  29.939  56.283  0.00  0.00     0.022 A 
ATOM      8  C   UNL d   1      44.670  29.073  57.427  0.00  0.00     0.052 A 
ATOM      9  C   UNL d   1      44.780  30.585  56.782  0.00  0.00     0.026 A 
ATOM     10  C   UNL d   1      44.878  30.474  57.584  0.00  0.00     0.095 A 
ATOM     11  C   UNL d   1      44.826  29.718  57.926  0.00  0.00     0.032 A 
ATOM     12  S   UNL d   1      44.585  28.275  57.579  0.00  0.00    -0.047 SA
BRANCH  10  13
ATOM     13  O   UNL d   1      45.039  31.135  58.104  0.00  0.00    -0.328 OA
ATOM     14  C   UNL d   1      44.543  31.812  58.067  0.00  0.00     0.181 C 
ENDBRANCH  10  13
ENDBRANCH   1   4
BRANCH   2  15
ATOM     15  C   UNL d   1      44.830  25.750  56.595  0.00  0.00     0.059 A 
ATOM     16  C   UNL d   1      44.833  25.428  55.839  0.00  0.00     0.013 A 
ATOM     17  C   UNL d   1      44.713  24.626  55.728  0.00  0.00     0.049 A 
ATOM     18  S   UNL d   1      44.687  24.154  55.045  0.00  0.00    -0.064 SA
ATOM     19  C   UNL d   1      44.588  24.127  56.393  0.00  0.00     0.088 A 
ATOM     20  C   UNL d   1      44.546  23.375  55.295  0.00  0.00     0.135 A 
ATOM     21  N   UNL d   1      44.484  23.347  56.113  0.00  0.00    -0.236 NA
ATOM     22  C   UNL d   1      44.583  24.441  57.161  0.00  0.00     0.020 A 
ATOM     23  C   UNL d   1      44.705  25.251  57.259  0.00  0.00     0.006 A 
ENDBRANCH   2  15
TORSDOF 3
ENDMDL
MODEL 6
REMARK VINA RESULT:      -5.8     10.205     10.817
REMARK  3 active torsions:
REMARK  status: ('A' for Active; 'I' for Inactive)
REMARK    1  A    between atoms: N_3  and  C_1 
REMARK       I    between atoms: C_5  and  N_3 
REMARK    2  A    between atoms: C_9  and  C_5 
REMARK    3  A    between atoms: O_22  and  C_20 
ROOT
ATOM      1  N   UNL d   1      44.314  29.637  59.439  0.00  0.00    -0.183 NA
ATOM      2  C   UNL d   1      44.849  30.170  59.107  0.00  0.00     0.281 C 
ATOM      3  O   UNL d   1      45.466  30.492  59.584  0.00  0.00    -0.265 OA
ENDROOT
BRANCH   1   4
ATOM      4  C   UNL d   1      44.375  29.414  60.231  0.00  0.00     0.197 A 
ATOM      5  N   UNL d   1      44.503  29.938  60.862  0.00  0.00    -0.221 NA
ATOM      6  C   UNL d   1      44.527  29.480  61.555  0.00  0.00     0.090 A 
ATOM      7  C   UNL d   1      44.637  29.693  62.344  0.00  0.00     0.022 A 
ATOM      8  C   UNL d   1      44.415  28.691  61.342  0.00  0.00     0.052 A 
ATOM      9  C   UNL d   1      44.633  29.097  62.924  0.00  0.00     0.026 A 
ATOM     10  C   UNL d   1      44.522  28.316  62.712  0.00  0.00     0.095 A 
ATOM     11  C   UNL d   1      44.411  28.094  61.920  0.00  0.00     0.032 A 
ATOM     12  S   UNL d   1      44.324  28.663  60.530  0.00  0.00    -0.047 SA
BRANCH  10  13
ATOM     13  O   UNL d   1      44.517  27.697  63.304  0.00  0.00    -0.328 OA
ATOM     14  C   UNL d   1      44.513  27.910  64.116  0.00  0.00     0.181 C 
ENDBRANCH  10  13
ENDBRANCH   1   4
BRANCH   2  15
ATOM     15  C   UNL d   1      44.788  30.393  58.315  0.00  0.00     0.059 A 
ATOM     16  C   UNL d   1      44.705  29.815  57.737  0.00  0.00     0.013 A 
ATOM     17  C   UNL d   1      44.643  30.023  56.947  0.00  0.00     0.049 A 
ATOM     18  S   UNL d   1      44.557  29.570  56.256  0.00  0.00    -0.064 SA
ATOM     19  C   UNL d   1      44.664  30.833  56.726  0.00  0.00     0.088 A 
ATOM     20  C   UNL d   1      44.526  30.104  55.621  0.00  0.00     0.135 A 
ATOM     21  N   UNL d   1      44.590  30.875  55.895  0.00  0.00    -0.236 NA
ATOM     22  C   UNL d   1      44.748  31.426  57.301  0.00  0.00     0.020 A 
ATOM     23  C   UNL d   1      44.809  31.203  58.094  0.00  0.00     0.006 A 
ENDBRANCH   2  15
TORSDOF 3
ENDMDL
MODEL 7
REMARK VINA RESULT:      -5.8      1.624      5.664
REMARK  3 active torsions:
REMARK  status: ('A' for Active; 'I' for Inactive)
REMARK    1  A    between atoms: N_3  and  C_1 
REMARK       I    between atoms: C_5  and  N_3 
REMARK    2  A    between atoms: C_9  and  C_5 
REMARK    3  A    between atoms: O_22  and  C_20 
ROOT
ATOM      1  N   UNL d   1      49.623  34.500  53.132  0.00  0.00    -0.183 NA
ATOM      2  C   UNL d   1      50.348  34.571  52.745  0.00  0.00     0.281 C 
ATOM      3  O   UNL d   1      50.426  35.115  52.104  0.00  0.00    -0.265 OA
ENDROOT
BRANCH   1   4
ATOM      4  C   UNL d   1      48.974  34.954  52.902  0.00  0.00     0.197 A 
ATOM      5  N   UNL d   1      48.721  35.647  53.283  0.00  0.00    -0.221 NA
ATOM      6  C   UNL d   1      48.053  35.920  52.870  0.00  0.00     0.090 A 
ATOM      7  C   UNL d   1      47.571  36.577  52.990  0.00  0.00     0.022 A 
ATOM      8  C   UNL d   1      47.908  35.396  52.248  0.00  0.00     0.052 A 
ATOM      9  C   UNL d   1      46.933  36.705  52.473  0.00  0.00     0.026 A 
ATOM     10  C   UNL d   1      46.789  36.187  51.859  0.00  0.00     0.095 A 
ATOM     11  C   UNL d   1      47.270  35.523  51.731  0.00  0.00     0.032 A 
ATOM     12  S   UNL d   1      48.477  34.811  52.279  0.00  0.00    -0.047 SA
BRANCH  10  13
ATOM     13  O   UNL d   1      46.133  36.313  51.322  0.00  0.00    -0.328 OA
ATOM     14  C   UNL d   1      45.407  36.605  51.628  0.00  0.00     0.181 C 
ENDBRANCH  10  13
ENDBRANCH   1   4
BRANCH   2  15
ATOM     15  C   UNL d   1      50.997  34.117  52.975  0.00  0.00     0.059 A 
ATOM     16  C   UNL d   1      51.664  34.488  53.281  0.00  0.00     0.013 A 
ATOM     17  C   UNL d   1      52.314  34.049  53.513  0.00  0.00     0.049 A 
ATOM     18  S   UNL d   1      53.049  34.267  53.834  0.00  0.00    -0.064 SA
ATOM     19  C   UNL d   1      52.301  33.212  53.438  0.00  0.00     0.088 A 
ATOM     20  C   UNL d   1      53.478  33.566  53.953  0.00  0.00     0.135 A 
ATOM     21  N   UNL d   1      53.032  32.918  53.715  0.00  0.00    -0.236 NA
ATOM     22  C   UNL d   1      51.634  32.826  53.131  0.00  0.00     0.020 A 
ATOM     23  C   UNL d   1      50.985  33.281  52.901  0.00  0.00     0.006 A 
ENDBRANCH   2  15
TORSDOF 3
ENDMDL
MODEL 8
REMARK VINA RESULT:      -5.8     10.406     11.173
REMARK  3 active torsions:
REMARK  status: ('A' for Active; 'I' for Inactive)
REMARK    1  A    between atoms: N_3  and  C_1 
REMARK       I    between atoms: C_5  and  N_3 
REMARK    2  A    between atoms: C_9  and  C_5 
REMARK    3  A    between atoms: O_22  and  C_20 
ROOT
ATOM      1  N   UNL d   1      44.355  28.640  59.093  0.00  0.00    -0.183 NA
ATOM      2  C   UNL d   1      45.005  28.546  58.593  0.00  0.00     0.281 C 
ATOM      3  O   UNL d   1      45.686  29.033  58.699  0.00  0.00    -0.265 OA
ENDROOT
BRANCH   1   4
ATOM      4  C   UNL d   1      44.362  29.204  59.695  0.00  0.00     0.197 A 
ATOM      5  N   UNL d   1      44.314  30.024  59.576  0.00  0.00    -0.221 NA
ATOM      6  C   UNL d   1      44.341  30.379  60.327  0.00  0.00     0.090 A 
ATOM      7  C   UNL d   1      44.314  31.171  60.556  0.00  0.00     0.022 A 
ATOM      8  C   UNL d   1      44.404  29.778  60.889  0.00  0.00     0.052 A 
ATOM      9  C   UNL d   1      44.353  31.355  61.365  0.00  0.00     0.026 A 
ATOM     10  C   UNL d   1      44.416  30.761  61.921  0.00  0.00     0.095 A 
ATOM     11  C   UNL d   1      44.443  29.961  61.699  0.00  0.00     0.032 A 
ATOM     12  S   UNL d   1      44.416  29.065  60.491  0.00  0.00    -0.047 SA
BRANCH  10  13
ATOM     13  O   UNL d   1      44.456  30.943  62.757  0.00  0.00    -0.328 OA
ATOM     14  C   UNL d   1      44.465  31.748  62.998  0.00  0.00     0.181 C 
ENDBRANCH  10  13
ENDBRANCH   1   4
BRANCH   2  15
ATOM     15  C   UNL d   1      44.998  27.982  57.992  0.00  0.00     0.059 A 
ATOM     16  C   UNL d   1      44.787  27.206  58.165  0.00  0.00     0.013 A 
ATOM     17  C   UNL d   1      44.776  26.637  57.577  0.00  0.00     0.049 A 
ATOM     18  S   UNL d   1      44.590  25.827  57.588  0.00  0.00    -0.064 SA
ATOM     19  C   UNL d   1      44.981  26.846  56.790  0.00  0.00     0.088 A 
ATOM     20  C   UNL d   1      44.683  25.548  56.811  0.00  0.00     0.135 A 
ATOM     21  N   UNL d   1      44.921  26.160  56.317  0.00  0.00    -0.236 NA
ATOM     22  C   UNL d   1      45.196  27.626  56.602  0.00  0.00     0.020 A 
ATOM     23  C   UNL d   1      45.203  28.190  57.205  0.00  0.00     0.006 A 
ENDBRANCH   2  15
TORSDOF 3
ENDMDL
MODEL 9
REMARK VINA RESULT:      -5.7     10.291     11.250
REMARK  3 active torsions:
REMARK  status: ('A' for Active; 'I' for Inactive)
REMARK    1  A    between atoms: N_3  and  C_1 
REMARK       I    between atoms: C_5  and  N_3 
REMARK    2  A    between atoms: C_9  and  C_5 
REMARK    3  A    between atoms: O_22  and  C_20 
ROOT
ATOM      1  N   UNL d   1      44.315  29.788  60.370  0.00  0.00    -0.183 NA
ATOM      2  C   UNL d   1      44.800  30.265  60.837  0.00  0.00     0.281 C 
ATOM      3  O   UNL d   1      45.430  30.697  60.476  0.00  0.00    -0.265 OA
ENDROOT
BRANCH   1   4
ATOM      4  C   UNL d   1      44.436  29.728  59.557  0.00  0.00     0.197 A 
ATOM      5  N   UNL d   1      44.639  29.029  59.158  0.00  0.00    -0.221 NA
ATOM      6  C   UNL d   1      44.706  29.221  58.352  0.00  0.00     0.090 A 
ATOM      7  C   UNL d   1      44.893  28.757  57.696  0.00  0.00     0.022 A 
ATOM      8  C   UNL d   1      44.544  30.026  58.269  0.00  0.00     0.052 A 
ATOM      9  C   UNL d   1      44.916  29.116  56.946  0.00  0.00     0.026 A 
ATOM     10  C   UNL d   1      44.756  29.912  56.864  0.00  0.00     0.095 A 
ATOM     11  C   UNL d   1      44.567  30.385  57.520  0.00  0.00     0.032 A 
ATOM     12  S   UNL d   1      44.381  30.325  59.011  0.00  0.00    -0.047 SA
BRANCH  10  13
ATOM     13  O   UNL d   1      44.778  30.288  56.095  0.00  0.00    -0.328 OA
ATOM     14  C   UNL d   1      44.330  29.956  55.467  0.00  0.00     0.181 C 
ENDBRANCH  10  13
ENDBRANCH   1   4
BRANCH   2  15
ATOM     15  C   UNL d   1      44.679  30.325  61.650  0.00  0.00     0.059 A 
ATOM     16  C   UNL d   1      44.631  31.067  62.000  0.00  0.00     0.013 A 
ATOM     17  C   UNL d   1      44.511  31.140  62.806  0.00  0.00     0.049 A 
ATOM     18  S   UNL d   1      44.440  31.803  63.302  0.00  0.00    -0.064 SA
ATOM     19  C   UNL d   1      44.436  30.451  63.281  0.00  0.00     0.088 A 
ATOM     20  C   UNL d   1      44.323  31.516  64.072  0.00  0.00     0.135 A 
ATOM     21  N   UNL d   1      44.319  30.695  64.071  0.00  0.00    -0.236 NA
ATOM     22  C   UNL d   1      44.482  29.696  62.939  0.00  0.00     0.020 A 
ATOM     23  C   UNL d   1      44.604  29.637  62.125  0.00  0.00     0.006 A 
ENDBRANCH   2  15
TORSDOF 3
ENDMDL
