MODEL 1
REMARK VINA RESULT:     122.7      0.000      0.000
REMARK  3 active torsions:
REMARK  status: ('A' for Active; 'I' for Inactive)
REMARK       I    between atoms: C_3  and  N_1 
REMARK       I    between atoms: C_2  and  N_7 
REMARK    1  A    between atoms: C_4  and  C_2 
REMARK    2  A    between atoms: C_6  and  C_3 
REMARK    3  A    between atoms: N_7  and  C_15 
ROOT
ATOM      1  N   UNL d   1      62.065  43.950  50.262  0.00  0.00    -0.273 N 
ATOM      2  C   UNL d   1      62.095  43.409  50.889  0.00  0.00     0.271 C 
ATOM      3  C   UNL d   1      61.687  44.677  50.353  0.00  0.00     0.067 A 
ATOM      4  C   UNL d   1      61.660  45.209  49.727  0.00  0.00     0.018 A 
ATOM      5  C   UNL d   1      61.337  44.863  51.075  0.00  0.00     0.019 A 
ATOM      6  O   UNL d   1      61.746  43.590  51.618  0.00  0.00    -0.266 OA
ATOM      7  C   UNL d   1      60.926  46.129  50.548  0.00  0.00     0.085 A 
ATOM      8  C   UNL d   1      61.281  45.936  49.821  0.00  0.00     0.021 A 
ATOM      9  C   UNL d   1      62.415  43.769  49.534  0.00  0.00     0.083 A 
ATOM     10  C   UNL d   1      60.959  45.585  51.173  0.00  0.00     0.021 A 
ATOM     11  C   UNL d   1      62.007  45.026  49.009  0.00  0.00     0.003 A 
ATOM     12  C   UNL d   1      62.388  44.300  48.911  0.00  0.00     0.019 A 
ENDROOT
BRANCH   7  13
ATOM     13  N   UNL d   1      60.552  46.848  50.638  0.00  0.00    -0.208 NA
ATOM     14  C   UNL d   1      60.990  47.522  50.817  0.00  0.00     0.282 C 
ATOM     15  O   UNL d   1      61.806  47.477  50.908  0.00  0.00    -0.265 OA
BRANCH  14  16
ATOM     16  C   UNL d   1      60.619  48.244  50.908  0.00  0.00     0.096 A 
ATOM     17  C   UNL d   1      60.824  48.886  50.418  0.00  0.00     0.065 A 
ATOM     18 CL   UNL d   1      61.403  48.784  49.841  0.00  0.00    -0.082 Cl
ATOM     19  C   UNL d   1      60.452  49.612  50.509  0.00  0.00     0.012 A 
ATOM     20  C   UNL d   1      59.872  49.704  51.091  0.00  0.00     0.003 A 
ATOM     21  C   UNL d   1      59.670  49.064  51.577  0.00  0.00     0.030 A 
ATOM     22  C   UNL d   1      60.046  48.335  51.483  0.00  0.00     0.146 A 
ATOM     23  F   UNL d   1      59.834  47.702  51.977  0.00  0.00    -0.204 F 
ENDBRANCH  14  16
ENDBRANCH   7  13
BRANCH   2  24
ATOM     24  C   UNL d   1      62.479  42.682  50.786  0.00  0.00     0.086 A 
ATOM     25  S   UNL d   1      62.853  42.240  51.391  0.00  0.00    -0.082 SA
ATOM     26  C   UNL d   1      63.157  41.558  51.036  0.00  0.00     0.036 A 
ATOM     27  C   UNL d   1      62.982  41.566  50.230  0.00  0.00     0.008 A 
ATOM     28  C   UNL d   1      62.561  42.263  50.077  0.00  0.00     0.012 A 
ENDBRANCH   2  24
TORSDOF 3
ENDMDL
