MODEL 1
REMARK VINA RESULT:      55.9      0.000      0.000
REMARK  6 active torsions:
REMARK  status: ('A' for Active; 'I' for Inactive)
REMARK    1  A    between atoms: C_2  and  S_1 
REMARK    2  A    between atoms: N_3  and  S_1 
REMARK    3  A    between atoms: C_5  and  C_6 
REMARK    4  A    between atoms: O_13  and  C_5 
REMARK    5  A    between atoms: C_22  and  O_13 
REMARK    6  A    between atoms: C_21  and  C_22 
ROOT
ATOM      1  C   UNL d   1     -51.408  26.249  33.444  0.00  0.00     0.104 A 
ATOM      2  C   UNL d   1     -50.591  26.322  33.528  0.00  0.00     0.018 A 
ATOM      3  C   UNL d   1     -50.243  27.072  33.556  0.00  0.00     0.064 A 
ATOM      4  C   UNL d   1     -51.871  26.921  33.389  0.00  0.00     0.012 A 
ATOM      5  C   UNL d   1     -50.714  27.748  33.500  0.00  0.00     0.005 A 
ATOM      6  C   UNL d   1     -51.527  27.663  33.417  0.00  0.00     0.001 A 
ATOM      7  C   UNL d   1     -52.688  26.847  33.306  0.00  0.00     0.001 C 
ENDROOT
BRANCH   3   8
ATOM      8  C   UNL d   1     -49.426  27.146  33.639  0.00  0.00     0.300 C 
ATOM      9  O   UNL d   1     -48.938  26.493  33.499  0.00  0.00    -0.259 OA
BRANCH   8  10
ATOM     10  O   UNL d   1     -49.097  27.867  33.862  0.00  0.00    -0.271 OA
BRANCH  10  11
ATOM     11  C   UNL d   1     -48.432  27.882  34.344  0.00  0.00     0.126 C 
BRANCH  11  12
ATOM     12  C   UNL d   1     -48.244  28.563  34.771  0.00  0.00     0.027 A 
ATOM     13  C   UNL d   1     -47.598  28.566  35.267  0.00  0.00     0.028 A 
ATOM     14  C   UNL d   1     -47.405  29.244  35.697  0.00  0.00     0.119 A 
ATOM     15  O   UNL d   1     -46.794  29.413  36.236  0.00  0.00    -0.300 OA
ATOM     16  C   UNL d   1     -47.873  29.921  35.619  0.00  0.00     0.119 A 
ATOM     17  C   UNL d   1     -46.891  30.199  36.487  0.00  0.00     0.304 A 
ATOM     18  O   UNL d   1     -47.555  30.509  36.107  0.00  0.00    -0.300 OA
ATOM     19  C   UNL d   1     -48.532  29.921  35.113  0.00  0.00     0.026 A 
ATOM     20  C   UNL d   1     -48.714  29.237  34.690  0.00  0.00     0.004 A 
ENDBRANCH  11  12
ENDBRANCH  10  11
ENDBRANCH   8  10
ENDBRANCH   3   8
BRANCH   1  21
ATOM     21  S   UNL d   1     -51.753  25.502  33.416  0.00  0.00     0.271 S 
ATOM     22  O   UNL d   1     -51.002  25.151  33.508  0.00  0.00    -0.200 OA
ATOM     23  O   UNL d   1     -52.603  25.900  33.312  0.00  0.00    -0.200 OA
BRANCH  21  24
ATOM     24  N   UNL d   1     -52.146  24.784  33.382  0.00  0.00    -0.229 N 
ATOM     25  C   UNL d   1     -52.970  24.758  33.390  0.00  0.00     0.092 A 
ATOM     26  C   UNL d   1     -53.359  24.031  33.356  0.00  0.00     0.020 A 
ATOM     27  C   UNL d   1     -52.926  23.336  33.314  0.00  0.00     0.003 A 
ATOM     28  C   UNL d   1     -52.107  23.365  33.306  0.00  0.00     0.020 A 
ATOM     29  C   UNL d   1     -51.718  24.082  33.340  0.00  0.00     0.092 A 
ENDBRANCH  21  24
ENDBRANCH   1  21
TORSDOF 6
ENDMDL
MODEL 2
REMARK VINA RESULT:      57.3      1.007      1.493
REMARK  6 active torsions:
REMARK  status: ('A' for Active; 'I' for Inactive)
REMARK    1  A    between atoms: C_2  and  S_1 
REMARK    2  A    between atoms: N_3  and  S_1 
REMARK    3  A    between atoms: C_5  and  C_6 
REMARK    4  A    between atoms: O_13  and  C_5 
REMARK    5  A    between atoms: C_22  and  O_13 
REMARK    6  A    between atoms: C_21  and  C_22 
ROOT
ATOM      1  C   UNL d   1     -50.668  26.518  33.789  0.00  0.00     0.104 A 
ATOM      2  C   UNL d   1     -49.930  26.730  34.091  0.00  0.00     0.018 A 
ATOM      3  C   UNL d   1     -49.751  27.526  34.225  0.00  0.00     0.064 A 
ATOM      4  C   UNL d   1     -51.219  27.099  33.624  0.00  0.00     0.012 A 
ATOM      5  C   UNL d   1     -50.310  28.109  34.058  0.00  0.00     0.005 A 
ATOM      6  C   UNL d   1     -51.042  27.888  33.757  0.00  0.00     0.001 A 
ATOM      7  C   UNL d   1     -51.957  26.888  33.322  0.00  0.00     0.001 C 
ENDROOT
BRANCH   3   8
ATOM      8  C   UNL d   1     -49.013  27.738  34.527  0.00  0.00     0.300 C 
ATOM      9  O   UNL d   1     -48.358  27.252  34.390  0.00  0.00    -0.259 OA
BRANCH   8  10
ATOM     10  O   UNL d   1     -48.929  28.430  34.964  0.00  0.00    -0.271 OA
BRANCH  10  11
ATOM     11  C   UNL d   1     -48.216  28.595  35.337  0.00  0.00     0.126 C 
BRANCH  11  12
ATOM     12  C   UNL d   1     -47.908  29.361  35.327  0.00  0.00     0.027 A 
ATOM     13  C   UNL d   1     -48.246  29.929  34.851  0.00  0.00     0.028 A 
ATOM     14  C   UNL d   1     -47.942  30.697  34.837  0.00  0.00     0.119 A 
ATOM     15  O   UNL d   1     -48.163  31.381  34.418  0.00  0.00    -0.300 OA
ATOM     16  C   UNL d   1     -47.291  30.884  35.311  0.00  0.00     0.119 A 
ATOM     17  C   UNL d   1     -47.642  31.989  34.639  0.00  0.00     0.304 A 
ATOM     18  O   UNL d   1     -47.108  31.682  35.188  0.00  0.00    -0.300 OA
ATOM     19  C   UNL d   1     -46.945  30.307  35.798  0.00  0.00     0.026 A 
ATOM     20  C   UNL d   1     -47.258  29.544  35.802  0.00  0.00     0.004 A 
ENDBRANCH  11  12
ENDBRANCH  10  11
ENDBRANCH   8  10
ENDBRANCH   3   8
BRANCH   1  21
ATOM     21  S   UNL d   1     -50.846  25.726  33.655  0.00  0.00     0.271 S 
ATOM     22  O   UNL d   1     -50.092  25.614  33.314  0.00  0.00    -0.200 OA
ATOM     23  O   UNL d   1     -51.699  25.853  34.040  0.00  0.00    -0.200 OA
BRANCH  21  24
ATOM     24  N   UNL d   1     -51.073  24.946  33.544  0.00  0.00    -0.229 N 
ATOM     25  C   UNL d   1     -50.506  24.358  33.439  0.00  0.00     0.092 A 
ATOM     26  C   UNL d   1     -50.742  23.575  33.328  0.00  0.00     0.020 A 
ATOM     27  C   UNL d   1     -51.539  23.384  33.322  0.00  0.00     0.003 A 
ATOM     28  C   UNL d   1     -52.101  23.971  33.427  0.00  0.00     0.020 A 
ATOM     29  C   UNL d   1     -51.872  24.747  33.537  0.00  0.00     0.092 A 
ENDBRANCH  21  24
ENDBRANCH   1  21
TORSDOF 6
ENDMDL
