MODEL 1
REMARK VINA RESULT:      -9.0      0.000      0.000
REMARK  4 active torsions:
REMARK  status: ('A' for Active; 'I' for Inactive)
REMARK    1  A    between atoms: C_10  and  C_3 
REMARK       I    between atoms: N_11  and  C_10 
REMARK    2  A    between atoms: C_15  and  N_11 
REMARK    3  A    between atoms: C_17  and  C_15 
REMARK    4  A    between atoms: O_25  and  C_18 
ROOT
ATOM      1  C   UNL d   1      53.011  33.206  53.431  0.00  0.00     0.071 A 
ATOM      2  C   UNL d   1      53.273  33.115  54.231  0.00  0.00     0.142 A 
ATOM      3  C   UNL d   1      52.885  34.009  53.289  0.00  0.00     0.086 A 
ATOM      4  C   UNL d   1      52.928  32.549  52.951  0.00  0.00     0.198 A 
ATOM      5  O   UNL d   1      53.307  33.861  54.582  0.00  0.00    -0.304 OA
ATOM      6  C   UNL d   1      53.066  34.403  53.993  0.00  0.00     0.105 A 
ATOM      7  C   UNL d   1      53.438  32.370  54.514  0.00  0.00     0.218 A 
ATOM      8  C   UNL d   1      53.096  31.795  53.242  0.00  0.00     0.042 A 
ATOM      9  C   UNL d   1      53.358  31.703  54.042  0.00  0.00     0.044 A 
ATOM     10  O   UNL d   1      52.672  32.638  52.170  0.00  0.00    -0.286 OA
ATOM     11  O   UNL d   1      53.693  32.281  55.296  0.00  0.00    -0.284 OA
ATOM     12  C   UNL d   1      53.017  35.221  54.103  0.00  0.00     0.027 C 
ATOM     13  C   UNL d   1      53.012  31.146  52.763  0.00  0.00     0.003 A 
ATOM     14  C   UNL d   1      53.522  30.967  54.326  0.00  0.00     0.003 A 
ATOM     15  C   UNL d   1      53.182  30.377  53.052  0.00  0.00     0.000 A 
ATOM     16  C   UNL d   1      53.443  30.285  53.852  0.00  0.00     0.000 A 
ENDROOT
BRANCH   3  17
ATOM     17  C   UNL d   1      52.626  34.371  52.586  0.00  0.00     0.281 C 
ATOM     18  N   UNL d   1      51.835  34.541  52.491  0.00  0.00    -0.206 NA
ATOM     19  O   UNL d   1      53.176  34.546  52.009  0.00  0.00    -0.265 OA
BRANCH  18  20
ATOM     20  C   UNL d   1      51.310  34.363  53.066  0.00  0.00     0.102 C 
BRANCH  20  21
ATOM     21  C   UNL d   1      50.524  34.590  52.972  0.00  0.00     0.019 A 
ATOM     22  C   UNL d   1      50.131  34.439  52.265  0.00  0.00     0.004 A 
ATOM     23  C   UNL d   1      49.354  34.657  52.155  0.00  0.00     0.024 A 
ATOM     24  C   UNL d   1      48.946  35.031  52.745  0.00  0.00     0.094 A 
ATOM     25  C   UNL d   1      49.335  35.190  53.470  0.00  0.00     0.024 A 
ATOM     26  C   UNL d   1      50.112  34.965  53.560  0.00  0.00     0.004 A 
BRANCH  24  27
ATOM     27  O   UNL d   1      48.150  35.244  52.606  0.00  0.00    -0.328 OA
ATOM     28  C   UNL d   1      47.876  35.945  52.891  0.00  0.00     0.181 C 
ENDBRANCH  24  27
ENDBRANCH  20  21
ENDBRANCH  18  20
ENDBRANCH   3  17
TORSDOF 4
ENDMDL
MODEL 2
REMARK VINA RESULT:      -8.8      1.122      1.584
REMARK  4 active torsions:
REMARK  status: ('A' for Active; 'I' for Inactive)
REMARK    1  A    between atoms: C_10  and  C_3 
REMARK       I    between atoms: N_11  and  C_10 
REMARK    2  A    between atoms: C_15  and  N_11 
REMARK    3  A    between atoms: C_17  and  C_15 
REMARK    4  A    between atoms: O_25  and  C_18 
ROOT
ATOM      1  C   UNL d   1      53.572  31.974  53.912  0.00  0.00     0.071 A 
ATOM      2  C   UNL d   1      53.618  31.734  54.723  0.00  0.00     0.142 A 
ATOM      3  C   UNL d   1      53.706  32.787  53.874  0.00  0.00     0.086 A 
ATOM      4  C   UNL d   1      53.415  31.420  53.331  0.00  0.00     0.198 A 
ATOM      5  O   UNL d   1      53.781  32.399  55.183  0.00  0.00    -0.304 OA
ATOM      6  C   UNL d   1      53.833  33.040  54.651  0.00  0.00     0.105 A 
ATOM      7  C   UNL d   1      53.506  30.951  54.914  0.00  0.00     0.218 A 
ATOM      8  C   UNL d   1      53.301  30.626  53.528  0.00  0.00     0.042 A 
ATOM      9  C   UNL d   1      53.348  30.386  54.339  0.00  0.00     0.044 A 
ATOM     10  O   UNL d   1      53.369  31.655  52.539  0.00  0.00    -0.286 OA
ATOM     11  O   UNL d   1      53.551  30.717  55.706  0.00  0.00    -0.284 OA
ATOM     12  C   UNL d   1      53.989  33.821  54.873  0.00  0.00     0.027 C 
ATOM     13  C   UNL d   1      53.146  30.081  52.950  0.00  0.00     0.003 A 
ATOM     14  C   UNL d   1      53.237  29.612  54.533  0.00  0.00     0.003 A 
ATOM     15  C   UNL d   1      53.029  29.273  53.143  0.00  0.00     0.000 A 
ATOM     16  C   UNL d   1      53.076  29.033  53.954  0.00  0.00     0.000 A 
ENDROOT
BRANCH   3  17
ATOM     17  C   UNL d   1      53.716  33.274  53.199  0.00  0.00     0.281 C 
ATOM     18  N   UNL d   1      53.036  33.662  52.976  0.00  0.00    -0.206 NA
ATOM     19  O   UNL d   1      54.411  33.348  52.779  0.00  0.00    -0.265 OA
BRANCH  18  20
ATOM     20  C   UNL d   1      52.363  33.578  53.399  0.00  0.00     0.102 C 
BRANCH  20  21
ATOM     21  C   UNL d   1      51.658  33.871  53.089  0.00  0.00     0.019 A 
ATOM     22  C   UNL d   1      50.967  33.846  53.535  0.00  0.00     0.004 A 
ATOM     23  C   UNL d   1      50.262  34.131  53.244  0.00  0.00     0.024 A 
ATOM     24  C   UNL d   1      50.225  34.449  52.500  0.00  0.00     0.094 A 
ATOM     25  C   UNL d   1      50.921  34.479  52.036  0.00  0.00     0.024 A 
ATOM     26  C   UNL d   1      51.617  34.189  52.345  0.00  0.00     0.004 A 
BRANCH  24  27
ATOM     27  O   UNL d   1      49.489  34.734  52.226  0.00  0.00    -0.328 OA
ATOM     28  C   UNL d   1      49.216  34.488  51.510  0.00  0.00     0.181 C 
ENDBRANCH  24  27
ENDBRANCH  20  21
ENDBRANCH  18  20
ENDBRANCH   3  17
TORSDOF 4
ENDMDL
MODEL 3
REMARK VINA RESULT:      -8.8      1.531      4.576
REMARK  4 active torsions:
REMARK  status: ('A' for Active; 'I' for Inactive)
REMARK    1  A    between atoms: C_10  and  C_3 
REMARK       I    between atoms: N_11  and  C_10 
REMARK    2  A    between atoms: C_15  and  N_11 
REMARK    3  A    between atoms: C_17  and  C_15 
REMARK    4  A    between atoms: O_25  and  C_18 
ROOT
ATOM      1  C   UNL d   1      53.193  33.594  53.598  0.00  0.00     0.071 A 
ATOM      2  C   UNL d   1      52.942  34.135  54.200  0.00  0.00     0.142 A 
ATOM      3  C   UNL d   1      53.910  33.260  53.832  0.00  0.00     0.086 A 
ATOM      4  C   UNL d   1      52.734  33.486  52.930  0.00  0.00     0.198 A 
ATOM      5  O   UNL d   1      53.504  34.133  54.804  0.00  0.00    -0.304 OA
ATOM      6  C   UNL d   1      54.095  33.592  54.567  0.00  0.00     0.105 A 
ATOM      7  C   UNL d   1      52.244  34.542  54.105  0.00  0.00     0.218 A 
ATOM      8  C   UNL d   1      52.026  33.901  52.836  0.00  0.00     0.042 A 
ATOM      9  C   UNL d   1      51.775  34.441  53.438  0.00  0.00     0.044 A 
ATOM     10  O   UNL d   1      52.980  32.959  52.342  0.00  0.00    -0.286 OA
ATOM     11  O   UNL d   1      51.998  35.069  54.693  0.00  0.00    -0.284 OA
ATOM     12  C   UNL d   1      54.771  33.415  55.008  0.00  0.00     0.027 C 
ATOM     13  C   UNL d   1      51.575  33.791  52.172  0.00  0.00     0.003 A 
ATOM     14  C   UNL d   1      51.084  34.846  53.347  0.00  0.00     0.003 A 
ATOM     15  C   UNL d   1      50.855  34.208  52.070  0.00  0.00     0.000 A 
ATOM     16  C   UNL d   1      50.603  34.749  52.672  0.00  0.00     0.000 A 
ENDROOT
BRANCH   3  17
ATOM     17  C   UNL d   1      54.372  32.701  53.425  0.00  0.00     0.281 C 
ATOM     18  N   UNL d   1      54.244  31.907  53.555  0.00  0.00    -0.206 NA
ATOM     19  O   UNL d   1      54.942  32.965  52.904  0.00  0.00    -0.265 OA
BRANCH  18  20
ATOM     20  C   UNL d   1      53.682  31.665  54.069  0.00  0.00     0.102 C 
BRANCH  20  21
ATOM     21  C   UNL d   1      53.547  30.857  54.161  0.00  0.00     0.019 A 
ATOM     22  C   UNL d   1      53.430  30.539  54.910  0.00  0.00     0.004 A 
ATOM     23  C   UNL d   1      53.296  29.743  55.019  0.00  0.00     0.024 A 
ATOM     24  C   UNL d   1      53.274  29.241  54.385  0.00  0.00     0.094 A 
ATOM     25  C   UNL d   1      53.392  29.553  53.616  0.00  0.00     0.024 A 
ATOM     26  C   UNL d   1      53.525  30.352  53.528  0.00  0.00     0.004 A 
BRANCH  24  27
ATOM     27  O   UNL d   1      53.135  28.430  54.524  0.00  0.00    -0.328 OA
ATOM     28  C   UNL d   1      53.595  28.039  55.055  0.00  0.00     0.181 C 
ENDBRANCH  24  27
ENDBRANCH  20  21
ENDBRANCH  18  20
ENDBRANCH   3  17
TORSDOF 4
ENDMDL
MODEL 4
REMARK VINA RESULT:      -7.8      1.162      4.541
REMARK  4 active torsions:
REMARK  status: ('A' for Active; 'I' for Inactive)
REMARK    1  A    between atoms: C_10  and  C_3 
REMARK       I    between atoms: N_11  and  C_10 
REMARK    2  A    between atoms: C_15  and  N_11 
REMARK    3  A    between atoms: C_17  and  C_15 
REMARK    4  A    between atoms: O_25  and  C_18 
ROOT
ATOM      1  C   UNL d   1      51.192  34.450  52.611  0.00  0.00     0.071 A 
ATOM      2  C   UNL d   1      50.643  34.715  53.199  0.00  0.00     0.142 A 
ATOM      3  C   UNL d   1      51.938  34.391  52.959  0.00  0.00     0.086 A 
ATOM      4  C   UNL d   1      50.934  34.302  51.849  0.00  0.00     0.198 A 
ATOM      5  O   UNL d   1      51.052  34.819  53.909  0.00  0.00    -0.304 OA
ATOM      6  C   UNL d   1      51.846  34.617  53.749  0.00  0.00     0.105 A 
ATOM      7  C   UNL d   1      49.862  34.819  52.998  0.00  0.00     0.218 A 
ATOM      8  C   UNL d   1      50.140  34.409  51.648  0.00  0.00     0.042 A 
ATOM      9  C   UNL d   1      49.591  34.674  52.237  0.00  0.00     0.044 A 
ATOM     10  O   UNL d   1      51.469  34.043  51.275  0.00  0.00    -0.286 OA
ATOM     11  O   UNL d   1      49.326  35.078  53.573  0.00  0.00    -0.284 OA
ATOM     12  C   UNL d   1      52.456  34.641  54.307  0.00  0.00     0.027 C 
ATOM     13  C   UNL d   1      49.888  34.261  50.892  0.00  0.00     0.003 A 
ATOM     14  C   UNL d   1      48.816  34.779  52.041  0.00  0.00     0.003 A 
ATOM     15  C   UNL d   1      49.083  34.368  50.681  0.00  0.00     0.000 A 
ATOM     16  C   UNL d   1      48.534  34.633  51.270  0.00  0.00     0.000 A 
ENDROOT
BRANCH   3  17
ATOM     17  C   UNL d   1      52.652  34.154  52.604  0.00  0.00     0.281 C 
ATOM     18  N   UNL d   1      52.922  33.394  52.717  0.00  0.00    -0.206 NA
ATOM     19  O   UNL d   1      53.063  34.694  52.150  0.00  0.00    -0.265 OA
BRANCH  18  20
ATOM     20  C   UNL d   1      52.506  32.878  53.164  0.00  0.00     0.102 C 
BRANCH  20  21
ATOM     21  C   UNL d   1      52.793  32.112  53.257  0.00  0.00     0.019 A 
ATOM     22  C   UNL d   1      52.386  31.474  52.935  0.00  0.00     0.004 A 
ATOM     23  C   UNL d   1      52.655  30.710  53.018  0.00  0.00     0.024 A 
ATOM     24  C   UNL d   1      53.337  30.559  53.425  0.00  0.00     0.094 A 
ATOM     25  C   UNL d   1      53.762  31.199  53.758  0.00  0.00     0.024 A 
ATOM     26  C   UNL d   1      53.476  31.956  53.664  0.00  0.00     0.004 A 
BRANCH  24  27
ATOM     27  O   UNL d   1      53.591  29.766  53.495  0.00  0.00    -0.328 OA
ATOM     28  C   UNL d   1      53.359  29.336  54.134  0.00  0.00     0.181 C 
ENDBRANCH  24  27
ENDBRANCH  20  21
ENDBRANCH  18  20
ENDBRANCH   3  17
TORSDOF 4
ENDMDL
MODEL 5
REMARK VINA RESULT:      -6.8      1.937      4.439
REMARK  4 active torsions:
REMARK  status: ('A' for Active; 'I' for Inactive)
REMARK    1  A    between atoms: C_10  and  C_3 
REMARK       I    between atoms: N_11  and  C_10 
REMARK    2  A    between atoms: C_15  and  N_11 
REMARK    3  A    between atoms: C_17  and  C_15 
REMARK    4  A    between atoms: O_25  and  C_18 
ROOT
ATOM      1  C   UNL d   1      53.234  33.322  53.775  0.00  0.00     0.071 A 
ATOM      2  C   UNL d   1      52.889  33.828  54.360  0.00  0.00     0.142 A 
ATOM      3  C   UNL d   1      52.627  33.008  53.312  0.00  0.00     0.086 A 
ATOM      4  C   UNL d   1      54.046  33.221  53.749  0.00  0.00     0.198 A 
ATOM      5  O   UNL d   1      52.070  33.826  54.256  0.00  0.00    -0.304 OA
ATOM      6  C   UNL d   1      51.921  33.319  53.610  0.00  0.00     0.105 A 
ATOM      7  C   UNL d   1      53.372  34.209  54.892  0.00  0.00     0.218 A 
ATOM      8  C   UNL d   1      54.533  33.610  54.291  0.00  0.00     0.042 A 
ATOM      9  C   UNL d   1      54.188  34.116  54.876  0.00  0.00     0.044 A 
ATOM     10  O   UNL d   1      54.382  32.727  53.178  0.00  0.00    -0.286 OA
ATOM     11  O   UNL d   1      53.035  34.703  55.463  0.00  0.00    -0.284 OA
ATOM     12  C   UNL d   1      51.169  33.152  53.310  0.00  0.00     0.027 C 
ATOM     13  C   UNL d   1      55.336  33.507  54.263  0.00  0.00     0.003 A 
ATOM     14  C   UNL d   1      54.662  34.495  55.405  0.00  0.00     0.003 A 
ATOM     15  C   UNL d   1      55.837  33.899  54.810  0.00  0.00     0.000 A 
ATOM     16  C   UNL d   1      55.492  34.405  55.395  0.00  0.00     0.000 A 
ENDROOT
BRANCH   3  17
ATOM     17  C   UNL d   1      52.692  32.484  52.669  0.00  0.00     0.281 C 
ATOM     18  N   UNL d   1      52.649  31.681  52.802  0.00  0.00    -0.206 NA
ATOM     19  O   UNL d   1      52.796  32.790  51.920  0.00  0.00    -0.265 OA
BRANCH  18  20
ATOM     20  C   UNL d   1      52.547  31.398  53.542  0.00  0.00     0.102 C 
BRANCH  20  21
ATOM     21  C   UNL d   1      52.723  30.607  53.694  0.00  0.00     0.019 A 
ATOM     22  C   UNL d   1      53.053  30.386  54.413  0.00  0.00     0.004 A 
ATOM     23  C   UNL d   1      53.233  29.610  54.580  0.00  0.00     0.024 A 
ATOM     24  C   UNL d   1      53.089  29.030  54.033  0.00  0.00     0.094 A 
ATOM     25  C   UNL d   1      52.752  29.242  53.296  0.00  0.00     0.024 A 
ATOM     26  C   UNL d   1      52.580  30.024  53.149  0.00  0.00     0.004 A 
BRANCH  24  27
ATOM     27  O   UNL d   1      53.283  28.242  54.229  0.00  0.00    -0.328 OA
ATOM     28  C   UNL d   1      53.622  28.087  54.942  0.00  0.00     0.181 C 
ENDBRANCH  24  27
ENDBRANCH  20  21
ENDBRANCH  18  20
ENDBRANCH   3  17
TORSDOF 4
ENDMDL
MODEL 6
REMARK VINA RESULT:      -6.4      1.032      1.980
REMARK  4 active torsions:
REMARK  status: ('A' for Active; 'I' for Inactive)
REMARK    1  A    between atoms: C_10  and  C_3 
REMARK       I    between atoms: N_11  and  C_10 
REMARK    2  A    between atoms: C_15  and  N_11 
REMARK    3  A    between atoms: C_17  and  C_15 
REMARK    4  A    between atoms: O_25  and  C_18 
ROOT
ATOM      1  C   UNL d   1      52.932  33.413  53.449  0.00  0.00     0.071 A 
ATOM      2  C   UNL d   1      52.932  32.651  53.820  0.00  0.00     0.142 A 
ATOM      3  C   UNL d   1      52.393  33.398  52.824  0.00  0.00     0.086 A 
ATOM      4  C   UNL d   1      53.419  34.005  53.734  0.00  0.00     0.198 A 
ATOM      5  O   UNL d   1      52.394  32.167  53.423  0.00  0.00    -0.304 OA
ATOM      6  C   UNL d   1      52.069  32.637  52.813  0.00  0.00     0.105 A 
ATOM      7  C   UNL d   1      53.420  32.517  54.457  0.00  0.00     0.218 A 
ATOM      8  C   UNL d   1      53.913  33.866  54.381  0.00  0.00     0.042 A 
ATOM      9  C   UNL d   1      53.913  33.104  54.752  0.00  0.00     0.044 A 
ATOM     10  O   UNL d   1      53.419  34.749  53.372  0.00  0.00    -0.286 OA
ATOM     11  O   UNL d   1      53.420  31.774  54.819  0.00  0.00    -0.284 OA
ATOM     12  C   UNL d   1      51.501  32.374  52.273  0.00  0.00     0.027 C 
ATOM     13  C   UNL d   1      54.394  34.455  54.660  0.00  0.00     0.003 A 
ATOM     14  C   UNL d   1      54.395  32.968  55.383  0.00  0.00     0.003 A 
ATOM     15  C   UNL d   1      54.898  34.321  55.317  0.00  0.00     0.000 A 
ATOM     16  C   UNL d   1      54.898  33.560  55.687  0.00  0.00     0.000 A 
ENDROOT
BRANCH   3  17
ATOM     17  C   UNL d   1      52.201  34.013  52.299  0.00  0.00     0.281 C 
ATOM     18  N   UNL d   1      51.476  34.380  52.362  0.00  0.00    -0.206 NA
ATOM     19  O   UNL d   1      52.746  34.232  51.733  0.00  0.00    -0.265 OA
BRANCH  18  20
ATOM     20  C   UNL d   1      50.953  34.153  52.922  0.00  0.00     0.102 C 
BRANCH  20  21
ATOM     21  C   UNL d   1      50.231  34.547  52.976  0.00  0.00     0.019 A 
ATOM     22  C   UNL d   1      49.703  34.531  52.346  0.00  0.00     0.004 A 
ATOM     23  C   UNL d   1      48.985  34.914  52.383  0.00  0.00     0.024 A 
ATOM     24  C   UNL d   1      48.774  35.324  53.048  0.00  0.00     0.094 A 
ATOM     25  C   UNL d   1      49.304  35.348  53.696  0.00  0.00     0.024 A 
ATOM     26  C   UNL d   1      50.016  34.958  53.639  0.00  0.00     0.004 A 
BRANCH  24  27
ATOM     27  O   UNL d   1      48.032  35.709  53.059  0.00  0.00    -0.328 OA
ATOM     28  C   UNL d   1      47.988  36.467  53.323  0.00  0.00     0.181 C 
ENDBRANCH  24  27
ENDBRANCH  20  21
ENDBRANCH  18  20
ENDBRANCH   3  17
TORSDOF 4
ENDMDL
