MODEL 1
REMARK VINA RESULT:      -2.1      0.000      0.000
REMARK  4 active torsions:
REMARK  status: ('A' for Active; 'I' for Inactive)
REMARK    1  A    between atoms: C_8  and  C_2 
REMARK    2  A    between atoms: C_9  and  N_3 
REMARK    3  A    between atoms: C_12  and  C_9 
REMARK    4  A    between atoms: C_14  and  C_12 
ROOT
ATOM      1  N   UNL d   1      30.293  15.957 -23.891  0.00  0.00    -0.217 NA
ATOM      2  C   UNL d   1      30.923  16.369 -24.218  0.00  0.00     0.149 A 
ATOM      3  N   UNL d   1      30.791  17.085 -24.600  0.00  0.00    -0.290 N 
ATOM      4  C   UNL d   1      29.394  16.965 -24.320  0.00  0.00     0.044 A 
ATOM      5  C   UNL d   1      29.529  16.246 -23.937  0.00  0.00     0.139 A 
ATOM      6  C   UNL d   1      30.023  17.390 -24.654  0.00  0.00     0.068 A 
ATOM      7  S   UNL d   1      28.905  15.837 -23.614  0.00  0.00    -0.057 SA
ATOM      8  C   UNL d   1      28.632  17.264 -24.373  0.00  0.00     0.004 A 
ATOM      9  C   UNL d   1      29.887  18.100 -25.032  0.00  0.00     0.018 A 
ATOM     10  C   UNL d   1      28.493  17.977 -24.752  0.00  0.00     0.000 A 
ATOM     11  C   UNL d   1      29.139  18.399 -25.087  0.00  0.00     0.002 A 
ENDROOT
BRANCH   2  12
ATOM     12  C   UNL d   1      31.692  16.073 -24.168  0.00  0.00     0.035 A 
ATOM     13  C   UNL d   1      32.051  15.751 -24.833  0.00  0.00     0.003 A 
ATOM     14  C   UNL d   1      32.829  15.453 -24.778  0.00  0.00     0.000 A 
ATOM     15  C   UNL d   1      33.232  15.484 -24.057  0.00  0.00     0.000 A 
ATOM     16  C   UNL d   1      32.862  15.811 -23.396  0.00  0.00     0.000 A 
ATOM     17  C   UNL d   1      32.095  16.105 -23.447  0.00  0.00     0.003 A 
ENDBRANCH   2  12
BRANCH   3  18
ATOM     18  C   UNL d   1      31.427  17.501 -24.930  0.00  0.00     0.085 C 
BRANCH  18  19
ATOM     19  C   UNL d   1      31.589  18.260 -24.662  0.00  0.00     0.064 C 
BRANCH  19  20
ATOM     20  C   UNL d   1      32.147  18.724 -25.055  0.00  0.00     0.236 C 
ATOM     21  O   UNL d   1      32.524  19.332 -24.674  0.00  0.00    -0.283 OA
ENDBRANCH  19  20
ENDBRANCH  18  19
ENDBRANCH   3  18
TORSDOF 4
ENDMDL
MODEL 2
REMARK VINA RESULT:      -1.1      1.480      3.118
REMARK  4 active torsions:
REMARK  status: ('A' for Active; 'I' for Inactive)
REMARK    1  A    between atoms: C_8  and  C_2 
REMARK    2  A    between atoms: C_9  and  N_3 
REMARK    3  A    between atoms: C_12  and  C_9 
REMARK    4  A    between atoms: C_14  and  C_12 
ROOT
ATOM      1  N   UNL d   1      30.530  15.744 -23.560  0.00  0.00    -0.217 NA
ATOM      2  C   UNL d   1      29.928  16.168 -23.923  0.00  0.00     0.149 A 
ATOM      3  N   UNL d   1      30.111  16.815 -24.397  0.00  0.00    -0.290 N 
ATOM      4  C   UNL d   1      31.500  16.602 -24.136  0.00  0.00     0.044 A 
ATOM      5  C   UNL d   1      31.315  15.953 -23.660  0.00  0.00     0.139 A 
ATOM      6  C   UNL d   1      30.901  17.038 -24.508  0.00  0.00     0.068 A 
ATOM      7  S   UNL d   1      31.911  15.533 -23.300  0.00  0.00    -0.057 SA
ATOM      8  C   UNL d   1      32.284  16.821 -24.243  0.00  0.00     0.004 A 
ATOM      9  C   UNL d   1      31.087  17.678 -24.977  0.00  0.00     0.018 A 
ATOM     10  C   UNL d   1      32.473  17.463 -24.714  0.00  0.00     0.000 A 
ATOM     11  C   UNL d   1      31.856  17.898 -25.087  0.00  0.00     0.002 A 
ENDROOT
BRANCH   2  12
ATOM     12  C   UNL d   1      29.139  15.954 -23.819  0.00  0.00     0.035 A 
ATOM     13  C   UNL d   1      28.704  15.670 -24.455  0.00  0.00     0.003 A 
ATOM     14  C   UNL d   1      27.904  15.454 -24.344  0.00  0.00     0.000 A 
ATOM     15  C   UNL d   1      27.558  15.527 -23.598  0.00  0.00     0.000 A 
ATOM     16  C   UNL d   1      28.004  15.814 -22.966  0.00  0.00     0.000 A 
ATOM     17  C   UNL d   1      28.792  16.028 -23.072  0.00  0.00     0.003 A 
ENDBRANCH   2  12
BRANCH   3  18
ATOM     18  C   UNL d   1      29.503  17.243 -24.765  0.00  0.00     0.085 C 
BRANCH  18  19
ATOM     19  C   UNL d   1      29.568  18.059 -24.819  0.00  0.00     0.064 C 
BRANCH  19  20
ATOM     20  C   UNL d   1      28.929  18.504 -25.091  0.00  0.00     0.236 C 
ATOM     21  O   UNL d   1      28.408  18.844 -24.572  0.00  0.00    -0.283 OA
ENDBRANCH  19  20
ENDBRANCH  18  19
ENDBRANCH   3  18
TORSDOF 4
ENDMDL
MODEL 3
REMARK VINA RESULT:       0.6      5.169      6.441
REMARK  4 active torsions:
REMARK  status: ('A' for Active; 'I' for Inactive)
REMARK    1  A    between atoms: C_8  and  C_2 
REMARK    2  A    between atoms: C_9  and  N_3 
REMARK    3  A    between atoms: C_12  and  C_9 
REMARK    4  A    between atoms: C_14  and  C_12 
ROOT
ATOM      1  N   UNL d   1      32.774  20.828 -20.804  0.00  0.00    -0.217 NA
ATOM      2  C   UNL d   1      32.757  21.617 -21.031  0.00  0.00     0.149 A 
ATOM      3  N   UNL d   1      32.865  21.820 -21.820  0.00  0.00    -0.290 N 
ATOM      4  C   UNL d   1      33.007  20.435 -22.146  0.00  0.00     0.044 A 
ATOM      5  C   UNL d   1      32.898  20.233 -21.352  0.00  0.00     0.139 A 
ATOM      6  C   UNL d   1      32.991  21.228 -22.387  0.00  0.00     0.068 A 
ATOM      7  S   UNL d   1      32.916  19.452 -21.128  0.00  0.00    -0.057 SA
ATOM      8  C   UNL d   1      33.132  19.847 -22.705  0.00  0.00     0.004 A 
ATOM      9  C   UNL d   1      33.099  21.424 -23.170  0.00  0.00     0.018 A 
ATOM     10  C   UNL d   1      33.241  20.042 -23.493  0.00  0.00     0.000 A 
ATOM     11  C   UNL d   1      33.222  20.850 -23.724  0.00  0.00     0.002 A 
ENDROOT
BRANCH   2  12
ATOM     12  C   UNL d   1      32.631  22.213 -20.474  0.00  0.00     0.035 A 
ATOM     13  C   UNL d   1      31.905  22.594 -20.438  0.00  0.00     0.003 A 
ATOM     14  C   UNL d   1      31.782  23.197 -19.872  0.00  0.00     0.000 A 
ATOM     15  C   UNL d   1      32.392  23.404 -19.355  0.00  0.00     0.000 A 
ATOM     16  C   UNL d   1      33.118  23.015 -19.400  0.00  0.00     0.000 A 
ATOM     17  C   UNL d   1      33.241  22.421 -19.955  0.00  0.00     0.003 A 
ENDBRANCH   2  12
BRANCH   3  18
ATOM     18  C   UNL d   1      32.847  22.616 -22.049  0.00  0.00     0.085 C 
BRANCH  18  19
ATOM     19  C   UNL d   1      32.622  22.806 -22.814  0.00  0.00     0.064 C 
BRANCH  19  20
ATOM     20  C   UNL d   1      32.374  23.573 -22.992  0.00  0.00     0.236 C 
ATOM     21  O   UNL d   1      31.724  23.702 -23.457  0.00  0.00    -0.283 OA
ENDBRANCH  19  20
ENDBRANCH  18  19
ENDBRANCH   3  18
TORSDOF 4
ENDMDL
