MODEL 1
REMARK VINA RESULT:      -1.0      0.000      0.000
REMARK  5 active torsions:
REMARK  status: ('A' for Active; 'I' for Inactive)
REMARK    1  A    between atoms: C_6  and  C_1 
REMARK    2  A    between atoms: N_7  and  C_2 
REMARK    3  A    between atoms: O_11  and  C_6 
REMARK       I    between atoms: C_8  and  N_7 
REMARK    4  A    between atoms: C_14  and  C_8 
REMARK    5  A    between atoms: C_15  and  O_11 
ROOT
ATOM      1  C   UNL d   1     -41.776-123.269 -51.320  0.00  0.00     0.162 A 
ATOM      2  C   UNL d   1     -41.421-122.626 -51.697  0.00  0.00     0.109 A 
ATOM      3  N   UNL d   1     -41.990-123.817 -51.895  0.00  0.00    -0.239 NA
ATOM      4  C   UNL d   1     -41.416-122.778 -52.503  0.00  0.00     0.037 A 
ATOM      5  C   UNL d   1     -41.766-123.513 -52.632  0.00  0.00     0.083 A 
ATOM      6  C   UNL d   1     -41.134-122.336 -53.142  0.00  0.00     0.003 A 
ATOM      7  C   UNL d   1     -41.837-123.812 -53.399  0.00  0.00     0.019 A 
ATOM      8  C   UNL d   1     -41.205-122.635 -53.909  0.00  0.00     0.000 A 
ATOM      9  C   UNL d   1     -41.554-123.369 -54.034  0.00  0.00     0.002 A 
ENDROOT
BRANCH   1  10
ATOM     10  C   UNL d   1     -41.895-123.343 -50.506  0.00  0.00     0.320 C 
ATOM     11  O   UNL d   1     -41.260-123.263 -49.988  0.00  0.00    -0.257 OA
BRANCH  10  12
ATOM     12  O   UNL d   1     -42.646-123.498 -50.204  0.00  0.00    -0.270 OA
BRANCH  12  13
ATOM     13  C   UNL d   1     -42.760-123.502 -49.388  0.00  0.00     0.126 C 
ATOM     14  C   UNL d   1     -43.506-123.654 -49.085  0.00  0.00     0.029 C 
ENDBRANCH  12  13
ENDBRANCH  10  12
ENDBRANCH   1  10
BRANCH   2  15
ATOM     15  N   UNL d   1     -41.124-121.948 -51.326  0.00  0.00    -0.206 NA
ATOM     16  C   UNL d   1     -41.567-121.240 -51.346  0.00  0.00     0.279 C 
ATOM     17  O   UNL d   1     -42.298-121.224 -51.736  0.00  0.00    -0.265 OA
BRANCH  16  18
ATOM     18  C   UNL d   1     -41.269-120.567 -50.977  0.00  0.00     0.062 C 
ATOM     19  C   UNL d   1     -41.135-119.882 -51.424  0.00  0.00     0.005 C 
ENDBRANCH  16  18
ENDBRANCH   2  15
TORSDOF 5
ENDMDL
MODEL 2
REMARK VINA RESULT:       0.7      1.084      2.982
REMARK  5 active torsions:
REMARK  status: ('A' for Active; 'I' for Inactive)
REMARK    1  A    between atoms: C_6  and  C_1 
REMARK    2  A    between atoms: N_7  and  C_2 
REMARK    3  A    between atoms: O_11  and  C_6 
REMARK       I    between atoms: C_8  and  N_7 
REMARK    4  A    between atoms: C_14  and  C_8 
REMARK    5  A    between atoms: C_15  and  O_11 
ROOT
ATOM      1  C   UNL d   1     -42.117-123.326 -51.218  0.00  0.00     0.162 A 
ATOM      2  C   UNL d   1     -41.873-122.728 -50.704  0.00  0.00     0.109 A 
ATOM      3  N   UNL d   1     -42.639-123.817 -50.814  0.00  0.00    -0.239 NA
ATOM      4  C   UNL d   1     -42.245-122.850 -49.983  0.00  0.00     0.037 A 
ATOM      5  C   UNL d   1     -42.719-123.521 -50.044  0.00  0.00     0.083 A 
ATOM      6  C   UNL d   1     -42.211-122.430 -49.271  0.00  0.00     0.003 A 
ATOM      7  C   UNL d   1     -43.163-123.778 -49.396  0.00  0.00     0.019 A 
ATOM      8  C   UNL d   1     -42.655-122.688 -48.623  0.00  0.00     0.000 A 
ATOM      9  C   UNL d   1     -43.127-123.358 -48.688  0.00  0.00     0.002 A 
ENDROOT
BRANCH   1  10
ATOM     10  C   UNL d   1     -41.875-123.413 -52.003  0.00  0.00     0.320 C 
ATOM     11  O   UNL d   1     -41.123-123.699 -52.174  0.00  0.00    -0.257 OA
BRANCH  10  12
ATOM     12  O   UNL d   1     -42.382-123.214 -52.623  0.00  0.00    -0.270 OA
BRANCH  12  13
ATOM     13  C   UNL d   1     -42.248-123.532 -53.371  0.00  0.00     0.126 C 
ATOM     14  C   UNL d   1     -42.427-123.088 -54.036  0.00  0.00     0.029 C 
ENDBRANCH  12  13
ENDBRANCH  10  12
ENDBRANCH   1  10
BRANCH   2  15
ATOM     15  N   UNL d   1     -41.347-122.114 -50.885  0.00  0.00    -0.206 NA
ATOM     16  C   UNL d   1     -41.648-121.366 -51.103  0.00  0.00     0.279 C 
ATOM     17  O   UNL d   1     -42.466-121.247 -51.136  0.00  0.00    -0.265 OA
BRANCH  16  18
ATOM     18  C   UNL d   1     -41.123-120.757 -51.282  0.00  0.00     0.062 C 
ATOM     19  C   UNL d   1     -41.411-120.054 -51.611  0.00  0.00     0.005 C 
ENDBRANCH  16  18
ENDBRANCH   2  15
TORSDOF 5
ENDMDL
MODEL 3
REMARK VINA RESULT:       1.5      1.213      2.718
REMARK  5 active torsions:
REMARK  status: ('A' for Active; 'I' for Inactive)
REMARK    1  A    between atoms: C_6  and  C_1 
REMARK    2  A    between atoms: N_7  and  C_2 
REMARK    3  A    between atoms: O_11  and  C_6 
REMARK       I    between atoms: C_8  and  N_7 
REMARK    4  A    between atoms: C_14  and  C_8 
REMARK    5  A    between atoms: C_15  and  O_11 
ROOT
ATOM      1  C   UNL d   1     -41.945-121.740 -52.857  0.00  0.00     0.162 A 
ATOM      2  C   UNL d   1     -41.509-122.440 -52.907  0.00  0.00     0.109 A 
ATOM      3  N   UNL d   1     -42.227-121.559 -53.609  0.00  0.00    -0.239 NA
ATOM      4  C   UNL d   1     -41.523-122.689 -53.689  0.00  0.00     0.037 A 
ATOM      5  C   UNL d   1     -41.965-122.150 -54.127  0.00  0.00     0.083 A 
ATOM      6  C   UNL d   1     -41.185-123.347 -54.059  0.00  0.00     0.003 A 
ATOM      7  C   UNL d   1     -42.073-122.262 -54.939  0.00  0.00     0.019 A 
ATOM      8  C   UNL d   1     -41.293-123.459 -54.871  0.00  0.00     0.000 A 
ATOM      9  C   UNL d   1     -41.735-122.918 -55.305  0.00  0.00     0.002 A 
ENDROOT
BRANCH   1  10
ATOM     10  C   UNL d   1     -42.073-121.302 -52.170  0.00  0.00     0.320 C 
ATOM     11  O   UNL d   1     -42.797-121.344 -51.782  0.00  0.00    -0.257 OA
BRANCH  10  12
ATOM     12  O   UNL d   1     -41.478-120.818 -51.864  0.00  0.00    -0.270 OA
BRANCH  12  13
ATOM     13  C   UNL d   1     -41.685-120.173 -51.394  0.00  0.00     0.126 C 
ATOM     14  C   UNL d   1     -41.123-119.602 -51.223  0.00  0.00     0.029 C 
ENDBRANCH  12  13
ENDBRANCH  10  12
ENDBRANCH   1  10
BRANCH   2  15
ATOM     15  N   UNL d   1     -41.127-122.821 -52.279  0.00  0.00    -0.206 NA
ATOM     16  C   UNL d   1     -41.517-123.439 -51.875  0.00  0.00     0.279 C 
ATOM     17  O   UNL d   1     -42.279-123.664 -52.106  0.00  0.00    -0.265 OA
BRANCH  16  18
ATOM     18  C   UNL d   1     -41.134-123.817 -51.251  0.00  0.00     0.062 C 
ATOM     19  C   UNL d   1     -41.477-123.806 -50.496  0.00  0.00     0.005 C 
ENDBRANCH  16  18
ENDBRANCH   2  15
TORSDOF 5
ENDMDL
