MODEL 1
REMARK VINA RESULT:      -3.0      0.000      0.000
REMARK  5 active torsions:
REMARK  status: ('A' for Active; 'I' for Inactive)
REMARK    1  A    between atoms: O_8  and  C_2 
REMARK    2  A    between atoms: C_9  and  C_5 
REMARK    3  A    between atoms: C_14  and  O_8 
REMARK    4  A    between atoms: N_11  and  C_9 
REMARK    5  A    between atoms: O_20  and  C_17 
ROOT
ATOM      1  C   UNL d   1      33.201  20.695 -22.227  0.00  0.00     0.108 A 
ATOM      2  C   UNL d   1      33.184  19.384 -23.253  0.00  0.00     0.161 A 
ATOM      3  C   UNL d   1      33.168  19.916 -21.915  0.00  0.00     0.064 A 
ATOM      4  C   UNL d   1      33.159  19.265 -22.429  0.00  0.00     0.222 A 
ATOM      5  C   UNL d   1      33.209  21.338 -21.724  0.00  0.00     0.079 A 
ATOM      6  O   UNL d   1      33.225  20.810 -23.050  0.00  0.00    -0.305 OA
ATOM      7  C   UNL d   1      33.216  20.155 -23.563  0.00  0.00     0.126 A 
ATOM      8  C   UNL d   1      33.144  19.817 -21.098  0.00  0.00     0.009 A 
ATOM      9  C   UNL d   1      33.185  21.232 -20.909  0.00  0.00     0.199 A 
ATOM     10  O   UNL d   1      33.127  18.498 -22.121  0.00  0.00    -0.284 OA
ATOM     11  C   UNL d   1      33.153  20.468 -20.598  0.00  0.00     0.042 A 
ATOM     12  O   UNL d   1      33.194  21.885 -20.405  0.00  0.00    -0.286 OA
ATOM     13  C   UNL d   1      33.240  20.274 -24.383  0.00  0.00     0.029 C 
ENDROOT
BRANCH   2  14
ATOM     14  O   UNL d   1      33.175  18.731 -23.758  0.00  0.00    -0.302 OA
BRANCH  14  15
ATOM     15  C   UNL d   1      32.463  18.368 -23.964  0.00  0.00     0.102 A 
ATOM     16  C   UNL d   1      32.288  17.621 -23.679  0.00  0.00     0.049 A 
ATOM     17  C   UNL d   1      31.574  17.259 -23.887  0.00  0.00     0.096 A 
ATOM     18  C   UNL d   1      31.037  17.651 -24.383  0.00  0.00     0.024 A 
ATOM     19  C   UNL d   1      31.221  18.407 -24.667  0.00  0.00     0.004 A 
ATOM     20  C   UNL d   1      31.932  18.762 -24.457  0.00  0.00     0.025 A 
BRANCH  17  21
ATOM     21  O   UNL d   1      31.400  16.512 -23.601  0.00  0.00    -0.328 OA
ATOM     22  C   UNL d   1      30.647  16.186 -23.713  0.00  0.00     0.181 C 
ENDBRANCH  17  21
ENDBRANCH  14  15
ENDBRANCH   2  14
BRANCH   5  23
ATOM     23  C   UNL d   1      33.241  22.091 -22.031  0.00  0.00     0.085 C 
BRANCH  23  24
ATOM     24  N   UNL d   1      32.660  22.661 -21.976  0.00  0.00    -0.302 N 
ATOM     25  C   UNL d   1      32.125  22.745 -21.369  0.00  0.00     0.080 A 
ATOM     26  C   UNL d   1      31.655  23.375 -21.538  0.00  0.00     0.021 A 
ATOM     27  C   UNL d   1      31.887  23.683 -22.236  0.00  0.00     0.021 A 
ATOM     28  C   UNL d   1      32.518  23.238 -22.516  0.00  0.00     0.080 A 
ENDBRANCH  23  24
ENDBRANCH   5  23
TORSDOF 5
ENDMDL
