MODEL 1
REMARK VINA RESULT:     157.0      0.000      0.000
REMARK  4 active torsions:
REMARK  status: ('A' for Active; 'I' for Inactive)
REMARK    1  A    between atoms: N_10  and  C_3 
REMARK    2  A    between atoms: C_15  and  C_5 
REMARK    3  A    between atoms: C_14  and  C_9 
REMARK       I    between atoms: C_11  and  N_12 
REMARK    4  A    between atoms: C_13  and  C_11 
ROOT
ATOM      1  N   UNL d   1      59.335  46.824  50.697  0.00  0.00    -0.196 N 
ATOM      2  C   UNL d   1      58.918  47.548  50.736  0.00  0.00     0.167 A 
ATOM      3  C   UNL d   1      60.151  46.825  50.801  0.00  0.00     0.152 A 
ATOM      4  N   UNL d   1      58.111  46.147  50.453  0.00  0.00    -0.163 NA
ATOM      5  C   UNL d   1      58.109  47.566  50.635  0.00  0.00     0.055 A 
ATOM      6  N   UNL d   1      59.327  48.254  50.879  0.00  0.00    -0.231 NA
ATOM      7  C   UNL d   1      60.564  47.534  50.945  0.00  0.00     0.052 A 
ATOM      8  C   UNL d   1      57.700  46.859  50.492  0.00  0.00     0.104 A 
ATOM      9  C   UNL d   1      60.154  48.247  50.983  0.00  0.00     0.063 A 
ATOM     10  C   UNL d   1      56.885  46.863  50.388  0.00  0.00     0.023 C 
ENDROOT
BRANCH   3  11
ATOM     11  N   UNL d   1      60.581  46.079  50.761  0.00  0.00    -0.286 N 
ATOM     12  C   UNL d   1      60.714  45.478  51.298  0.00  0.00     0.101 A 
ATOM     13  C   UNL d   1      61.158  44.830  51.074  0.00  0.00     0.102 A 
ATOM     14  N   UNL d   1      61.465  44.786  50.320  0.00  0.00    -0.267 N 
ATOM     15  C   UNL d   1      61.903  44.144  50.105  0.00  0.00     0.288 C 
ATOM     16  C   UNL d   1      61.328  45.383  49.800  0.00  0.00     0.102 A 
ATOM     17  O   UNL d   1      62.211  44.095  49.354  0.00  0.00    -0.264 OA
ATOM     18  C   UNL d   1      60.882  46.037  50.019  0.00  0.00     0.101 A 
BRANCH  15  19
ATOM     19  C   UNL d   1      62.039  43.545  50.629  0.00  0.00     0.156 A 
ATOM     20  O   UNL d   1      62.747  43.151  50.618  0.00  0.00    -0.300 OA
ATOM     21  C   UNL d   1      62.892  42.549  51.141  0.00  0.00     0.123 A 
ATOM     22  C   UNL d   1      62.327  42.339  51.678  0.00  0.00     0.029 A 
ATOM     23  C   UNL d   1      61.477  43.334  51.166  0.00  0.00     0.032 A 
ENDBRANCH  15  19
ENDBRANCH   3  11
BRANCH   9  24
ATOM     24  C   UNL d   1      60.577  48.982  51.132  0.00  0.00     0.036 C 
ATOM     25  C   UNL d   1      60.995  49.708  51.272  0.00  0.00     0.006 C 
ATOM     26  C   UNL d   1      60.773  49.207  51.939  0.00  0.00     0.006 C 
ATOM     27  C   UNL d   1      60.797  49.479  50.469  0.00  0.00     0.006 C 
ENDBRANCH   9  24
BRANCH   5  28
ATOM     28  C   UNL d   1      57.696  48.282  50.673  0.00  0.00     0.004 A 
ATOM     29  C   UNL d   1      57.598  48.731  49.989  0.00  0.00     0.000 A 
ATOM     30  C   UNL d   1      57.182  49.454  50.028  0.00  0.00     0.000 A 
ATOM     31  C   UNL d   1      56.875  49.707  50.750  0.00  0.00     0.000 A 
ATOM     32  C   UNL d   1      56.980  49.248  51.431  0.00  0.00     0.000 A 
ATOM     33  C   UNL d   1      57.391  48.535  51.393  0.00  0.00     0.000 A 
ENDBRANCH   5  28
TORSDOF 4
ENDMDL
