MODEL 1
REMARK VINA RESULT:      14.2      0.000      0.000
REMARK  0 active torsions:
REMARK  status: ('A' for Active; 'I' for Inactive)
ROOT
ATOM      1  N   UNL d   1      57.286  49.666  50.382  0.00  0.00    -0.187 N 
ATOM      2  C   UNL d   1      57.477  49.694  49.580  0.00  0.00     0.200 A 
ATOM      3  N   UNL d   1      58.265  49.708  49.336  0.00  0.00    -0.181 NA
ATOM      4  N   UNL d   1      57.900  49.652  50.952  0.00  0.00    -0.157 NA
ATOM      5  C   UNL d   1      56.463  49.658  50.449  0.00  0.00     0.194 A 
ATOM      6  C   UNL d   1      58.871  49.693  49.895  0.00  0.00     0.300 A 
ATOM      7  C   UNL d   1      58.687  49.665  50.708  0.00  0.00     0.159 A 
ATOM      8  S   UNL d   1      56.771  49.703  49.153  0.00  0.00    -0.045 SA
ATOM      9  C   UNL d   1      56.141  49.681  49.696  0.00  0.00     0.079 A 
ATOM     10  O   UNL d   1      59.659  49.707  49.651  0.00  0.00    -0.263 OA
ATOM     11  N   UNL d   1      56.040  49.632  51.156  0.00  0.00    -0.126 N 
ATOM     12  C   UNL d   1      59.294  49.651  51.267  0.00  0.00     0.028 C 
ENDROOT
TORSDOF 0
ENDMDL
MODEL 2
REMARK VINA RESULT:      16.2      1.757      2.983
REMARK  0 active torsions:
REMARK  status: ('A' for Active; 'I' for Inactive)
ROOT
ATOM      1  N   UNL d   1      59.344  49.708  50.425  0.00  0.00    -0.187 N 
ATOM      2  C   UNL d   1      59.007  49.708  51.178  0.00  0.00     0.200 A 
ATOM      3  N   UNL d   1      58.187  49.708  51.271  0.00  0.00    -0.181 NA
ATOM      4  N   UNL d   1      58.848  49.708  49.751  0.00  0.00    -0.157 NA
ATOM      5  C   UNL d   1      60.165  49.708  50.513  0.00  0.00     0.194 A 
ATOM      6  C   UNL d   1      57.697  49.708  50.609  0.00  0.00     0.300 A 
ATOM      7  C   UNL d   1      58.029  49.708  49.844  0.00  0.00     0.159 A 
ATOM      8  S   UNL d   1      59.621  49.708  51.730  0.00  0.00    -0.045 SA
ATOM      9  C   UNL d   1      60.342  49.708  51.314  0.00  0.00     0.079 A 
ATOM     10  O   UNL d   1      56.877  49.708  50.702  0.00  0.00    -0.263 OA
ATOM     11  N   UNL d   1      60.713  49.708  49.897  0.00  0.00    -0.126 N 
ATOM     12  C   UNL d   1      57.538  49.708  49.181  0.00  0.00     0.028 C 
ENDROOT
TORSDOF 0
ENDMDL
MODEL 3
REMARK VINA RESULT:      16.3      0.943      1.120
REMARK  0 active torsions:
REMARK  status: ('A' for Active; 'I' for Inactive)
ROOT
ATOM      1  N   UNL d   1      58.286  49.705  50.851  0.00  0.00    -0.187 N 
ATOM      2  C   UNL d   1      58.507  49.706  50.057  0.00  0.00     0.200 A 
ATOM      3  N   UNL d   1      59.304  49.706  49.843  0.00  0.00    -0.181 NA
ATOM      4  N   UNL d   1      58.877  49.704  51.445  0.00  0.00    -0.157 NA
ATOM      5  C   UNL d   1      57.461  49.706  50.887  0.00  0.00     0.194 A 
ATOM      6  C   UNL d   1      59.888  49.704  50.425  0.00  0.00     0.300 A 
ATOM      7  C   UNL d   1      59.673  49.703  51.231  0.00  0.00     0.159 A 
ATOM      8  S   UNL d   1      57.818  49.708  49.603  0.00  0.00    -0.045 SA
ATOM      9  C   UNL d   1      57.167  49.707  50.121  0.00  0.00     0.079 A 
ATOM     10  O   UNL d   1      60.685  49.704  50.211  0.00  0.00    -0.263 OA
ATOM     11  N   UNL d   1      57.011  49.705  51.577  0.00  0.00    -0.126 N 
ATOM     12  C   UNL d   1      60.258  49.702  51.813  0.00  0.00     0.028 C 
ENDROOT
TORSDOF 0
ENDMDL
