MODEL 1
REMARK VINA RESULT:      -7.9      0.000      0.000
REMARK  2 active torsions:
REMARK  status: ('A' for Active; 'I' for Inactive)
REMARK    1  A    between atoms: C_6  and  C_1 
REMARK       I    between atoms: N_10  and  C_6 
REMARK    2  A    between atoms: C_12  and  N_10 
ROOT
ATOM      1  C   UNL d   1     -47.092  13.155  23.090  0.00  0.00     0.108 A 
ATOM      2  C   UNL d   1     -45.882  12.654  22.887  0.00  0.00     0.044 A 
ATOM      3  C   UNL d   1     -46.330  12.096  23.311  0.00  0.00     0.112 A 
ATOM      4  S   UNL d   1     -47.079  12.418  23.431  0.00  0.00    -0.061 SA
ATOM      5  C   UNL d   1     -46.360  13.314  22.751  0.00  0.00     0.116 A 
ATOM      6  N   UNL d   1     -45.980  11.372  23.523  0.00  0.00    -0.239 NA
ATOM      7  C   UNL d   1     -44.760  11.763  22.899  0.00  0.00     0.056 A 
ATOM      8  C   UNL d   1     -45.208  11.205  23.323  0.00  0.00     0.081 A 
ATOM      9  C   UNL d   1     -45.092  12.479  22.684  0.00  0.00     0.008 A 
ATOM     10  C   UNL d   1     -43.985  11.599  22.696  0.00  0.00     0.193 A 
ATOM     11  C   UNL d   1     -44.085  10.313  23.335  0.00  0.00     0.042 A 
ATOM     12  C   UNL d   1     -44.873  10.493  23.535  0.00  0.00    -0.003 A 
ATOM     13  C   UNL d   1     -43.638  10.871  22.911  0.00  0.00     0.019 A 
ATOM     14  O   UNL d   1     -43.533  12.162  22.269  0.00  0.00    -0.287 OA
ATOM     15  N   UNL d   1     -46.140  14.017  22.342  0.00  0.00    -0.147 N 
ATOM     16  C   UNL d   1     -44.154   9.590  23.698  0.00  0.00     0.009 C 
ATOM     17  C   UNL d   1     -43.524   9.715  23.412  0.00  0.00     0.009 C 
ENDROOT
BRANCH   1  18
ATOM     18  C   UNL d   1     -47.749  13.655  23.094  0.00  0.00     0.287 C 
ATOM     19  N   UNL d   1     -48.410  13.498  22.618  0.00  0.00    -0.208 NA
ATOM     20  O   UNL d   1     -47.740  14.315  23.577  0.00  0.00    -0.265 OA
BRANCH  19  21
ATOM     21  C   UNL d   1     -49.061  13.994  22.622  0.00  0.00     0.085 A 
ATOM     22  C   UNL d   1     -49.033  14.741  22.274  0.00  0.00     0.018 A 
ATOM     23  C   UNL d   1     -49.678  15.233  22.278  0.00  0.00     0.002 A 
ATOM     24  C   UNL d   1     -48.332  15.010  21.907  0.00  0.00     0.002 C 
ATOM     25  C   UNL d   1     -50.382  14.960  22.648  0.00  0.00     0.000 A 
ATOM     26  C   UNL d   1     -50.406  14.217  22.992  0.00  0.00     0.002 A 
ATOM     27  C   UNL d   1     -51.064  15.424  22.678  0.00  0.00     0.000 C 
ATOM     28  C   UNL d   1     -49.752  13.739  22.979  0.00  0.00     0.018 A 
ATOM     29  C   UNL d   1     -49.775  12.975  23.333  0.00  0.00     0.002 C 
ENDBRANCH  19  21
ENDBRANCH   1  18
TORSDOF 2
ENDMDL
MODEL 2
REMARK VINA RESULT:      -7.8      8.048     10.341
REMARK  2 active torsions:
REMARK  status: ('A' for Active; 'I' for Inactive)
REMARK    1  A    between atoms: C_6  and  C_1 
REMARK       I    between atoms: N_10  and  C_6 
REMARK    2  A    between atoms: C_12  and  N_10 
ROOT
ATOM      1  C   UNL d   1     -39.113  14.940  17.989  0.00  0.00     0.108 A 
ATOM      2  C   UNL d   1     -39.647  15.087  19.193  0.00  0.00     0.044 A 
ATOM      3  C   UNL d   1     -38.830  15.230  19.248  0.00  0.00     0.112 A 
ATOM      4  S   UNL d   1     -38.509  15.136  18.495  0.00  0.00    -0.061 SA
ATOM      5  C   UNL d   1     -39.821  14.906  18.406  0.00  0.00     0.116 A 
ATOM      6  N   UNL d   1     -38.502  15.427  19.987  0.00  0.00    -0.239 NA
ATOM      7  C   UNL d   1     -39.786  15.337  20.597  0.00  0.00     0.056 A 
ATOM      8  C   UNL d   1     -38.969  15.480  20.653  0.00  0.00     0.081 A 
ATOM      9  C   UNL d   1     -40.122  15.143  19.877  0.00  0.00     0.008 A 
ATOM     10  C   UNL d   1     -40.259  15.389  21.263  0.00  0.00     0.193 A 
ATOM     11  C   UNL d   1     -39.108  15.730  22.058  0.00  0.00     0.042 A 
ATOM     12  C   UNL d   1     -38.639  15.674  21.372  0.00  0.00    -0.003 A 
ATOM     13  C   UNL d   1     -39.925  15.587  22.003  0.00  0.00     0.019 A 
ATOM     14  O   UNL d   1     -41.083  15.245  21.207  0.00  0.00    -0.287 OA
ATOM     15  N   UNL d   1     -40.581  14.722  18.090  0.00  0.00    -0.147 N 
ATOM     16  C   UNL d   1     -38.452  15.922  22.496  0.00  0.00     0.009 C 
ATOM     17  C   UNL d   1     -39.051  15.896  22.863  0.00  0.00     0.009 C 
ENDROOT
BRANCH   1  18
ATOM     18  C   UNL d   1     -39.014  14.800  17.182  0.00  0.00     0.287 C 
ATOM     19  N   UNL d   1     -38.325  14.441  16.891  0.00  0.00    -0.208 NA
ATOM     20  O   UNL d   1     -39.610  15.021  16.667  0.00  0.00    -0.265 OA
BRANCH  19  21
ATOM     21  C   UNL d   1     -38.227  14.302  16.090  0.00  0.00     0.085 A 
ATOM     22  C   UNL d   1     -38.118  14.922  15.557  0.00  0.00     0.018 A 
ATOM     23  C   UNL d   1     -38.021  14.785  14.763  0.00  0.00     0.002 A 
ATOM     24  C   UNL d   1     -38.105  15.713  15.826  0.00  0.00     0.002 C 
ATOM     25  C   UNL d   1     -38.034  13.987  14.495  0.00  0.00     0.000 A 
ATOM     26  C   UNL d   1     -38.143  13.374  15.027  0.00  0.00     0.002 A 
ATOM     27  C   UNL d   1     -37.940  13.797  13.698  0.00  0.00     0.000 C 
ATOM     28  C   UNL d   1     -38.238  13.530  15.817  0.00  0.00     0.018 A 
ATOM     29  C   UNL d   1     -38.350  12.901  16.366  0.00  0.00     0.002 C 
ENDBRANCH  19  21
ENDBRANCH   1  18
TORSDOF 2
ENDMDL
MODEL 3
REMARK VINA RESULT:      -7.7      1.017      5.557
REMARK  2 active torsions:
REMARK  status: ('A' for Active; 'I' for Inactive)
REMARK    1  A    between atoms: C_6  and  C_1 
REMARK       I    between atoms: N_10  and  C_6 
REMARK    2  A    between atoms: C_12  and  N_10 
ROOT
ATOM      1  C   UNL d   1     -46.623  12.838  22.895  0.00  0.00     0.108 A 
ATOM      2  C   UNL d   1     -47.594  13.731  22.772  0.00  0.00     0.044 A 
ATOM      3  C   UNL d   1     -47.832  13.031  22.394  0.00  0.00     0.112 A 
ATOM      4  S   UNL d   1     -47.221  12.483  22.477  0.00  0.00    -0.061 SA
ATOM      5  C   UNL d   1     -46.838  13.609  23.084  0.00  0.00     0.116 A 
ATOM      6  N   UNL d   1     -48.578  13.000  22.028  0.00  0.00    -0.239 NA
ATOM      7  C   UNL d   1     -48.838  14.346  22.414  0.00  0.00     0.056 A 
ATOM      8  C   UNL d   1     -49.075  13.646  22.036  0.00  0.00     0.081 A 
ATOM      9  C   UNL d   1     -48.106  14.390  22.778  0.00  0.00     0.008 A 
ATOM     10  C   UNL d   1     -49.333  14.997  22.425  0.00  0.00     0.193 A 
ATOM     11  C   UNL d   1     -50.320  14.261  21.678  0.00  0.00     0.042 A 
ATOM     12  C   UNL d   1     -49.805  13.607  21.675  0.00  0.00    -0.003 A 
ATOM     13  C   UNL d   1     -50.082  14.962  22.056  0.00  0.00     0.019 A 
ATOM     14  O   UNL d   1     -49.093  15.704  22.806  0.00  0.00    -0.287 OA
ATOM     15  N   UNL d   1     -46.377  14.168  23.514  0.00  0.00    -0.147 N 
ATOM     16  C   UNL d   1     -50.869  13.836  21.257  0.00  0.00     0.009 C 
ATOM     17  C   UNL d   1     -51.064  14.493  21.413  0.00  0.00     0.009 C 
ENDROOT
BRANCH   1  18
ATOM     18  C   UNL d   1     -45.912  12.467  23.092  0.00  0.00     0.287 C 
ATOM     19  N   UNL d   1     -45.657  11.788  22.690  0.00  0.00    -0.208 NA
ATOM     20  O   UNL d   1     -45.457  12.781  23.695  0.00  0.00    -0.265 OA
BRANCH  19  21
ATOM     21  C   UNL d   1     -44.952  11.421  22.885  0.00  0.00     0.085 A 
ATOM     22  C   UNL d   1     -44.232  11.685  22.583  0.00  0.00     0.018 A 
ATOM     23  C   UNL d   1     -43.533  11.321  22.777  0.00  0.00     0.002 A 
ATOM     24  C   UNL d   1     -44.206  12.341  22.066  0.00  0.00     0.002 C 
ATOM     25  C   UNL d   1     -43.562  10.662  23.299  0.00  0.00     0.000 A 
ATOM     26  C   UNL d   1     -44.279  10.402  23.597  0.00  0.00     0.002 A 
ATOM     27  C   UNL d   1     -42.878  10.259  23.525  0.00  0.00     0.000 C 
ATOM     28  C   UNL d   1     -44.968  10.778  23.392  0.00  0.00     0.018 A 
ATOM     29  C   UNL d   1     -45.705  10.512  23.698  0.00  0.00     0.002 C 
ENDBRANCH  19  21
ENDBRANCH   1  18
TORSDOF 2
ENDMDL
MODEL 4
REMARK VINA RESULT:      -7.4      1.330      2.176
REMARK  2 active torsions:
REMARK  status: ('A' for Active; 'I' for Inactive)
REMARK    1  A    between atoms: C_6  and  C_1 
REMARK       I    between atoms: N_10  and  C_6 
REMARK    2  A    between atoms: C_12  and  N_10 
ROOT
ATOM      1  C   UNL d   1     -46.651  13.202  22.709  0.00  0.00     0.108 A 
ATOM      2  C   UNL d   1     -45.459  12.641  22.569  0.00  0.00     0.044 A 
ATOM      3  C   UNL d   1     -45.462  13.360  22.153  0.00  0.00     0.112 A 
ATOM      4  S   UNL d   1     -46.207  13.699  22.247  0.00  0.00    -0.061 SA
ATOM      5  C   UNL d   1     -46.203  12.544  22.916  0.00  0.00     0.116 A 
ATOM      6  N   UNL d   1     -44.776  13.596  21.747  0.00  0.00    -0.239 NA
ATOM      7  C   UNL d   1     -44.102  12.415  22.170  0.00  0.00     0.056 A 
ATOM      8  C   UNL d   1     -44.104  13.134  21.753  0.00  0.00     0.081 A 
ATOM      9  C   UNL d   1     -44.770  12.170  22.574  0.00  0.00     0.008 A 
ATOM     10  C   UNL d   1     -43.430  11.947  22.180  0.00  0.00     0.193 A 
ATOM     11  C   UNL d   1     -42.746  12.907  21.354  0.00  0.00     0.042 A 
ATOM     12  C   UNL d   1     -43.436  13.373  21.353  0.00  0.00    -0.003 A 
ATOM     13  C   UNL d   1     -42.743  12.188  21.771  0.00  0.00     0.019 A 
ATOM     14  O   UNL d   1     -43.428  11.222  22.600  0.00  0.00    -0.287 OA
ATOM     15  N   UNL d   1     -46.454  11.896  23.392  0.00  0.00    -0.147 N 
ATOM     16  C   UNL d   1     -42.370  13.456  20.888  0.00  0.00     0.009 C 
ATOM     17  C   UNL d   1     -41.977  12.898  21.058  0.00  0.00     0.009 C 
ENDROOT
BRANCH   1  18
ATOM     18  C   UNL d   1     -47.433  13.349  22.929  0.00  0.00     0.287 C 
ATOM     19  N   UNL d   1     -47.981  13.657  22.387  0.00  0.00    -0.208 NA
ATOM     20  O   UNL d   1     -47.664  13.187  23.697  0.00  0.00    -0.265 OA
BRANCH  19  21
ATOM     21  C   UNL d   1     -48.755  13.803  22.606  0.00  0.00     0.085 A 
ATOM     22  C   UNL d   1     -49.331  13.212  22.570  0.00  0.00     0.018 A 
ATOM     23  C   UNL d   1     -50.099  13.357  22.786  0.00  0.00     0.002 A 
ATOM     24  C   UNL d   1     -49.131  12.445  22.306  0.00  0.00     0.002 C 
ATOM     25  C   UNL d   1     -50.296  14.131  23.052  0.00  0.00     0.000 A 
ATOM     26  C   UNL d   1     -49.723  14.714  23.087  0.00  0.00     0.002 A 
ATOM     27  C   UNL d   1     -51.064  14.326  23.283  0.00  0.00     0.000 C 
ATOM     28  C   UNL d   1     -48.960  14.552  22.866  0.00  0.00     0.018 A 
ATOM     29  C   UNL d   1     -48.369  15.151  22.901  0.00  0.00     0.002 C 
ENDBRANCH  19  21
ENDBRANCH   1  18
TORSDOF 2
ENDMDL
MODEL 5
REMARK VINA RESULT:      -6.9      8.348     10.454
REMARK  2 active torsions:
REMARK  status: ('A' for Active; 'I' for Inactive)
REMARK    1  A    between atoms: C_6  and  C_1 
REMARK       I    between atoms: N_10  and  C_6 
REMARK    2  A    between atoms: C_12  and  N_10 
ROOT
ATOM      1  C   UNL d   1     -38.618  14.476  18.222  0.00  0.00     0.108 A 
ATOM      2  C   UNL d   1     -38.419  14.773  16.946  0.00  0.00     0.044 A 
ATOM      3  C   UNL d   1     -38.458  13.947  17.020  0.00  0.00     0.112 A 
ATOM      4  S   UNL d   1     -38.581  13.773  17.816  0.00  0.00    -0.061 SA
ATOM      5  C   UNL d   1     -38.519  15.102  17.698  0.00  0.00     0.116 A 
ATOM      6  N   UNL d   1     -38.373  13.474  16.341  0.00  0.00    -0.239 NA
ATOM      7  C   UNL d   1     -38.214  14.638  15.534  0.00  0.00     0.056 A 
ATOM      8  C   UNL d   1     -38.253  13.811  15.608  0.00  0.00     0.081 A 
ATOM      9  C   UNL d   1     -38.296  15.114  16.194  0.00  0.00     0.008 A 
ATOM     10  C   UNL d   1     -38.094  14.980  14.801  0.00  0.00     0.193 A 
ATOM     11  C   UNL d   1     -38.049  13.675  14.195  0.00  0.00     0.042 A 
ATOM     12  C   UNL d   1     -38.172  13.340  14.947  0.00  0.00    -0.003 A 
ATOM     13  C   UNL d   1     -38.010  14.502  14.121  0.00  0.00     0.019 A 
ATOM     14  O   UNL d   1     -38.055  15.814  14.726  0.00  0.00    -0.287 OA
ATOM     15  N   UNL d   1     -38.520  15.922  17.891  0.00  0.00    -0.147 N 
ATOM     16  C   UNL d   1     -38.025  12.934  13.865  0.00  0.00     0.009 C 
ATOM     17  C   UNL d   1     -37.940  13.460  13.407  0.00  0.00     0.009 C 
ENDROOT
BRANCH   1  18
ATOM     18  C   UNL d   1     -38.736  14.534  19.036  0.00  0.00     0.287 C 
ATOM     19  N   UNL d   1     -39.278  14.042  19.427  0.00  0.00    -0.208 NA
ATOM     20  O   UNL d   1     -38.308  15.089  19.459  0.00  0.00    -0.265 OA
BRANCH  19  21
ATOM     21  C   UNL d   1     -39.395  14.101  20.235  0.00  0.00     0.085 A 
ATOM     22  C   UNL d   1     -40.040  14.508  20.547  0.00  0.00     0.018 A 
ATOM     23  C   UNL d   1     -40.156  14.566  21.348  0.00  0.00     0.002 A 
ATOM     24  C   UNL d   1     -40.594  14.874  20.039  0.00  0.00     0.002 C 
ATOM     25  C   UNL d   1     -39.597  14.197  21.857  0.00  0.00     0.000 A 
ATOM     26  C   UNL d   1     -38.957  13.793  21.544  0.00  0.00     0.002 A 
ATOM     27  C   UNL d   1     -39.673  14.229  22.678  0.00  0.00     0.000 C 
ATOM     28  C   UNL d   1     -38.857  13.745  20.740  0.00  0.00     0.018 A 
ATOM     29  C   UNL d   1     -38.200  13.330  20.417  0.00  0.00     0.002 C 
ENDBRANCH  19  21
ENDBRANCH   1  18
TORSDOF 2
ENDMDL
