MODEL 1
REMARK VINA RESULT:      90.4      0.000      0.000
REMARK  10 active torsions:
REMARK  status: ('A' for Active; 'I' for Inactive)
REMARK    1  A    between atoms: C_4  and  N_1 
REMARK    2  A    between atoms: C_10  and  C_2 
REMARK    3  A    between atoms: N_16  and  C_4 
REMARK    4  A    between atoms: O_22  and  C_8 
REMARK    5  A    between atoms: O_15  and  C_10 
REMARK    6  A    between atoms: O_23  and  C_11 
REMARK    7  A    between atoms: C_14  and  O_15 
REMARK    8  A    between atoms: C_25  and  N_16 
REMARK    9  A    between atoms: O_24  and  C_28 
REMARK   10  A    between atoms: C_28  and  C_25 
ROOT
ATOM      1  N   UNL d   1      59.926  49.614  52.167  0.00  0.00    -0.280 N 
ATOM      2  C   UNL d   1      59.137  49.619  52.412  0.00  0.00     0.091 A 
ATOM      3  C   UNL d   1      58.961  49.636  53.209  0.00  0.00     0.020 A 
ATOM      4  C   UNL d   1      59.566  49.648  53.769  0.00  0.00     0.005 A 
ATOM      5  C   UNL d   1      58.176  49.640  53.450  0.00  0.00     0.028 A 
ATOM      6  C   UNL d   1      60.530  49.627  52.727  0.00  0.00     0.082 A 
ATOM      7  C   UNL d   1      57.993  49.657  54.255  0.00  0.00     0.116 A 
ATOM      8  C   UNL d   1      59.386  49.665  54.570  0.00  0.00     0.026 A 
ATOM      9  C   UNL d   1      58.597  49.670  54.814  0.00  0.00     0.116 A 
ATOM     10  C   UNL d   1      60.348  49.644  53.532  0.00  0.00     0.019 A 
ENDROOT
BRANCH   2  11
ATOM     11  C   UNL d   1      58.532  49.606  51.852  0.00  0.00     0.140 C 
BRANCH  11  12
ATOM     12  O   UNL d   1      58.570  49.081  51.216  0.00  0.00    -0.304 OA
BRANCH  12  13
ATOM     13  C   UNL d   1      57.874  48.800  50.872  0.00  0.00     0.100 A 
ATOM     14  C   UNL d   1      57.553  49.186  50.219  0.00  0.00     0.025 A 
ATOM     15  C   UNL d   1      56.857  48.905  49.875  0.00  0.00     0.002 A 
ATOM     16  C   UNL d   1      56.528  49.289  49.217  0.00  0.00     0.000 C 
ATOM     17  C   UNL d   1      56.485  48.238  50.185  0.00  0.00     0.000 A 
ATOM     18  C   UNL d   1      56.807  47.852  50.839  0.00  0.00     0.002 A 
ATOM     19  C   UNL d   1      57.502  48.133  51.183  0.00  0.00     0.025 A 
ATOM     20  C   UNL d   1      56.422  47.179  51.144  0.00  0.00     0.000 C 
ENDBRANCH  12  13
ENDBRANCH  11  12
ENDBRANCH   2  11
BRANCH   1  21
ATOM     21  C   UNL d   1      60.114  49.597  51.357  0.00  0.00     0.206 C 
ATOM     22  S   UNL d   1      59.513  49.707  50.790  0.00  0.00    -0.038 SA
BRANCH  21  23
ATOM     23  N   UNL d   1      60.887  49.473  51.119  0.00  0.00    -0.215 NA
BRANCH  23  24
ATOM     24  C   UNL d   1      61.169  48.706  51.009  0.00  0.00     0.128 C 
BRANCH  24  25
ATOM     25  C   UNL d   1      61.052  48.323  50.288  0.00  0.00     0.137 C 
BRANCH  25  26
ATOM     26  O   UNL d   1      61.621  48.367  49.706  0.00  0.00    -0.325 OA
ATOM     27  C   UNL d   1      61.667  47.784  49.130  0.00  0.00     0.182 C 
ENDBRANCH  25  26
ENDBRANCH  24  25
ENDBRANCH  23  24
ENDBRANCH  21  23
ENDBRANCH   1  21
BRANCH   7  28
ATOM     28  O   UNL d   1      57.202  49.662  54.502  0.00  0.00    -0.326 OA
ATOM     29  C   UNL d   1      56.701  49.020  54.330  0.00  0.00     0.181 C 
ENDBRANCH   7  28
BRANCH   9  30
ATOM     30  O   UNL d   1      58.412  49.687  55.622  0.00  0.00    -0.326 OA
ATOM     31  C   UNL d   1      58.796  49.174  56.154  0.00  0.00     0.181 C 
ENDBRANCH   9  30
TORSDOF 10
ENDMDL
