MODEL 1
REMARK VINA RESULT:      -3.6      0.000      0.000
REMARK  3 active torsions:
REMARK  status: ('A' for Active; 'I' for Inactive)
REMARK    1  A    between atoms: N_5  and  S_1 
REMARK    2  A    between atoms: C_6  and  S_1 
REMARK    3  A    between atoms: C_2  and  C_13 
ROOT
ATOM      1  N   UNL d   1     -45.818  12.897  22.279  0.00  0.00    -0.229 N 
ATOM      2  C   UNL d   1     -47.643  12.816  22.776  0.00  0.00     0.039 A 
ATOM      3  C   UNL d   1     -46.491  13.088  21.639  0.00  0.00     0.092 A 
ATOM      4  C   UNL d   1     -46.059  12.666  23.170  0.00  0.00     0.092 A 
ATOM      5  C   UNL d   1     -47.409  13.047  21.887  0.00  0.00     0.023 A 
ATOM      6  C   UNL d   1     -46.970  12.625  23.416  0.00  0.00     0.023 A 
ENDROOT
BRANCH   1   7
ATOM      7  S   UNL d   1     -44.988  12.934  22.056  0.00  0.00     0.271 S 
ATOM      8  O   UNL d   1     -44.980  13.745  22.200  0.00  0.00    -0.200 OA
ATOM      9  O   UNL d   1     -44.995  12.121  21.911  0.00  0.00    -0.200 OA
BRANCH   7  10
ATOM     10  C   UNL d   1     -44.192  12.964  21.841  0.00  0.00     0.106 A 
ATOM     11  C   UNL d   1     -43.862  13.689  21.607  0.00  0.00     0.040 A 
ATOM     12  C   UNL d   1     -43.073  13.711  21.396  0.00  0.00     0.123 A 
ATOM     13  O   UNL d   1     -42.727  14.426  21.159  0.00  0.00    -0.301 OA
ATOM     14  C   UNL d   1     -42.604  13.024  21.413  0.00  0.00     0.123 A 
ATOM     15  C   UNL d   1     -41.787  14.612  20.875  0.00  0.00     0.149 A 
ATOM     16  C   UNL d   1     -41.289  13.722  20.926  0.00  0.00     0.149 A 
ATOM     17  O   UNL d   1     -41.815  13.053  21.200  0.00  0.00    -0.301 OA
ATOM     18  C   UNL d   1     -42.957  12.304  21.652  0.00  0.00     0.028 A 
ATOM     19  C   UNL d   1     -43.742  12.275  21.864  0.00  0.00     0.015 A 
ENDBRANCH   7  10
ENDBRANCH   1   7
BRANCH   2  20
ATOM     20  C   UNL d   1     -48.562  12.775  23.025  0.00  0.00     0.163 A 
ATOM     21  N   UNL d   1     -48.966  12.112  23.145  0.00  0.00    -0.225 NA
ATOM     22  C   UNL d   1     -49.701  12.312  23.340  0.00  0.00     0.101 A 
ATOM     23  C   UNL d   1     -50.329  11.860  23.517  0.00  0.00     0.021 A 
ATOM     24  C   UNL d   1     -49.752  13.095  23.341  0.00  0.00     0.101 A 
ATOM     25  C   UNL d   1     -51.009  12.220  23.695  0.00  0.00     0.002 A 
ATOM     26  C   UNL d   1     -51.064  13.007  23.696  0.00  0.00     0.002 A 
ATOM     27  C   UNL d   1     -50.439  13.434  23.520  0.00  0.00     0.021 A 
ATOM     28  N   UNL d   1     -49.048  13.384  23.145  0.00  0.00    -0.225 NA
ENDBRANCH   2  20
TORSDOF 3
ENDMDL
MODEL 2
REMARK VINA RESULT:      -3.1      1.790      6.713
REMARK  3 active torsions:
REMARK  status: ('A' for Active; 'I' for Inactive)
REMARK    1  A    between atoms: N_5  and  S_1 
REMARK    2  A    between atoms: C_6  and  S_1 
REMARK    3  A    between atoms: C_2  and  C_13 
ROOT
ATOM      1  N   UNL d   1     -44.493  13.108  21.977  0.00  0.00    -0.229 N 
ATOM      2  C   UNL d   1     -42.805  13.558  21.245  0.00  0.00     0.039 A 
ATOM      3  C   UNL d   1     -44.280  14.015  21.805  0.00  0.00     0.092 A 
ATOM      4  C   UNL d   1     -43.860  12.424  21.783  0.00  0.00     0.092 A 
ATOM      5  C   UNL d   1     -43.431  14.243  21.437  0.00  0.00     0.023 A 
ATOM      6  C   UNL d   1     -43.019  12.650  21.418  0.00  0.00     0.023 A 
ENDROOT
BRANCH   1   7
ATOM      7  S   UNL d   1     -45.258  12.900  22.310  0.00  0.00     0.271 S 
ATOM      8  O   UNL d   1     -45.000  12.128  22.436  0.00  0.00    -0.200 OA
ATOM      9  O   UNL d   1     -45.518  13.674  22.184  0.00  0.00    -0.200 OA
BRANCH   7  10
ATOM     10  C   UNL d   1     -45.995  12.706  22.628  0.00  0.00     0.106 A 
ATOM     11  C   UNL d   1     -46.683  12.915  22.213  0.00  0.00     0.040 A 
ATOM     12  C   UNL d   1     -47.409  12.719  22.535  0.00  0.00     0.123 A 
ATOM     13  O   UNL d   1     -48.107  12.920  22.136  0.00  0.00    -0.301 OA
ATOM     14  C   UNL d   1     -47.463  12.318  23.263  0.00  0.00     0.123 A 
ATOM     15  C   UNL d   1     -49.057  12.751  22.396  0.00  0.00     0.149 A 
ATOM     16  C   UNL d   1     -49.028  12.260  23.291  0.00  0.00     0.149 A 
ATOM     17  O   UNL d   1     -48.192  12.125  23.578  0.00  0.00    -0.301 OA
ATOM     18  C   UNL d   1     -46.756  12.118  23.662  0.00  0.00     0.028 A 
ATOM     19  C   UNL d   1     -46.030  12.309  23.348  0.00  0.00     0.015 A 
ENDBRANCH   7  10
ENDBRANCH   1   7
BRANCH   2  20
ATOM     20  C   UNL d   1     -41.957  13.786  20.877  0.00  0.00     0.163 A 
ATOM     21  N   UNL d   1     -41.327  13.997  21.297  0.00  0.00    -0.225 NA
ATOM     22  C   UNL d   1     -40.740  14.140  20.793  0.00  0.00     0.101 A 
ATOM     23  C   UNL d   1     -39.992  14.369  20.924  0.00  0.00     0.021 A 
ATOM     24  C   UNL d   1     -41.006  14.016  20.064  0.00  0.00     0.101 A 
ATOM     25  C   UNL d   1     -39.519  14.470  20.300  0.00  0.00     0.002 A 
ATOM     26  C   UNL d   1     -39.782  14.347  19.566  0.00  0.00     0.002 A 
ATOM     27  C   UNL d   1     -40.518  14.123  19.457  0.00  0.00     0.021 A 
ATOM     28  N   UNL d   1     -41.759  13.797  20.114  0.00  0.00    -0.225 NA
ENDBRANCH   2  20
TORSDOF 3
ENDMDL
MODEL 3
REMARK VINA RESULT:      -3.0      1.952      3.449
REMARK  3 active torsions:
REMARK  status: ('A' for Active; 'I' for Inactive)
REMARK    1  A    between atoms: N_5  and  S_1 
REMARK    2  A    between atoms: C_6  and  S_1 
REMARK    3  A    between atoms: C_2  and  C_13 
ROOT
ATOM      1  N   UNL d   1     -42.781  13.582  21.268  0.00  0.00    -0.229 N 
ATOM      2  C   UNL d   1     -44.455  13.099  22.010  0.00  0.00     0.039 A 
ATOM      3  C   UNL d   1     -43.425  14.251  21.456  0.00  0.00     0.092 A 
ATOM      4  C   UNL d   1     -42.975  12.669  21.453  0.00  0.00     0.092 A 
ATOM      5  C   UNL d   1     -44.267  14.010  21.829  0.00  0.00     0.023 A 
ATOM      6  C   UNL d   1     -43.810  12.429  21.823  0.00  0.00     0.023 A 
ENDROOT
BRANCH   1   7
ATOM      7  S   UNL d   1     -42.019  13.798  20.931  0.00  0.00     0.271 S 
ATOM      8  O   UNL d   1     -41.882  13.012  20.725  0.00  0.00    -0.200 OA
ATOM      9  O   UNL d   1     -42.156  14.585  21.138  0.00  0.00    -0.200 OA
BRANCH   7  10
ATOM     10  C   UNL d   1     -41.290  14.010  20.609  0.00  0.00     0.106 A 
ATOM     11  C   UNL d   1     -41.219  14.093  19.786  0.00  0.00     0.040 A 
ATOM     12  C   UNL d   1     -40.493  14.304  19.474  0.00  0.00     0.123 A 
ATOM     13  O   UNL d   1     -40.404  14.391  18.655  0.00  0.00    -0.301 OA
ATOM     14  C   UNL d   1     -39.835  14.433  19.967  0.00  0.00     0.123 A 
ATOM     15  C   UNL d   1     -39.591  14.641  18.129  0.00  0.00     0.149 A 
ATOM     16  C   UNL d   1     -38.841  14.779  18.807  0.00  0.00     0.149 A 
ATOM     17  O   UNL d   1     -39.112  14.643  19.648  0.00  0.00    -0.301 OA
ATOM     18  C   UNL d   1     -39.929  14.343  20.793  0.00  0.00     0.028 A 
ATOM     19  C   UNL d   1     -40.649  14.134  21.110  0.00  0.00     0.015 A 
ENDBRANCH   7  10
ENDBRANCH   1   7
BRANCH   2  20
ATOM     20  C   UNL d   1     -45.297  12.858  22.384  0.00  0.00     0.163 A 
ATOM     21  N   UNL d   1     -45.399  12.343  22.969  0.00  0.00    -0.225 NA
ATOM     22  C   UNL d   1     -46.170  12.297  23.116  0.00  0.00     0.101 A 
ATOM     23  C   UNL d   1     -46.569  11.864  23.647  0.00  0.00     0.021 A 
ATOM     24  C   UNL d   1     -46.544  12.781  22.624  0.00  0.00     0.101 A 
ATOM     25  C   UNL d   1     -47.355  11.932  23.669  0.00  0.00     0.002 A 
ATOM     26  C   UNL d   1     -47.735  12.418  23.177  0.00  0.00     0.002 A 
ATOM     27  C   UNL d   1     -47.328  12.835  22.662  0.00  0.00     0.021 A 
ATOM     28  N   UNL d   1     -46.006  13.130  22.169  0.00  0.00    -0.225 NA
ENDBRANCH   2  20
TORSDOF 3
ENDMDL
