MODEL 1
REMARK VINA RESULT:      -7.3      0.000      0.000
REMARK  5 active torsions:
REMARK  status: ('A' for Active; 'I' for Inactive)
REMARK    1  A    between atoms: C_9  and  C_1 
REMARK    2  A    between atoms: C_6  and  C_4 
REMARK    3  A    between atoms: C_5  and  C_6 
REMARK    4  A    between atoms: C_8  and  C_5 
REMARK    5  A    between atoms: C_11  and  C_8 
ROOT
ATOM      1  C   UNL d   1     -39.991  15.302  21.229  0.00  0.00     0.100 A 
ATOM      2  O   UNL d   1     -39.827  14.799  20.564  0.00  0.00    -0.307 OA
ATOM      3  C   UNL d   1     -40.642  15.701  21.083  0.00  0.00     0.027 A 
ATOM      4  C   UNL d   1     -40.444  14.944  20.020  0.00  0.00     0.100 A 
ATOM      5  C   UNL d   1     -40.935  15.498  20.352  0.00  0.00     0.027 A 
ENDROOT
BRANCH   4   6
ATOM      6  C   UNL d   1     -40.599  14.629  19.274  0.00  0.00     0.028 C 
BRANCH   6   7
ATOM      7  C   UNL d   1     -39.988  14.471  18.768  0.00  0.00     0.044 C 
BRANCH   7   8
ATOM      8  C   UNL d   1     -40.144  14.175  18.015  0.00  0.00     0.196 C 
ATOM      9  O   UNL d   1     -40.943  14.039  17.790  0.00  0.00    -0.287 OA
BRANCH   8  10
ATOM     10  C   UNL d   1     -39.528  14.019  17.504  0.00  0.00     0.039 A 
ATOM     11  C   UNL d   1     -39.066  13.330  17.581  0.00  0.00     0.003 A 
ATOM     12  C   UNL d   1     -38.447  13.174  17.065  0.00  0.00     0.000 A 
ATOM     13  C   UNL d   1     -38.278  13.713  16.456  0.00  0.00     0.000 A 
ATOM     14  C   UNL d   1     -38.736  14.398  16.378  0.00  0.00     0.000 A 
ATOM     15  C   UNL d   1     -39.347  14.540  16.895  0.00  0.00     0.003 A 
ENDBRANCH   8  10
ENDBRANCH   7   8
ENDBRANCH   6   7
ENDBRANCH   4   6
BRANCH   1  16
ATOM     16  C   UNL d   1     -39.440  15.248  21.844  0.00  0.00     0.023 A 
ATOM     17  C   UNL d   1     -39.257  14.499  22.171  0.00  0.00     0.002 A 
ATOM     18  C   UNL d   1     -38.704  14.450  22.788  0.00  0.00     0.000 A 
ATOM     19  C   UNL d   1     -38.346  15.118  23.070  0.00  0.00     0.000 A 
ATOM     20  C   UNL d   1     -38.528  15.872  22.744  0.00  0.00     0.000 A 
ATOM     21  C   UNL d   1     -39.081  15.921  22.127  0.00  0.00     0.002 A 
ENDBRANCH   1  16
TORSDOF 5
ENDMDL
MODEL 2
REMARK VINA RESULT:      -7.3      8.407      9.849
REMARK  5 active torsions:
REMARK  status: ('A' for Active; 'I' for Inactive)
REMARK    1  A    between atoms: C_9  and  C_1 
REMARK    2  A    between atoms: C_6  and  C_4 
REMARK    3  A    between atoms: C_5  and  C_6 
REMARK    4  A    between atoms: C_8  and  C_5 
REMARK    5  A    between atoms: C_11  and  C_8 
ROOT
ATOM      1  C   UNL d   1     -49.686  12.768  23.227  0.00  0.00     0.100 A 
ATOM      2  O   UNL d   1     -48.854  12.926  23.294  0.00  0.00    -0.307 OA
ATOM      3  C   UNL d   1     -49.808  12.015  23.375  0.00  0.00     0.027 A 
ATOM      4  C   UNL d   1     -48.506  12.194  23.495  0.00  0.00     0.100 A 
ATOM      5  C   UNL d   1     -49.102  11.645  23.541  0.00  0.00     0.027 A 
ENDROOT
BRANCH   4   6
ATOM      6  C   UNL d   1     -47.721  11.983  23.636  0.00  0.00     0.028 C 
BRANCH   6   7
ATOM      7  C   UNL d   1     -47.122  12.442  23.346  0.00  0.00     0.044 C 
BRANCH   7   8
ATOM      8  C   UNL d   1     -46.360  12.134  23.286  0.00  0.00     0.196 C 
ATOM      9  O   UNL d   1     -46.176  11.424  23.698  0.00  0.00    -0.287 OA
BRANCH   8  10
ATOM     10  C   UNL d   1     -45.801  12.516  22.832  0.00  0.00     0.039 A 
ATOM     11  C   UNL d   1     -45.904  13.309  22.596  0.00  0.00     0.003 A 
ATOM     12  C   UNL d   1     -45.340  13.692  22.139  0.00  0.00     0.000 A 
ATOM     13  C   UNL d   1     -44.656  13.283  21.908  0.00  0.00     0.000 A 
ATOM     14  C   UNL d   1     -44.552  12.495  22.141  0.00  0.00     0.000 A 
ATOM     15  C   UNL d   1     -45.118  12.127  22.593  0.00  0.00     0.003 A 
ENDBRANCH   8  10
ENDBRANCH   7   8
ENDBRANCH   6   7
ENDBRANCH   4   6
BRANCH   1  16
ATOM     16  C   UNL d   1     -50.145  13.426  23.028  0.00  0.00     0.023 A 
ATOM     17  C   UNL d   1     -50.503  13.470  22.272  0.00  0.00     0.002 A 
ATOM     18  C   UNL d   1     -50.963  14.133  22.078  0.00  0.00     0.000 A 
ATOM     19  C   UNL d   1     -51.064  14.731  22.613  0.00  0.00     0.000 A 
ATOM     20  C   UNL d   1     -50.707  14.691  23.374  0.00  0.00     0.000 A 
ATOM     21  C   UNL d   1     -50.247  14.027  23.568  0.00  0.00     0.002 A 
ENDBRANCH   1  16
TORSDOF 5
ENDMDL
MODEL 3
REMARK VINA RESULT:      -7.3      8.509      9.810
REMARK  5 active torsions:
REMARK  status: ('A' for Active; 'I' for Inactive)
REMARK    1  A    between atoms: C_9  and  C_1 
REMARK    2  A    between atoms: C_6  and  C_4 
REMARK    3  A    between atoms: C_5  and  C_6 
REMARK    4  A    between atoms: C_8  and  C_5 
REMARK    5  A    between atoms: C_11  and  C_8 
ROOT
ATOM      1  C   UNL d   1     -45.993  11.697  23.346  0.00  0.00     0.100 A 
ATOM      2  O   UNL d   1     -46.712  11.262  23.471  0.00  0.00    -0.307 OA
ATOM      3  C   UNL d   1     -46.170  12.449  23.263  0.00  0.00     0.027 A 
ATOM      4  C   UNL d   1     -47.322  11.832  23.453  0.00  0.00     0.100 A 
ATOM      5  C   UNL d   1     -46.975  12.554  23.324  0.00  0.00     0.027 A 
ENDROOT
BRANCH   4   6
ATOM      6  C   UNL d   1     -48.139  11.761  23.539  0.00  0.00     0.028 C 
BRANCH   6   7
ATOM      7  C   UNL d   1     -48.633  12.114  23.005  0.00  0.00     0.044 C 
BRANCH   7   8
ATOM      8  C   UNL d   1     -49.437  11.934  23.007  0.00  0.00     0.196 C 
ATOM      9  O   UNL d   1     -49.694  11.233  23.395  0.00  0.00    -0.287 OA
BRANCH   8  10
ATOM     10  C   UNL d   1     -49.967  12.431  22.637  0.00  0.00     0.039 A 
ATOM     11  C   UNL d   1     -50.403  12.995  23.068  0.00  0.00     0.003 A 
ATOM     12  C   UNL d   1     -50.936  13.495  22.694  0.00  0.00     0.000 A 
ATOM     13  C   UNL d   1     -51.042  13.437  21.872  0.00  0.00     0.000 A 
ATOM     14  C   UNL d   1     -50.609  12.876  21.443  0.00  0.00     0.000 A 
ATOM     15  C   UNL d   1     -50.085  12.387  21.825  0.00  0.00     0.003 A 
ENDBRANCH   8  10
ENDBRANCH   7   8
ENDBRANCH   6   7
ENDBRANCH   4   6
BRANCH   1  16
ATOM     16  C   UNL d   1     -45.308  11.234  23.343  0.00  0.00     0.023 A 
ATOM     17  C   UNL d   1     -44.613  11.523  22.974  0.00  0.00     0.002 A 
ATOM     18  C   UNL d   1     -43.929  11.054  22.974  0.00  0.00     0.000 A 
ATOM     19  C   UNL d   1     -43.932  10.326  23.326  0.00  0.00     0.000 A 
ATOM     20  C   UNL d   1     -44.627  10.032  23.698  0.00  0.00     0.000 A 
ATOM     21  C   UNL d   1     -45.312  10.501  23.698  0.00  0.00     0.002 A 
ENDBRANCH   1  16
TORSDOF 5
ENDMDL
MODEL 4
REMARK VINA RESULT:      -7.0      0.979      4.720
REMARK  5 active torsions:
REMARK  status: ('A' for Active; 'I' for Inactive)
REMARK    1  A    between atoms: C_9  and  C_1 
REMARK    2  A    between atoms: C_6  and  C_4 
REMARK    3  A    between atoms: C_5  and  C_6 
REMARK    4  A    between atoms: C_8  and  C_5 
REMARK    5  A    between atoms: C_11  and  C_8 
ROOT
ATOM      1  C   UNL d   1     -39.897  15.109  17.104  0.00  0.00     0.100 A 
ATOM      2  O   UNL d   1     -39.758  15.208  17.937  0.00  0.00    -0.307 OA
ATOM      3  C   UNL d   1     -40.634  15.302  16.951  0.00  0.00     0.027 A 
ATOM      4  C   UNL d   1     -40.484  15.477  18.251  0.00  0.00     0.100 A 
ATOM      5  C   UNL d   1     -41.010  15.530  17.636  0.00  0.00     0.027 A 
ENDROOT
BRANCH   4   6
ATOM      6  C   UNL d   1     -40.706  15.674  19.020  0.00  0.00     0.028 C 
BRANCH   6   7
ATOM      7  C   UNL d   1     -40.257  15.425  19.646  0.00  0.00     0.044 C 
BRANCH   7   8
ATOM      8  C   UNL d   1     -40.519  15.553  20.417  0.00  0.00     0.196 C 
ATOM      9  O   UNL d   1     -41.277  15.897  20.535  0.00  0.00    -0.287 OA
BRANCH   8  10
ATOM     10  C   UNL d   1     -40.045  15.346  21.047  0.00  0.00     0.039 A 
ATOM     11  C   UNL d   1     -39.626  15.922  21.479  0.00  0.00     0.003 A 
ATOM     12  C   UNL d   1     -39.149  15.713  22.114  0.00  0.00     0.000 A 
ATOM     13  C   UNL d   1     -39.084  14.913  22.329  0.00  0.00     0.000 A 
ATOM     14  C   UNL d   1     -39.501  14.340  21.900  0.00  0.00     0.000 A 
ATOM     15  C   UNL d   1     -39.970  14.560  21.274  0.00  0.00     0.003 A 
ENDBRANCH   8  10
ENDBRANCH   7   8
ENDBRANCH   6   7
ENDBRANCH   4   6
BRANCH   1  16
ATOM     16  C   UNL d   1     -39.242  14.841  16.677  0.00  0.00     0.023 A 
ATOM     17  C   UNL d   1     -39.050  14.026  16.678  0.00  0.00     0.002 A 
ATOM     18  C   UNL d   1     -38.391  13.763  16.247  0.00  0.00     0.000 A 
ATOM     19  C   UNL d   1     -37.940  14.288  15.831  0.00  0.00     0.000 A 
ATOM     20  C   UNL d   1     -38.129  15.108  15.827  0.00  0.00     0.000 A 
ATOM     21  C   UNL d   1     -38.788  15.371  16.257  0.00  0.00     0.002 A 
ENDBRANCH   1  16
TORSDOF 5
ENDMDL
MODEL 5
REMARK VINA RESULT:      -5.8      1.586      5.062
REMARK  5 active torsions:
REMARK  status: ('A' for Active; 'I' for Inactive)
REMARK    1  A    between atoms: C_9  and  C_1 
REMARK    2  A    between atoms: C_6  and  C_4 
REMARK    3  A    between atoms: C_5  and  C_6 
REMARK    4  A    between atoms: C_8  and  C_5 
REMARK    5  A    between atoms: C_11  and  C_8 
ROOT
ATOM      1  C   UNL d   1     -38.307  13.745  17.061  0.00  0.00     0.100 A 
ATOM      2  O   UNL d   1     -38.350  14.274  17.724  0.00  0.00    -0.307 OA
ATOM      3  C   UNL d   1     -38.395  13.018  17.318  0.00  0.00     0.027 A 
ATOM      4  C   UNL d   1     -38.472  13.785  18.389  0.00  0.00     0.100 A 
ATOM      5  C   UNL d   1     -38.498  13.018  18.125  0.00  0.00     0.027 A 
ENDROOT
BRANCH   4   6
ATOM      6  C   UNL d   1     -38.559  13.963  19.190  0.00  0.00     0.028 C 
BRANCH   6   7
ATOM      7  C   UNL d   1     -39.199  14.390  19.440  0.00  0.00     0.044 C 
BRANCH   7   8
ATOM      8  C   UNL d   1     -39.322  14.512  20.246  0.00  0.00     0.196 C 
ATOM      9  O   UNL d   1     -38.702  14.328  20.783  0.00  0.00    -0.287 OA
BRANCH   8  10
ATOM     10  C   UNL d   1     -40.035  14.807  20.509  0.00  0.00     0.039 A 
ATOM     11  C   UNL d   1     -40.680  14.303  20.663  0.00  0.00     0.003 A 
ATOM     12  C   UNL d   1     -41.398  14.602  20.928  0.00  0.00     0.000 A 
ATOM     13  C   UNL d   1     -41.482  15.420  21.044  0.00  0.00     0.000 A 
ATOM     14  C   UNL d   1     -40.841  15.922  20.891  0.00  0.00     0.000 A 
ATOM     15  C   UNL d   1     -40.136  15.614  20.629  0.00  0.00     0.003 A 
ENDBRANCH   8  10
ENDBRANCH   7   8
ENDBRANCH   6   7
ENDBRANCH   4   6
BRANCH   1  16
ATOM     16  C   UNL d   1     -38.186  14.118  16.332  0.00  0.00     0.023 A 
ATOM     17  C   UNL d   1     -38.192  14.955  16.288  0.00  0.00     0.002 A 
ATOM     18  C   UNL d   1     -38.070  15.324  15.554  0.00  0.00     0.000 A 
ATOM     19  C   UNL d   1     -37.947  14.880  14.890  0.00  0.00     0.000 A 
ATOM     20  C   UNL d   1     -37.940  14.039  14.930  0.00  0.00     0.000 A 
ATOM     21  C   UNL d   1     -38.061  13.671  15.663  0.00  0.00     0.002 A 
ENDBRANCH   1  16
TORSDOF 5
ENDMDL
MODEL 6
REMARK VINA RESULT:      -5.3      7.839      9.319
REMARK  5 active torsions:
REMARK  status: ('A' for Active; 'I' for Inactive)
REMARK    1  A    between atoms: C_9  and  C_1 
REMARK    2  A    between atoms: C_6  and  C_4 
REMARK    3  A    between atoms: C_5  and  C_6 
REMARK    4  A    between atoms: C_8  and  C_5 
REMARK    5  A    between atoms: C_11  and  C_8 
ROOT
ATOM      1  C   UNL d   1     -45.584  12.998  22.676  0.00  0.00     0.100 A 
ATOM      2  O   UNL d   1     -46.066  12.315  22.828  0.00  0.00    -0.307 OA
ATOM      3  C   UNL d   1     -45.962  13.629  22.924  0.00  0.00     0.027 A 
ATOM      4  C   UNL d   1     -46.760  12.611  23.188  0.00  0.00     0.100 A 
ATOM      5  C   UNL d   1     -46.682  13.417  23.240  0.00  0.00     0.027 A 
ENDROOT
BRANCH   4   6
ATOM      6  C   UNL d   1     -47.436  12.229  23.465  0.00  0.00     0.028 C 
BRANCH   6   7
ATOM      7  C   UNL d   1     -48.123  12.266  23.039  0.00  0.00     0.044 C 
BRANCH   7   8
ATOM      8  C   UNL d   1     -48.767  11.800  23.256  0.00  0.00     0.196 C 
ATOM      9  O   UNL d   1     -48.625  11.070  23.650  0.00  0.00    -0.287 OA
BRANCH   8  10
ATOM     10  C   UNL d   1     -49.525  12.049  23.089  0.00  0.00     0.039 A 
ATOM     11  C   UNL d   1     -50.083  12.173  23.695  0.00  0.00     0.003 A 
ATOM     12  C   UNL d   1     -50.845  12.424  23.525  0.00  0.00     0.000 A 
ATOM     13  C   UNL d   1     -51.065  12.557  22.735  0.00  0.00     0.000 A 
ATOM     14  C   UNL d   1     -50.511  12.435  22.131  0.00  0.00     0.000 A 
ATOM     15  C   UNL d   1     -49.759  12.186  22.313  0.00  0.00     0.003 A 
ENDBRANCH   8  10
ENDBRANCH   7   8
ENDBRANCH   6   7
ENDBRANCH   4   6
BRANCH   1  16
ATOM     16  C   UNL d   1     -44.858  12.832  22.316  0.00  0.00     0.023 A 
ATOM     17  C   UNL d   1     -44.575  13.329  21.704  0.00  0.00     0.002 A 
ATOM     18  C   UNL d   1     -43.846  13.157  21.346  0.00  0.00     0.000 A 
ATOM     19  C   UNL d   1     -43.414  12.517  21.585  0.00  0.00     0.000 A 
ATOM     20  C   UNL d   1     -43.695  12.015  22.199  0.00  0.00     0.000 A 
ATOM     21  C   UNL d   1     -44.424  12.187  22.557  0.00  0.00     0.002 A 
ENDBRANCH   1  16
TORSDOF 5
ENDMDL
MODEL 7
REMARK VINA RESULT:      -5.3      4.567      6.337
REMARK  5 active torsions:
REMARK  status: ('A' for Active; 'I' for Inactive)
REMARK    1  A    between atoms: C_9  and  C_1 
REMARK    2  A    between atoms: C_6  and  C_4 
REMARK    3  A    between atoms: C_5  and  C_6 
REMARK    4  A    between atoms: C_8  and  C_5 
REMARK    5  A    between atoms: C_11  and  C_8 
ROOT
ATOM      1  C   UNL d   1     -42.390  13.614  21.032  0.00  0.00     0.100 A 
ATOM      2  O   UNL d   1     -42.885  13.609  21.723  0.00  0.00    -0.307 OA
ATOM      3  C   UNL d   1     -42.655  13.080  20.534  0.00  0.00     0.027 A 
ATOM      4  C   UNL d   1     -43.461  13.022  21.578  0.00  0.00     0.100 A 
ATOM      5  C   UNL d   1     -43.307  12.707  20.846  0.00  0.00     0.027 A 
ENDROOT
BRANCH   4   6
ATOM      6  C   UNL d   1     -44.094  12.754  22.033  0.00  0.00     0.028 C 
BRANCH   6   7
ATOM      7  C   UNL d   1     -44.798  13.151  22.019  0.00  0.00     0.044 C 
BRANCH   7   8
ATOM      8  C   UNL d   1     -45.393  12.953  22.555  0.00  0.00     0.196 C 
ATOM      9  O   UNL d   1     -45.253  12.331  23.103  0.00  0.00    -0.287 OA
BRANCH   8  10
ATOM     10  C   UNL d   1     -46.100  13.359  22.546  0.00  0.00     0.039 A 
ATOM     11  C   UNL d   1     -46.789  13.018  22.226  0.00  0.00     0.003 A 
ATOM     12  C   UNL d   1     -47.501  13.428  22.218  0.00  0.00     0.000 A 
ATOM     13  C   UNL d   1     -47.533  14.196  22.535  0.00  0.00     0.000 A 
ATOM     14  C   UNL d   1     -46.848  14.535  22.853  0.00  0.00     0.000 A 
ATOM     15  C   UNL d   1     -46.150  14.119  22.855  0.00  0.00     0.003 A 
ENDBRANCH   8  10
ENDBRANCH   7   8
ENDBRANCH   6   7
ENDBRANCH   4   6
BRANCH   1  16
ATOM     16  C   UNL d   1     -41.773  14.164  21.057  0.00  0.00     0.023 A 
ATOM     17  C   UNL d   1     -41.935  14.976  20.931  0.00  0.00     0.002 A 
ATOM     18  C   UNL d   1     -41.312  15.524  20.956  0.00  0.00     0.000 A 
ATOM     19  C   UNL d   1     -40.556  15.275  21.102  0.00  0.00     0.000 A 
ATOM     20  C   UNL d   1     -40.389  14.461  21.230  0.00  0.00     0.000 A 
ATOM     21  C   UNL d   1     -41.012  13.913  21.204  0.00  0.00     0.002 A 
ENDBRANCH   1  16
TORSDOF 5
ENDMDL
