MODEL 1
REMARK VINA RESULT:     101.5      0.000      0.000
REMARK  4 active torsions:
REMARK  status: ('A' for Active; 'I' for Inactive)
REMARK    1  A    between atoms: C_2  and  C_1 
REMARK    2  A    between atoms: C_15  and  C_8 
REMARK    3  A    between atoms: C_9  and  C_15 
REMARK    4  A    between atoms: C_18  and  C_10 
ROOT
ATOM      1  C   UNL d   1      60.889  48.044  51.609  0.00  0.00     0.094 A 
ATOM      2  N   UNL d   1      60.375  48.689  51.626  0.00  0.00    -0.238 NA
ATOM      3  C   UNL d   1      60.208  48.861  52.416  0.00  0.00     0.113 A 
ATOM      4  S   UNL d   1      60.614  48.328  52.888  0.00  0.00    -0.066 SA
ATOM      5  C   UNL d   1      61.036  47.821  52.392  0.00  0.00     0.056 A 
ENDROOT
BRANCH   3   6
ATOM      6  C   UNL d   1      59.714  49.469  52.682  0.00  0.00     0.051 C 
BRANCH   6   7
ATOM      7  C   UNL d   1      58.944  49.529  52.387  0.00  0.00     0.113 A 
ATOM      8  N   UNL d   1      58.714  49.435  51.601  0.00  0.00    -0.238 NA
ATOM      9  C   UNL d   1      57.897  49.541  51.559  0.00  0.00     0.088 A 
ATOM     10  C   UNL d   1      57.623  49.701  52.321  0.00  0.00     0.056 A 
ATOM     11  S   UNL d   1      58.268  49.693  52.831  0.00  0.00    -0.066 SA
BRANCH   9  12
ATOM     12  C   UNL d   1      57.438  49.494  50.872  0.00  0.00     0.018 A 
ATOM     13  C   UNL d   1      57.760  49.693  50.150  0.00  0.00     0.002 A 
ATOM     14  C   UNL d   1      57.300  49.646  49.466  0.00  0.00     0.007 A 
ATOM     15  C   UNL d   1      56.514  49.397  49.515  0.00  0.00     0.035 A 
ATOM     16  C   UNL d   1      56.193  49.198  50.237  0.00  0.00     0.007 A 
ATOM     17 BR   UNL d   1      56.055  49.349  48.831  0.00  0.00    -0.049 Br
ATOM     18  C   UNL d   1      56.652  49.245  50.924  0.00  0.00     0.002 A 
ENDBRANCH   9  12
ENDBRANCH   6   7
ENDBRANCH   3   6
BRANCH   1  19
ATOM     19  C   UNL d   1      61.199  47.686  50.934  0.00  0.00     0.082 A 
ATOM     20  C   UNL d   1      61.490  48.151  50.317  0.00  0.00     0.302 A 
ATOM     21  O   UNL d   1      61.800  47.794  49.642  0.00  0.00    -0.273 OA
ATOM     22  O   UNL d   1      61.471  48.973  50.377  0.00  0.00    -0.259 OA
ATOM     23  C   UNL d   1      61.820  46.971  49.582  0.00  0.00     0.103 A 
ATOM     24  C   UNL d   1      61.528  46.505  50.199  0.00  0.00     0.023 A 
ATOM     25  C   UNL d   1      62.130  46.613  48.908  0.00  0.00     0.025 A 
ATOM     26  C   UNL d   1      61.218  46.864  50.875  0.00  0.00     0.009 A 
ATOM     27  C   UNL d   1      61.547  45.684  50.140  0.00  0.00     0.002 A 
ATOM     28  C   UNL d   1      61.856  45.329  49.467  0.00  0.00     0.000 A 
ATOM     29  C   UNL d   1      62.148  45.795  48.850  0.00  0.00     0.002 A 
ENDBRANCH   1  19
TORSDOF 4
ENDMDL
