MODEL 1
REMARK VINA RESULT:       3.6      0.000      0.000
REMARK  1 active torsions:
REMARK  status: ('A' for Active; 'I' for Inactive)
REMARK    1  A    between atoms: C_6  and  C_1 
ROOT
ATOM      1  C   UNL d   1      14.144  12.025  -2.088  0.00  0.00     0.168 A 
ATOM      2  N   UNL d   1      14.978  12.149  -2.132  0.00  0.00    -0.142 NA
ATOM      3  C   UNL d   1      13.936  11.934  -1.302  0.00  0.00     0.045 A 
ATOM      4  N   UNL d   1      15.274  12.131  -1.347  0.00  0.00    -0.148 NA
ATOM      5  C   UNL d   1      14.634  11.998  -0.832  0.00  0.00     0.105 A 
ATOM      6  C   UNL d   1      13.308  11.804  -0.790  0.00  0.00     0.003 A 
ATOM      7  C   UNL d   1      14.422  11.905  -0.031  0.00  0.00     0.021 A 
ATOM      8  C   UNL d   1      13.573  11.781  -0.014  0.00  0.00     0.002 A 
ENDROOT
BRANCH   1   9
ATOM      9  C   UNL d   1      13.636  12.002  -2.721  0.00  0.00     0.231 C 
ATOM     10  O   UNL d   1      12.847  11.780  -2.625  0.00  0.00    -0.643 OA
ATOM     11  O   UNL d   1      13.859  12.192  -3.498  0.00  0.00    -0.643 OA
ENDBRANCH   1   9
TORSDOF 1
ENDMDL
MODEL 2
REMARK VINA RESULT:       6.2      9.012      9.613
REMARK  1 active torsions:
REMARK  status: ('A' for Active; 'I' for Inactive)
REMARK    1  A    between atoms: C_6  and  C_1 
ROOT
ATOM      1  C   UNL d   1      23.112  12.506  -0.658  0.00  0.00     0.168 A 
ATOM      2  N   UNL d   1      23.585  12.027  -0.149  0.00  0.00    -0.142 NA
ATOM      3  C   UNL d   1      23.555  12.698  -1.319  0.00  0.00     0.045 A 
ATOM      4  N   UNL d   1      24.333  11.933  -0.519  0.00  0.00    -0.148 NA
ATOM      5  C   UNL d   1      24.317  12.346  -1.242  0.00  0.00     0.105 A 
ATOM      6  C   UNL d   1      23.544  13.104  -2.032  0.00  0.00     0.003 A 
ATOM      7  C   UNL d   1      24.768  12.542  -1.915  0.00  0.00     0.021 A 
ATOM      8  C   UNL d   1      24.266  13.027  -2.415  0.00  0.00     0.002 A 
ENDROOT
BRANCH   1   9
ATOM      9  C   UNL d   1      22.347  12.735  -0.514  0.00  0.00     0.231 C 
ATOM     10  O   UNL d   1      21.710  12.289  -0.789  0.00  0.00    -0.643 OA
ATOM     11  O   UNL d   1      22.144  13.420  -0.090  0.00  0.00    -0.643 OA
ENDBRANCH   1   9
TORSDOF 1
ENDMDL
MODEL 3
REMARK VINA RESULT:       6.4      1.254      2.246
REMARK  1 active torsions:
REMARK  status: ('A' for Active; 'I' for Inactive)
REMARK    1  A    between atoms: C_6  and  C_1 
ROOT
ATOM      1  C   UNL d   1      14.186  11.949  -1.428  0.00  0.00     0.168 A 
ATOM      2  N   UNL d   1      14.998  12.066  -1.623  0.00  0.00    -0.142 NA
ATOM      3  C   UNL d   1      13.758  11.890  -2.122  0.00  0.00     0.045 A 
ATOM      4  N   UNL d   1      15.054  12.076  -2.461  0.00  0.00    -0.148 NA
ATOM      5  C   UNL d   1      14.289  11.967  -2.772  0.00  0.00     0.105 A 
ATOM      6  C   UNL d   1      13.006  11.783  -2.434  0.00  0.00     0.003 A 
ATOM      7  C   UNL d   1      13.853  11.906  -3.479  0.00  0.00     0.021 A 
ATOM      8  C   UNL d   1      13.034  11.789  -3.254  0.00  0.00     0.002 A 
ENDROOT
BRANCH   1   9
ATOM      9  C   UNL d   1      13.882  11.904  -0.676  0.00  0.00     0.231 C 
ATOM     10  O   UNL d   1      14.369  11.981  -0.015  0.00  0.00    -0.643 OA
ATOM     11  O   UNL d   1      13.077  11.780  -0.512  0.00  0.00    -0.643 OA
ENDBRANCH   1   9
TORSDOF 1
ENDMDL
