MODEL 1
REMARK VINA RESULT:      69.2      0.000      0.000
REMARK  6 active torsions:
REMARK  status: ('A' for Active; 'I' for Inactive)
REMARK    1  A    between atoms: C_11  and  N_3 
REMARK    2  A    between atoms: C_10  and  C_4 
REMARK    3  A    between atoms: C_18  and  C_11 
REMARK    4  A    between atoms: O_21  and  C_13 
REMARK    5  A    between atoms: O_22  and  C_15 
REMARK    6  A    between atoms: C_23  and  C_18 
ROOT
ATOM      1  N   UNL d   1      13.654  14.199  -3.968  0.00  0.00    -0.122 N 
ATOM      2  C   UNL d   1      13.591  13.880  -3.208  0.00  0.00     0.741 A 
ATOM      3  N   UNL d   1      13.423  13.066  -3.109  0.00  0.00    -0.103 N 
ATOM      4  C   UNL d   1      13.822  15.008  -3.898  0.00  0.00     0.185 A 
ATOM      5  C   UNL d   1      13.321  12.582  -3.772  0.00  0.00     0.280 A 
ATOM      6  N   UNL d   1      13.717  14.485  -2.664  0.00  0.00     0.045 NA
ATOM      7  C   UNL d   1      13.552  13.715  -4.635  0.00  0.00     0.087 A 
ATOM      8  N   UNL d   1      13.861  15.188  -3.090  0.00  0.00    -0.114 NA
ATOM      9  C   UNL d   1      13.387  12.913  -4.530  0.00  0.00     0.074 A 
ATOM     10  O   UNL d   1      13.155  11.779  -3.675  0.00  0.00    -0.266 OA
ATOM     11  C   UNL d   1      13.285  12.430  -5.197  0.00  0.00     0.006 A 
ATOM     12  C   UNL d   1      13.616  14.034  -5.391  0.00  0.00     0.018 A 
ATOM     13  C   UNL d   1      13.349  12.749  -5.953  0.00  0.00     0.000 A 
ATOM     14  C   UNL d   1      13.514  13.551  -6.050  0.00  0.00     0.002 A 
ENDROOT
BRANCH   4  15
ATOM     15  C   UNL d   1      13.930  15.540  -4.521  0.00  0.00     0.039 A 
ATOM     16  C   UNL d   1      14.641  15.928  -4.607  0.00  0.00     0.029 A 
ATOM     17  C   UNL d   1      14.751  16.458  -5.226  0.00  0.00     0.116 A 
ATOM     18  C   UNL d   1      14.133  16.599  -5.764  0.00  0.00     0.116 A 
ATOM     19  C   UNL d   1      13.413  16.204  -5.674  0.00  0.00     0.026 A 
ATOM     20  C   UNL d   1      13.306  15.671  -5.051  0.00  0.00     0.005 A 
BRANCH  17  21
ATOM     21  O   UNL d   1      15.465  16.845  -5.308  0.00  0.00    -0.326 OA
ATOM     22  C   UNL d   1      16.097  16.668  -4.804  0.00  0.00     0.181 C 
ENDBRANCH  17  21
BRANCH  18  23
ATOM     23  O   UNL d   1      14.244  17.130  -6.383  0.00  0.00    -0.326 OA
ATOM     24  C   UNL d   1      13.846  17.855  -6.376  0.00  0.00     0.181 C 
ENDBRANCH  18  23
ENDBRANCH   4  15
BRANCH   3  25
ATOM     25  C   UNL d   1      13.359  12.746  -2.352  0.00  0.00     0.101 C 
BRANCH  25  26
ATOM     26  C   UNL d   1      13.753  12.044  -2.170  0.00  0.00     0.020 C 
BRANCH  26  27
ATOM     27  C   UNL d   1      14.142  11.957  -1.442  0.00  0.00     0.002 A 
ATOM     28  C   UNL d   1      13.705  11.913  -0.744  0.00  0.00     0.000 A 
ATOM     29  C   UNL d   1      14.089  11.828  -0.034  0.00  0.00     0.000 A 
ATOM     30  C   UNL d   1      14.898  11.787  -0.015  0.00  0.00     0.000 A 
ATOM     31  C   UNL d   1      15.341  11.831  -0.705  0.00  0.00     0.000 A 
ATOM     32  C   UNL d   1      14.950  11.917  -1.423  0.00  0.00     0.000 A 
ENDBRANCH  26  27
ENDBRANCH  25  26
ENDBRANCH   3  25
TORSDOF 6
ENDMDL
