MODEL 1
REMARK VINA RESULT:      41.8      0.000      0.000
REMARK  3 active torsions:
REMARK  status: ('A' for Active; 'I' for Inactive)
REMARK       I    between atoms: C_3  and  N_1 
REMARK    1  A    between atoms: C_5  and  C_3 
REMARK    2  A    between atoms: C_9  and  C_4 
REMARK    3  A    between atoms: C_14  and  C_6 
ROOT
ATOM      1  N   UNL d   1     -58.114 -98.969 -44.484  0.00  0.00    -0.193 N 
ATOM      2  N   UNL d   1     -58.115 -98.968 -45.318  0.00  0.00    -0.162 NA
ATOM      3  C   UNL d   1     -57.434 -99.058 -44.032  0.00  0.00     0.303 C 
ATOM      4  C   UNL d   1     -58.900 -98.865 -45.567  0.00  0.00     0.109 A 
ATOM      5  C   UNL d   1     -58.901 -98.866 -44.242  0.00  0.00     0.088 A 
ATOM      6  C   UNL d   1     -59.386 -98.802 -44.900  0.00  0.00     0.041 A 
ATOM      7  O   UNL d   1     -57.469 -99.054 -43.189  0.00  0.00    -0.263 OA
ENDROOT
BRANCH   3   8
ATOM      8  C   UNL d   1     -56.716 -99.152 -44.368  0.00  0.00     0.158 A 
ATOM      9  O   UNL d   1     -56.126 -99.685 -44.116  0.00  0.00    -0.296 OA
ATOM     10  C   UNL d   1     -55.477 -99.602 -44.615  0.00  0.00     0.134 A 
ATOM     11 BR   UNL d   1     -54.751-100.040 -44.557  0.00  0.00    -0.022 Br
ATOM     12  C   UNL d   1     -55.658 -99.035 -45.161  0.00  0.00     0.034 A 
ATOM     13  C   UNL d   1     -56.407 -98.755 -45.021  0.00  0.00     0.032 A 
ENDBRANCH   3   8
BRANCH   5  14
ATOM     14  C   UNL d   1     -59.015 -98.851 -43.862  0.00  0.00     0.018 A 
ATOM     15  C   UNL d   1     -59.803 -98.846 -43.619  0.00  0.00     0.002 A 
ATOM     16  C   UNL d   1     -59.961 -98.814 -42.821  0.00  0.00     0.000 A 
ATOM     17  C   UNL d   1     -59.381 -98.787 -42.253  0.00  0.00     0.000 A 
ATOM     18  C   UNL d   1     -58.593 -98.792 -42.496  0.00  0.00     0.000 A 
ATOM     19  C   UNL d   1     -59.539 -98.756 -41.456  0.00  0.00     0.000 C 
ATOM     20  C   UNL d   1     -58.409 -98.824 -43.300  0.00  0.00     0.002 A 
ENDBRANCH   5  14
BRANCH   4  21
ATOM     21  C   UNL d   1     -59.168 -98.829 -46.347  0.00  0.00     0.049 A 
ATOM     22  S   UNL d   1     -58.669 -98.777 -46.984  0.00  0.00    -0.085 SA
ATOM     23  C   UNL d   1     -59.167 -98.755 -47.663  0.00  0.00     0.035 A 
ATOM     24  C   UNL d   1     -59.956 -98.794 -47.426  0.00  0.00     0.007 A 
ATOM     25  C   UNL d   1     -59.934 -98.840 -46.603  0.00  0.00     0.009 A 
ENDBRANCH   4  21
TORSDOF 3
ENDMDL
