MODEL 1
REMARK VINA RESULT:      -0.3      0.000      0.000
REMARK  6 active torsions:
REMARK  status: ('A' for Active; 'I' for Inactive)
REMARK    1  A    between atoms: C_7  and  S_1 
REMARK    2  A    between atoms: N_9  and  S_1 
REMARK    3  A    between atoms: C_20  and  N_2 
REMARK    4  A    between atoms: C_10  and  N_9 
REMARK    5  A    between atoms: O_24  and  C_13 
REMARK    6  A    between atoms: O_25  and  C_19 
ROOT
ATOM      1  N   UNL d   1     -42.273-123.472 -48.491  0.00  0.00    -0.273 N 
ATOM      2  C   UNL d   1     -43.336-123.323 -48.563  0.00  0.00     0.265 A 
ATOM      3  C   UNL d   1     -42.001-123.170 -49.191  0.00  0.00     0.067 A 
ATOM      4  C   UNL d   1     -42.647-122.899 -49.617  0.00  0.00     0.021 A 
ATOM      5  C   UNL d   1     -43.411-122.964 -49.304  0.00  0.00     0.058 A 
ATOM      6  C   UNL d   1     -41.769-122.487 -50.687  0.00  0.00     0.105 A 
ATOM      7  C   UNL d   1     -42.544-122.558 -50.361  0.00  0.00     0.014 A 
ATOM      8  C   UNL d   1     -41.238-123.106 -49.501  0.00  0.00     0.018 A 
ATOM      9  C   UNL d   1     -41.123-122.758 -50.261  0.00  0.00     0.014 A 
ATOM     10  O   UNL d   1     -44.015-123.467 -48.104  0.00  0.00    -0.267 OA
ATOM     11  C   UNL d   1     -44.054-122.694 -49.728  0.00  0.00     0.005 A 
ATOM     12  C   UNL d   1     -43.187-122.288 -50.784  0.00  0.00     0.001 A 
ATOM     13  C   UNL d   1     -43.956-122.349 -50.479  0.00  0.00     0.000 A 
ENDROOT
BRANCH   6  14
ATOM     14  S   UNL d   1     -41.664-122.145 -51.434  0.00  0.00     0.285 S 
ATOM     15  O   UNL d   1     -41.876-121.405 -51.126  0.00  0.00    -0.198 OA
ATOM     16  O   UNL d   1     -41.450-122.887 -51.746  0.00  0.00    -0.198 OA
BRANCH  14  17
ATOM     17  N   UNL d   1     -41.558-121.810 -52.177  0.00  0.00    -0.156 NA
BRANCH  17  18
ATOM     18  C   UNL d   1     -41.470-122.290 -52.831  0.00  0.00     0.116 A 
ATOM     19  C   UNL d   1     -41.620-121.989 -53.568  0.00  0.00     0.114 A 
ATOM     20  C   UNL d   1     -41.533-122.466 -54.227  0.00  0.00     0.050 A 
ATOM     21  C   UNL d   1     -41.298-123.241 -54.166  0.00  0.00     0.096 A 
ATOM     22  C   UNL d   1     -41.147-123.536 -53.391  0.00  0.00     0.026 A 
ATOM     23  C   UNL d   1     -41.233-123.064 -52.731  0.00  0.00     0.024 A 
BRANCH  19  24
ATOM     24  O   UNL d   1     -41.863-121.193 -53.653  0.00  0.00    -0.327 OA
ATOM     25  C   UNL d   1     -42.437-120.991 -54.224  0.00  0.00     0.181 C 
ENDBRANCH  19  24
BRANCH  21  26
ATOM     26  O   UNL d   1     -41.206-123.741 -54.840  0.00  0.00    -0.328 OA
ATOM     27  C   UNL d   1     -41.844-123.817 -55.384  0.00  0.00     0.181 C 
ENDBRANCH  21  26
ENDBRANCH  17  18
ENDBRANCH  14  17
ENDBRANCH   6  14
BRANCH   1  28
ATOM     28  C   UNL d   1     -41.734-123.790 -47.941  0.00  0.00     0.083 C 
ATOM     29  C   UNL d   1     -41.249-123.297 -47.510  0.00  0.00     0.021 C 
ENDBRANCH   1  28
TORSDOF 6
ENDMDL
MODEL 2
REMARK VINA RESULT:       0.2      1.234      4.818
REMARK  6 active torsions:
REMARK  status: ('A' for Active; 'I' for Inactive)
REMARK    1  A    between atoms: C_7  and  S_1 
REMARK    2  A    between atoms: N_9  and  S_1 
REMARK    3  A    between atoms: C_20  and  N_2 
REMARK    4  A    between atoms: C_10  and  N_9 
REMARK    5  A    between atoms: O_24  and  C_13 
REMARK    6  A    between atoms: O_25  and  C_19 
ROOT
ATOM      1  N   UNL d   1     -41.749-122.586 -54.159  0.00  0.00    -0.273 N 
ATOM      2  C   UNL d   1     -41.703-121.512 -54.101  0.00  0.00     0.265 A 
ATOM      3  C   UNL d   1     -41.654-122.812 -53.387  0.00  0.00     0.067 A 
ATOM      4  C   UNL d   1     -41.569-122.133 -52.934  0.00  0.00     0.021 A 
ATOM      5  C   UNL d   1     -41.590-121.387 -53.292  0.00  0.00     0.058 A 
ATOM      6  C   UNL d   1     -41.439-122.943 -51.746  0.00  0.00     0.105 A 
ATOM      7  C   UNL d   1     -41.461-122.186 -52.118  0.00  0.00     0.014 A 
ATOM      8  C   UNL d   1     -41.634-123.557 -53.033  0.00  0.00     0.018 A 
ATOM      9  C   UNL d   1     -41.524-123.621 -52.198  0.00  0.00     0.014 A 
ATOM     10  O   UNL d   1     -41.748-120.861 -54.618  0.00  0.00    -0.267 OA
ATOM     11  C   UNL d   1     -41.505-120.712 -52.842  0.00  0.00     0.005 A 
ATOM     12  C   UNL d   1     -41.377-121.511 -51.668  0.00  0.00     0.001 A 
ATOM     13  C   UNL d   1     -41.396-120.759 -52.017  0.00  0.00     0.000 A 
ENDROOT
BRANCH   6  14
ATOM     14  S   UNL d   1     -41.331-122.998 -50.926  0.00  0.00     0.285 S 
ATOM     15  O   UNL d   1     -41.205-123.814 -50.997  0.00  0.00    -0.198 OA
ATOM     16  O   UNL d   1     -41.457-122.178 -50.852  0.00  0.00    -0.198 OA
BRANCH  14  17
ATOM     17  N   UNL d   1     -41.225-123.048 -50.113  0.00  0.00    -0.156 NA
BRANCH  17  18
ATOM     18  C   UNL d   1     -41.863-123.199 -49.627  0.00  0.00     0.116 A 
ATOM     19  C   UNL d   1     -41.882-122.881 -48.883  0.00  0.00     0.114 A 
ATOM     20  C   UNL d   1     -42.519-123.030 -48.393  0.00  0.00     0.050 A 
ATOM     21  C   UNL d   1     -43.142-123.492 -48.630  0.00  0.00     0.096 A 
ATOM     22  C   UNL d   1     -43.106-123.815 -49.409  0.00  0.00     0.026 A 
ATOM     23  C   UNL d   1     -42.472-123.669 -49.901  0.00  0.00     0.024 A 
BRANCH  19  24
ATOM     24  O   UNL d   1     -41.249-122.401 -48.619  0.00  0.00    -0.327 OA
ATOM     25  C   UNL d   1     -41.123-122.290 -47.801  0.00  0.00     0.181 C 
ENDBRANCH  19  24
BRANCH  21  26
ATOM     26  O   UNL d   1     -43.805-123.652 -48.132  0.00  0.00    -0.328 OA
ATOM     27  C   UNL d   1     -44.561-123.770 -48.482  0.00  0.00     0.181 C 
ENDBRANCH  21  26
ENDBRANCH  17  18
ENDBRANCH  14  17
ENDBRANCH   6  14
BRANCH   1  28
ATOM     28  C   UNL d   1     -41.849-123.165 -54.749  0.00  0.00     0.083 C 
ATOM     29  C   UNL d   1     -42.224-122.977 -55.448  0.00  0.00     0.021 C 
ENDBRANCH   1  28
TORSDOF 6
ENDMDL
MODEL 3
REMARK VINA RESULT:       0.9      1.190      4.964
REMARK  6 active torsions:
REMARK  status: ('A' for Active; 'I' for Inactive)
REMARK    1  A    between atoms: C_7  and  S_1 
REMARK    2  A    between atoms: N_9  and  S_1 
REMARK    3  A    between atoms: C_20  and  N_2 
REMARK    4  A    between atoms: C_10  and  N_9 
REMARK    5  A    between atoms: O_24  and  C_13 
REMARK    6  A    between atoms: O_25  and  C_19 
ROOT
ATOM      1  N   UNL d   1     -41.928-121.115 -53.855  0.00  0.00    -0.273 N 
ATOM      2  C   UNL d   1     -41.564-121.878 -54.522  0.00  0.00     0.265 A 
ATOM      3  C   UNL d   1     -41.942-121.494 -53.139  0.00  0.00     0.067 A 
ATOM      4  C   UNL d   1     -41.679-122.262 -53.255  0.00  0.00     0.021 A 
ATOM      5  C   UNL d   1     -41.457-122.518 -54.010  0.00  0.00     0.058 A 
ATOM      6  C   UNL d   1     -41.855-122.534 -51.848  0.00  0.00     0.105 A 
ATOM      7  C   UNL d   1     -41.631-122.787 -52.621  0.00  0.00     0.014 A 
ATOM      8  C   UNL d   1     -42.164-121.236 -52.387  0.00  0.00     0.018 A 
ATOM      9  C   UNL d   1     -42.118-121.766 -51.732  0.00  0.00     0.014 A 
ATOM     10  O   UNL d   1     -41.387-121.961 -55.330  0.00  0.00    -0.267 OA
ATOM     11  C   UNL d   1     -41.195-123.282 -54.125  0.00  0.00     0.005 A 
ATOM     12  C   UNL d   1     -41.369-123.551 -52.736  0.00  0.00     0.001 A 
ATOM     13  C   UNL d   1     -41.145-123.817 -53.489  0.00  0.00     0.000 A 
ENDROOT
BRANCH   6  14
ATOM     14  S   UNL d   1     -41.808-123.060 -51.210  0.00  0.00     0.285 S 
ATOM     15  O   UNL d   1     -42.462-123.476 -51.504  0.00  0.00    -0.198 OA
ATOM     16  O   UNL d   1     -41.151-122.645 -50.912  0.00  0.00    -0.198 OA
BRANCH  14  17
ATOM     17  N   UNL d   1     -41.758-123.580 -50.575  0.00  0.00    -0.156 NA
BRANCH  17  18
ATOM     18  C   UNL d   1     -41.773-123.293 -49.811  0.00  0.00     0.116 A 
ATOM     19  C   UNL d   1     -42.434-123.406 -49.358  0.00  0.00     0.114 A 
ATOM     20  C   UNL d   1     -42.455-123.120 -48.592  0.00  0.00     0.050 A 
ATOM     21  C   UNL d   1     -41.827-122.721 -48.266  0.00  0.00     0.096 A 
ATOM     22  C   UNL d   1     -41.147-122.613 -48.754  0.00  0.00     0.026 A 
ATOM     23  C   UNL d   1     -41.123-122.897 -49.519  0.00  0.00     0.024 A 
BRANCH  19  24
ATOM     24  O   UNL d   1     -43.093-123.814 -49.674  0.00  0.00    -0.327 OA
ATOM     25  C   UNL d   1     -43.830-123.782 -49.283  0.00  0.00     0.181 C 
ENDBRANCH  19  24
BRANCH  21  26
ATOM     26  O   UNL d   1     -41.839-122.422 -47.477  0.00  0.00    -0.328 OA
ATOM     27  C   UNL d   1     -41.257-122.689 -46.930  0.00  0.00     0.181 C 
ENDBRANCH  21  26
ENDBRANCH  17  18
ENDBRANCH  14  17
ENDBRANCH   6  14
BRANCH   1  28
ATOM     28  C   UNL d   1     -42.169-120.320 -53.906  0.00  0.00     0.083 C 
ATOM     29  C   UNL d   1     -41.747-119.792 -54.362  0.00  0.00     0.021 C 
ENDBRANCH   1  28
TORSDOF 6
ENDMDL
MODEL 4
REMARK VINA RESULT:       2.5      1.110      1.944
REMARK  6 active torsions:
REMARK  status: ('A' for Active; 'I' for Inactive)
REMARK    1  A    between atoms: C_7  and  S_1 
REMARK    2  A    between atoms: N_9  and  S_1 
REMARK    3  A    between atoms: C_20  and  N_2 
REMARK    4  A    between atoms: C_10  and  N_9 
REMARK    5  A    between atoms: O_24  and  C_13 
REMARK    6  A    between atoms: O_25  and  C_19 
ROOT
ATOM      1  N   UNL d   1     -43.356-123.283 -48.909  0.00  0.00    -0.273 N 
ATOM      2  C   UNL d   1     -42.683-122.573 -48.462  0.00  0.00     0.265 A 
ATOM      3  C   UNL d   1     -43.082-123.338 -49.669  0.00  0.00     0.067 A 
ATOM      4  C   UNL d   1     -42.435-122.839 -49.740  0.00  0.00     0.021 A 
ATOM      5  C   UNL d   1     -42.178-122.393 -49.092  0.00  0.00     0.058 A 
ATOM      6  C   UNL d   1     -42.289-123.226 -51.124  0.00  0.00     0.105 A 
ATOM      7  C   UNL d   1     -42.034-122.775 -50.458  0.00  0.00     0.014 A 
ATOM      8  C   UNL d   1     -43.340-123.784 -50.314  0.00  0.00     0.018 A 
ATOM      9  C   UNL d   1     -42.936-123.725 -51.052  0.00  0.00     0.014 A 
ATOM     10  O   UNL d   1     -42.567-122.208 -47.723  0.00  0.00    -0.267 OA
ATOM     11  C   UNL d   1     -41.535-121.896 -49.162  0.00  0.00     0.005 A 
ATOM     12  C   UNL d   1     -41.390-122.279 -50.529  0.00  0.00     0.001 A 
ATOM     13  C   UNL d   1     -41.125-121.828 -49.885  0.00  0.00     0.000 A 
ENDROOT
BRANCH   6  14
ATOM     14  S   UNL d   1     -41.887-123.163 -51.845  0.00  0.00     0.285 S 
ATOM     15  O   UNL d   1     -42.541-122.777 -52.177  0.00  0.00    -0.198 OA
ATOM     16  O   UNL d   1     -41.229-123.552 -51.515  0.00  0.00    -0.198 OA
BRANCH  14  17
ATOM     17  N   UNL d   1     -41.484-123.103 -52.559  0.00  0.00    -0.156 NA
BRANCH  17  18
ATOM     18  C   UNL d   1     -41.788-122.643 -53.160  0.00  0.00     0.116 A 
ATOM     19  C   UNL d   1     -41.701-122.884 -53.929  0.00  0.00     0.114 A 
ATOM     20  C   UNL d   1     -42.003-122.427 -54.535  0.00  0.00     0.050 A 
ATOM     21  C   UNL d   1     -42.394-121.730 -54.391  0.00  0.00     0.096 A 
ATOM     22  C   UNL d   1     -42.475-121.495 -53.585  0.00  0.00     0.026 A 
ATOM     23  C   UNL d   1     -42.175-121.948 -52.977  0.00  0.00     0.024 A 
BRANCH  19  24
ATOM     24  O   UNL d   1     -41.301-123.600 -54.099  0.00  0.00    -0.327 OA
ATOM     25  C   UNL d   1     -41.142-123.810 -54.891  0.00  0.00     0.181 C 
ENDBRANCH  19  24
BRANCH  21  26
ATOM     26  O   UNL d   1     -42.710-121.250 -55.010  0.00  0.00    -0.328 OA
ATOM     27  C   UNL d   1     -42.181-120.855 -55.532  0.00  0.00     0.181 C 
ENDBRANCH  21  26
ENDBRANCH  17  18
ENDBRANCH  14  17
ENDBRANCH   6  14
BRANCH   1  28
ATOM     28  C   UNL d   1     -44.016-123.734 -48.675  0.00  0.00     0.083 C 
ATOM     29  C   UNL d   1     -44.212-123.796 -47.886  0.00  0.00     0.021 C 
ENDBRANCH   1  28
TORSDOF 6
ENDMDL
