MODEL 1
REMARK VINA RESULT:      -1.2      0.000      0.000
REMARK  5 active torsions:
REMARK  status: ('A' for Active; 'I' for Inactive)
REMARK    1  A    between atoms: C_3  and  C_1 
REMARK    2  A    between atoms: N_2  and  C_10 
REMARK    3  A    between atoms: N_6  and  C_3 
REMARK    4  A    between atoms: C_11  and  C_5 
REMARK    5  A    between atoms: C_20  and  N_7 
ROOT
ATOM      1  C   UNL d   1      57.536  -0.166  31.798  0.00  0.00     0.126 A 
ATOM      2  O   UNL d   1      58.156  -0.201  31.255  0.00  0.00    -0.305 OA
ATOM      3  C   UNL d   1      57.933  -0.709  30.638  0.00  0.00     0.100 A 
ATOM      4  C   UNL d   1      56.929  -0.651  31.518  0.00  0.00     0.029 A 
ATOM      5  C   UNL d   1      57.167  -0.987  30.807  0.00  0.00     0.027 A 
ENDROOT
BRANCH   1   6
ATOM      6  C   UNL d   1      57.516   0.293  32.529  0.00  0.00     0.143 C 
ATOM      7  S   UNL d   1      58.207   0.653  32.802  0.00  0.00    -0.057 SA
BRANCH   6   8
ATOM      8  N   UNL d   1      56.784   0.361  32.945  0.00  0.00    -0.291 N 
ATOM      9  C   UNL d   1      56.079   0.516  32.557  0.00  0.00     0.100 A 
ATOM     10  C   UNL d   1      55.387   0.575  32.986  0.00  0.00     0.100 A 
ATOM     11  N   UNL d   1      55.368   0.487  33.789  0.00  0.00    -0.301 N 
ATOM     12  C   UNL d   1      56.081   0.327  34.209  0.00  0.00     0.100 A 
ATOM     13  C   UNL d   1      56.794   0.264  33.781  0.00  0.00     0.100 A 
BRANCH  11  14
ATOM     14  C   UNL d   1      54.652   0.552  34.204  0.00  0.00     0.064 A 
ATOM     15  C   UNL d   1      54.669   0.608  35.018  0.00  0.00     0.018 A 
ATOM     16  C   UNL d   1      53.974   0.673  35.455  0.00  0.00     0.002 A 
ATOM     17  C   UNL d   1      53.253   0.682  35.063  0.00  0.00     0.000 A 
ATOM     18  C   UNL d   1      53.228   0.625  34.234  0.00  0.00     0.002 A 
ATOM     19  C   UNL d   1      53.931   0.560  33.813  0.00  0.00     0.018 A 
ENDBRANCH  11  14
ENDBRANCH   6   8
ENDBRANCH   1   6
BRANCH   3  20
ATOM     20  C   UNL d   1      58.326  -0.953  29.949  0.00  0.00     0.024 A 
ATOM     21  C   UNL d   1      58.587  -1.737  29.873  0.00  0.00     0.025 A 
ATOM     22  C   UNL d   1      58.978  -1.979  29.188  0.00  0.00     0.127 A 
ATOM     23  C   UNL d   1      59.117  -1.442  28.564  0.00  0.00     0.024 A 
ATOM     24  C   UNL d   1      58.852  -0.663  28.650  0.00  0.00     0.002 A 
ATOM     25  C   UNL d   1      58.461  -0.421  29.335  0.00  0.00     0.002 A 
BRANCH  22  26
ATOM     26  N   UNL d   1      59.229  -2.750  29.124  0.00  0.00    -0.114 N 
ATOM     27  O   UNL d   1      59.961  -3.055  29.412  0.00  0.00    -0.532 OA
ATOM     28  O   UNL d   1      58.783  -3.343  28.759  0.00  0.00    -0.532 OA
ENDBRANCH  22  26
ENDBRANCH   3  20
TORSDOF 5
ENDMDL
