MODEL 1
REMARK VINA RESULT:      -2.5      0.000      0.000
REMARK  11 active torsions:
REMARK  status: ('A' for Active; 'I' for Inactive)
REMARK    1  A    between atoms: C_3  and  C_1 
REMARK    2  A    between atoms: N_4  and  C_1 
REMARK    3  A    between atoms: C_5  and  C_1 
REMARK       I    between atoms: C_2  and  N_4 
REMARK    4  A    between atoms: O_10  and  C_2 
REMARK    5  A    between atoms: O_7  and  C_3 
REMARK    6  A    between atoms: C_12  and  C_5 
REMARK    7  A    between atoms: C_6  and  C_12 
REMARK    8  A    between atoms: C_13  and  O_7 
REMARK    9  A    between atoms: C_15  and  O_10 
REMARK   10  A    between atoms: C_16  and  C_13 
REMARK   11  A    between atoms: C_17  and  C_15 
ROOT
ATOM      1  C   UNL d   1      57.527  -0.147  31.392  0.00  0.00     0.150 C 
ENDROOT
BRANCH   1   2
ATOM      2  C   UNL d   1      57.354   0.076  30.617  0.00  0.00     0.318 C 
ATOM      3  O   UNL d   1      56.735   0.603  30.466  0.00  0.00    -0.257 OA
BRANCH   2   4
ATOM      4  O   UNL d   1      57.802  -0.227  29.985  0.00  0.00    -0.270 OA
BRANCH   4   5
ATOM      5  C   UNL d   1      58.289  -0.116  29.325  0.00  0.00     0.126 C 
BRANCH   5   6
ATOM      6  C   UNL d   1      58.771  -0.734  29.069  0.00  0.00     0.025 A 
ATOM      7  C   UNL d   1      58.437  -1.445  28.837  0.00  0.00     0.002 A 
ATOM      8  C   UNL d   1      58.908  -2.059  28.583  0.00  0.00     0.000 A 
ATOM      9  C   UNL d   1      59.734  -1.971  28.555  0.00  0.00     0.000 A 
ATOM     10  C   UNL d   1      60.071  -1.245  28.792  0.00  0.00     0.000 A 
ATOM     11  C   UNL d   1      59.589  -0.635  29.046  0.00  0.00     0.002 A 
ENDBRANCH   5   6
ENDBRANCH   4   5
ENDBRANCH   2   4
ENDBRANCH   1   2
BRANCH   1  12
ATOM     12  N   UNL d   1      57.318  -0.899  31.659  0.00  0.00    -0.180 NA
ATOM     13  C   UNL d   1      56.696  -0.990  32.195  0.00  0.00     0.393 C 
ATOM     14  O   UNL d   1      56.488  -1.746  32.463  0.00  0.00    -0.236 OA
BRANCH  13  15
ATOM     15  O   UNL d   1      56.282  -0.329  32.464  0.00  0.00    -0.256 OA
BRANCH  15  16
ATOM     16  C   UNL d   1      55.501  -0.407  32.725  0.00  0.00     0.128 C 
BRANCH  16  17
ATOM     17  C   UNL d   1      55.271  -0.045  33.429  0.00  0.00     0.025 A 
ATOM     18  C   UNL d   1      55.785  -0.053  34.076  0.00  0.00     0.002 A 
ATOM     19  C   UNL d   1      55.557   0.311  34.790  0.00  0.00     0.000 A 
ATOM     20  C   UNL d   1      54.821   0.678  34.850  0.00  0.00     0.000 A 
ATOM     21  C   UNL d   1      54.310   0.682  34.195  0.00  0.00     0.000 A 
ATOM     22  C   UNL d   1      54.537   0.320  33.487  0.00  0.00     0.002 A 
ENDBRANCH  16  17
ENDBRANCH  15  16
ENDBRANCH  13  15
ENDBRANCH   1  12
BRANCH   1  23
ATOM     23  C   UNL d   1      57.908   0.382  31.900  0.00  0.00     0.031 C 
BRANCH  23  24
ATOM     24  C   UNL d   1      58.729   0.467  31.869  0.00  0.00     0.072 C 
BRANCH  24  25
ATOM     25  C   UNL d   1      59.157   0.604  32.562  0.00  0.00     0.211 C 
ATOM     26  O   UNL d   1      59.983   0.680  32.539  0.00  0.00    -0.644 OA
ATOM     27  O   UNL d   1      58.770   0.669  33.292  0.00  0.00    -0.644 OA
ENDBRANCH  24  25
ENDBRANCH  23  24
ENDBRANCH   1  23
TORSDOF 11
ENDMDL
MODEL 2
REMARK VINA RESULT:      -0.7      0.747      1.238
REMARK  11 active torsions:
REMARK  status: ('A' for Active; 'I' for Inactive)
REMARK    1  A    between atoms: C_3  and  C_1 
REMARK    2  A    between atoms: N_4  and  C_1 
REMARK    3  A    between atoms: C_5  and  C_1 
REMARK       I    between atoms: C_2  and  N_4 
REMARK    4  A    between atoms: O_10  and  C_2 
REMARK    5  A    between atoms: O_7  and  C_3 
REMARK    6  A    between atoms: C_12  and  C_5 
REMARK    7  A    between atoms: C_6  and  C_12 
REMARK    8  A    between atoms: C_13  and  O_7 
REMARK    9  A    between atoms: C_15  and  O_10 
REMARK   10  A    between atoms: C_16  and  C_13 
REMARK   11  A    between atoms: C_17  and  C_15 
ROOT
ATOM      1  C   UNL d   1      58.009  -0.160  30.772  0.00  0.00     0.150 C 
ENDROOT
BRANCH   1   2
ATOM      2  C   UNL d   1      57.827  -0.047  29.976  0.00  0.00     0.318 C 
ATOM      3  O   UNL d   1      57.321   0.567  29.750  0.00  0.00    -0.257 OA
BRANCH   2   4
ATOM      4  O   UNL d   1      58.151  -0.548  29.397  0.00  0.00    -0.270 OA
BRANCH   4   5
ATOM      5  C   UNL d   1      58.718  -0.711  28.817  0.00  0.00     0.126 C 
BRANCH   5   6
ATOM      6  C   UNL d   1      58.977  -1.486  28.709  0.00  0.00     0.025 A 
ATOM      7  C   UNL d   1      59.778  -1.657  28.723  0.00  0.00     0.002 A 
ATOM      8  C   UNL d   1      60.039  -2.421  28.617  0.00  0.00     0.000 A 
ATOM      9  C   UNL d   1      59.495  -3.038  28.493  0.00  0.00     0.000 A 
ATOM     10  C   UNL d   1      58.680  -2.860  28.479  0.00  0.00     0.000 A 
ATOM     11  C   UNL d   1      58.428  -2.090  28.587  0.00  0.00     0.002 A 
ENDBRANCH   5   6
ENDBRANCH   4   5
ENDBRANCH   2   4
ENDBRANCH   1   2
BRANCH   1  12
ATOM     12  N   UNL d   1      57.841  -0.883  31.134  0.00  0.00    -0.180 NA
ATOM     13  C   UNL d   1      57.192  -0.950  31.641  0.00  0.00     0.393 C 
ATOM     14  O   UNL d   1      57.024  -1.676  32.003  0.00  0.00    -0.236 OA
BRANCH  13  15
ATOM     15  O   UNL d   1      56.711  -0.296  31.787  0.00  0.00    -0.256 OA
BRANCH  15  16
ATOM     16  C   UNL d   1      55.977  -0.395  32.154  0.00  0.00     0.128 C 
BRANCH  16  17
ATOM     17  C   UNL d   1      55.837  -0.038  32.884  0.00  0.00     0.025 A 
ATOM     18  C   UNL d   1      55.078   0.232  33.065  0.00  0.00     0.002 A 
ATOM     19  C   UNL d   1      54.931   0.594  33.801  0.00  0.00     0.000 A 
ATOM     20  C   UNL d   1      55.543   0.681  34.348  0.00  0.00     0.000 A 
ATOM     21  C   UNL d   1      56.304   0.407  34.158  0.00  0.00     0.000 A 
ATOM     22  C   UNL d   1      56.448   0.048  33.427  0.00  0.00     0.002 A 
ENDBRANCH  16  17
ENDBRANCH  15  16
ENDBRANCH  13  15
ENDBRANCH   1  12
BRANCH   1  23
ATOM     23  C   UNL d   1      58.360   0.449  31.208  0.00  0.00     0.031 C 
BRANCH  23  24
ATOM     24  C   UNL d   1      59.136   0.679  31.048  0.00  0.00     0.072 C 
BRANCH  24  25
ATOM     25  C   UNL d   1      59.701   0.680  31.650  0.00  0.00     0.211 C 
ATOM     26  O   UNL d   1      59.468   0.681  32.446  0.00  0.00    -0.644 OA
ATOM     27  O   UNL d   1      60.510   0.679  31.470  0.00  0.00    -0.644 OA
ENDBRANCH  24  25
ENDBRANCH  23  24
ENDBRANCH   1  23
TORSDOF 11
ENDMDL
MODEL 3
REMARK VINA RESULT:       0.1      1.050      2.206
REMARK  11 active torsions:
REMARK  status: ('A' for Active; 'I' for Inactive)
REMARK    1  A    between atoms: C_3  and  C_1 
REMARK    2  A    between atoms: N_4  and  C_1 
REMARK    3  A    between atoms: C_5  and  C_1 
REMARK       I    between atoms: C_2  and  N_4 
REMARK    4  A    between atoms: O_10  and  C_2 
REMARK    5  A    between atoms: O_7  and  C_3 
REMARK    6  A    between atoms: C_12  and  C_5 
REMARK    7  A    between atoms: C_6  and  C_12 
REMARK    8  A    between atoms: C_13  and  O_7 
REMARK    9  A    between atoms: C_15  and  O_10 
REMARK   10  A    between atoms: C_16  and  C_13 
REMARK   11  A    between atoms: C_17  and  C_15 
ROOT
ATOM      1  C   UNL d   1      57.104  -0.094  32.232  0.00  0.00     0.150 C 
ENDROOT
BRANCH   1   2
ATOM      2  C   UNL d   1      56.981   0.161  31.457  0.00  0.00     0.318 C 
ATOM      3  O   UNL d   1      56.272   0.534  31.252  0.00  0.00    -0.257 OA
BRANCH   2   4
ATOM      4  O   UNL d   1      57.569   0.045  30.880  0.00  0.00    -0.270 OA
BRANCH   4   5
ATOM      5  C   UNL d   1      57.998   0.307  30.224  0.00  0.00     0.126 C 
BRANCH   5   6
ATOM      6  C   UNL d   1      58.416  -0.240  29.769  0.00  0.00     0.025 A 
ATOM      7  C   UNL d   1      58.056  -0.935  29.529  0.00  0.00     0.002 A 
ATOM      8  C   UNL d   1      58.464  -1.478  29.080  0.00  0.00     0.000 A 
ATOM      9  C   UNL d   1      59.252  -1.334  28.859  0.00  0.00     0.000 A 
ATOM     10  C   UNL d   1      59.616  -0.624  29.105  0.00  0.00     0.000 A 
ATOM     11  C   UNL d   1      59.198  -0.085  29.555  0.00  0.00     0.002 A 
ENDBRANCH   5   6
ENDBRANCH   4   5
ENDBRANCH   2   4
ENDBRANCH   1   2
BRANCH   1  12
ATOM     12  N   UNL d   1      57.770   0.159  32.647  0.00  0.00    -0.180 NA
ATOM     13  C   UNL d   1      57.698   0.411  33.432  0.00  0.00     0.393 C 
ATOM     14  O   UNL d   1      58.368   0.665  33.848  0.00  0.00    -0.236 OA
BRANCH  13  15
ATOM     15  O   UNL d   1      56.960   0.408  33.800  0.00  0.00    -0.256 OA
BRANCH  15  16
ATOM     16  C   UNL d   1      56.883   0.682  34.577  0.00  0.00     0.128 C 
BRANCH  16  17
ATOM     17  C   UNL d   1      56.144   0.666  34.941  0.00  0.00     0.025 A 
ATOM     18  C   UNL d   1      55.462   0.662  34.475  0.00  0.00     0.002 A 
ATOM     19  C   UNL d   1      54.712   0.646  34.838  0.00  0.00     0.000 A 
ATOM     20  C   UNL d   1      54.651   0.634  35.661  0.00  0.00     0.000 A 
ATOM     21  C   UNL d   1      55.342   0.638  36.123  0.00  0.00     0.000 A 
ATOM     22  C   UNL d   1      56.085   0.654  35.761  0.00  0.00     0.002 A 
ENDBRANCH  16  17
ENDBRANCH  15  16
ENDBRANCH  13  15
ENDBRANCH   1  12
BRANCH   1  23
ATOM     23  C   UNL d   1      56.560  -0.603  32.591  0.00  0.00     0.031 C 
BRANCH  23  24
ATOM     24  C   UNL d   1      56.267  -1.254  32.178  0.00  0.00     0.072 C 
BRANCH  24  25
ATOM     25  C   UNL d   1      55.749  -1.781  32.547  0.00  0.00     0.211 C 
ATOM     26  O   UNL d   1      55.989  -2.211  33.214  0.00  0.00    -0.644 OA
ATOM     27  O   UNL d   1      54.979  -1.888  32.258  0.00  0.00    -0.644 OA
ENDBRANCH  24  25
ENDBRANCH  23  24
ENDBRANCH   1  23
TORSDOF 11
ENDMDL
MODEL 4
REMARK VINA RESULT:       0.4      1.353      5.341
REMARK  11 active torsions:
REMARK  status: ('A' for Active; 'I' for Inactive)
REMARK    1  A    between atoms: C_3  and  C_1 
REMARK    2  A    between atoms: N_4  and  C_1 
REMARK    3  A    between atoms: C_5  and  C_1 
REMARK       I    between atoms: C_2  and  N_4 
REMARK    4  A    between atoms: O_10  and  C_2 
REMARK    5  A    between atoms: O_7  and  C_3 
REMARK    6  A    between atoms: C_12  and  C_5 
REMARK    7  A    between atoms: C_6  and  C_12 
REMARK    8  A    between atoms: C_13  and  O_7 
REMARK    9  A    between atoms: C_15  and  O_10 
REMARK   10  A    between atoms: C_16  and  C_13 
REMARK   11  A    between atoms: C_17  and  C_15 
ROOT
ATOM      1  C   UNL d   1      58.263   0.417  30.950  0.00  0.00     0.150 C 
ENDROOT
BRANCH   1   2
ATOM      2  C   UNL d   1      57.643   0.035  31.338  0.00  0.00     0.318 C 
ATOM      3  O   UNL d   1      57.442  -0.741  31.133  0.00  0.00    -0.257 OA
BRANCH   2   4
ATOM      4  O   UNL d   1      57.219   0.427  31.936  0.00  0.00    -0.270 OA
BRANCH   4   5
ATOM      5  C   UNL d   1      57.046   0.553  32.735  0.00  0.00     0.126 C 
BRANCH   5   6
ATOM      6  C   UNL d   1      56.355   0.235  33.055  0.00  0.00     0.025 A 
ATOM      7  C   UNL d   1      56.386  -0.456  33.493  0.00  0.00     0.002 A 
ATOM      8  C   UNL d   1      55.707  -0.774  33.811  0.00  0.00     0.000 A 
ATOM      9  C   UNL d   1      54.973  -0.401  33.694  0.00  0.00     0.000 A 
ATOM     10  C   UNL d   1      54.945   0.303  33.247  0.00  0.00     0.000 A 
ATOM     11  C   UNL d   1      55.633   0.614  32.932  0.00  0.00     0.002 A 
ENDBRANCH   5   6
ENDBRANCH   4   5
ENDBRANCH   2   4
ENDBRANCH   1   2
BRANCH   1  12
ATOM     12  N   UNL d   1      58.932   0.648  31.373  0.00  0.00    -0.180 NA
ATOM     13  C   UNL d   1      59.676   0.353  31.164  0.00  0.00     0.393 C 
ATOM     14  O   UNL d   1      60.347   0.587  31.590  0.00  0.00    -0.236 OA
BRANCH  13  15
ATOM     15  O   UNL d   1      59.750  -0.173  30.533  0.00  0.00    -0.256 OA
BRANCH  15  16
ATOM     16  C   UNL d   1      60.472  -0.247  30.137  0.00  0.00     0.128 C 
BRANCH  16  17
ATOM     17  C   UNL d   1      60.655  -0.955  29.758  0.00  0.00     0.025 A 
ATOM     18  C   UNL d   1      60.944  -1.590  30.201  0.00  0.00     0.002 A 
ATOM     19  C   UNL d   1      61.131  -2.308  29.822  0.00  0.00     0.000 A 
ATOM     20  C   UNL d   1      61.028  -2.385  29.006  0.00  0.00     0.000 A 
ATOM     21  C   UNL d   1      60.737  -1.741  28.568  0.00  0.00     0.000 A 
ATOM     22  C   UNL d   1      60.552  -1.030  28.946  0.00  0.00     0.002 A 
ENDBRANCH  16  17
ENDBRANCH  15  16
ENDBRANCH  13  15
ENDBRANCH   1  12
BRANCH   1  23
ATOM     23  C   UNL d   1      58.213   0.568  30.139  0.00  0.00     0.031 C 
BRANCH  23  24
ATOM     24  C   UNL d   1      57.522   0.386  29.726  0.00  0.00     0.072 C 
BRANCH  24  25
ATOM     25  C   UNL d   1      57.453   0.582  28.926  0.00  0.00     0.211 C 
ATOM     26  O   UNL d   1      58.130   0.682  28.457  0.00  0.00    -0.644 OA
ATOM     27  O   UNL d   1      56.707   0.682  28.578  0.00  0.00    -0.644 OA
ENDBRANCH  24  25
ENDBRANCH  23  24
ENDBRANCH   1  23
TORSDOF 11
ENDMDL
