MODEL 1
REMARK VINA RESULT:      -3.2      0.000      0.000
REMARK  5 active torsions:
REMARK  status: ('A' for Active; 'I' for Inactive)
REMARK    1  A    between atoms: C_4  and  S_1 
REMARK    2  A    between atoms: N_7  and  S_1 
REMARK    3  A    between atoms: C_8  and  C_2 
REMARK    4  A    between atoms: C_6  and  C_13 
REMARK    5  A    between atoms: C_13  and  N_7 
ROOT
ATOM      1  C   UNL d   1      32.839  21.269 -21.401  0.00  0.00     0.112 A 
ATOM      2  N   UNL d   1      32.880  20.757 -22.056  0.00  0.00    -0.237 NA
ATOM      3  S   UNL d   1      33.062  20.836 -20.738  0.00  0.00    -0.066 SA
ATOM      4  C   UNL d   1      33.126  20.022 -21.790  0.00  0.00     0.108 A 
ATOM      5  C   UNL d   1      33.241  20.065 -20.979  0.00  0.00     0.058 A 
ENDROOT
BRANCH   4   6
ATOM      6  C   UNL d   1      33.241  19.349 -22.265  0.00  0.00     0.132 C 
BRANCH   6   7
ATOM      7  N   UNL d   1      32.626  19.053 -22.723  0.00  0.00    -0.155 NA
BRANCH   7   8
ATOM      8  S   UNL d   1      32.739  18.386 -23.207  0.00  0.00     0.291 S 
ATOM      9  O   UNL d   1      32.963  17.944 -22.549  0.00  0.00    -0.198 OA
ATOM     10  O   UNL d   1      32.511  18.842 -23.872  0.00  0.00    -0.198 OA
BRANCH   8  11
ATOM     11  C   UNL d   1      32.849  17.732 -23.692  0.00  0.00     0.135 A 
ATOM     12  S   UNL d   1      33.118  17.745 -24.447  0.00  0.00    -0.073 SA
ATOM     13  C   UNL d   1      33.147  16.974 -24.735  0.00  0.00     0.036 A 
ATOM     14  C   UNL d   1      32.885  16.478 -24.129  0.00  0.00     0.008 A 
ATOM     15  C   UNL d   1      32.698  16.944 -23.479  0.00  0.00     0.020 A 
ENDBRANCH   8  11
ENDBRANCH   7   8
ENDBRANCH   6   7
ENDBRANCH   4   6
BRANCH   1  16
ATOM     16  C   UNL d   1      32.613  22.069 -21.416  0.00  0.00     0.043 A 
ATOM     17  C   UNL d   1      32.050  22.332 -20.874  0.00  0.00     0.101 A 
ATOM     18  N   UNL d   1      31.820  23.128 -20.883  0.00  0.00    -0.242 NA
ATOM     19  C   UNL d   1      32.160  23.630 -21.431  0.00  0.00     0.099 A 
ATOM     20  C   UNL d   1      32.728  23.361 -21.976  0.00  0.00     0.021 A 
ATOM     21  C   UNL d   1      32.952  22.576 -21.964  0.00  0.00     0.005 A 
ENDBRANCH   1  16
TORSDOF 5
ENDMDL
MODEL 2
REMARK VINA RESULT:      -2.9      1.521      5.113
REMARK  5 active torsions:
REMARK  status: ('A' for Active; 'I' for Inactive)
REMARK    1  A    between atoms: C_4  and  S_1 
REMARK    2  A    between atoms: N_7  and  S_1 
REMARK    3  A    between atoms: C_8  and  C_2 
REMARK    4  A    between atoms: C_6  and  C_13 
REMARK    5  A    between atoms: C_13  and  N_7 
ROOT
ATOM      1  C   UNL d   1      32.805  18.143 -23.469  0.00  0.00     0.112 A 
ATOM      2  N   UNL d   1      32.849  18.547 -22.742  0.00  0.00    -0.237 NA
ATOM      3  S   UNL d   1      33.048  18.666 -24.055  0.00  0.00    -0.066 SA
ATOM      4  C   UNL d   1      33.117  19.308 -22.890  0.00  0.00     0.108 A 
ATOM      5  C   UNL d   1      33.241  19.387 -23.697  0.00  0.00     0.058 A 
ENDROOT
BRANCH   4   6
ATOM      6  C   UNL d   1      33.241  19.897 -22.316  0.00  0.00     0.132 C 
BRANCH   6   7
ATOM      7  N   UNL d   1      32.667  20.469 -22.176  0.00  0.00    -0.155 NA
BRANCH   7   8
ATOM      8  S   UNL d   1      32.808  21.090 -21.640  0.00  0.00     0.291 S 
ATOM      9  O   UNL d   1      32.448  20.655 -21.040  0.00  0.00    -0.198 OA
ATOM     10  O   UNL d   1      33.173  21.525 -22.256  0.00  0.00    -0.198 OA
BRANCH   8  11
ATOM     11  C   UNL d   1      32.951  21.707 -21.118  0.00  0.00     0.135 A 
ATOM     12  S   UNL d   1      33.139  22.460 -21.318  0.00  0.00    -0.073 SA
ATOM     13  C   UNL d   1      33.237  22.904 -20.632  0.00  0.00     0.036 A 
ATOM     14  C   UNL d   1      33.103  22.398 -19.992  0.00  0.00     0.008 A 
ATOM     15  C   UNL d   1      32.925  21.653 -20.290  0.00  0.00     0.020 A 
ENDBRANCH   8  11
ENDBRANCH   7   8
ENDBRANCH   6   7
ENDBRANCH   4   6
BRANCH   1  16
ATOM     16  C   UNL d   1      32.560  17.356 -23.579  0.00  0.00     0.043 A 
ATOM     17  C   UNL d   1      33.119  16.797 -23.814  0.00  0.00     0.101 A 
ATOM     18  N   UNL d   1      32.882  16.011 -23.926  0.00  0.00    -0.242 NA
ATOM     19  C   UNL d   1      32.098  15.813 -23.799  0.00  0.00     0.099 A 
ATOM     20  C   UNL d   1      31.539  16.381 -23.563  0.00  0.00     0.021 A 
ATOM     21  C   UNL d   1      31.776  17.154 -23.454  0.00  0.00     0.005 A 
ENDBRANCH   1  16
TORSDOF 5
ENDMDL
MODEL 3
REMARK VINA RESULT:      -2.7      1.699      5.116
REMARK  5 active torsions:
REMARK  status: ('A' for Active; 'I' for Inactive)
REMARK    1  A    between atoms: C_4  and  S_1 
REMARK    2  A    between atoms: N_7  and  S_1 
REMARK    3  A    between atoms: C_8  and  C_2 
REMARK    4  A    between atoms: C_6  and  C_13 
REMARK    5  A    between atoms: C_13  and  N_7 
ROOT
ATOM      1  C   UNL d   1      32.046  17.386 -23.776  0.00  0.00     0.112 A 
ATOM      2  N   UNL d   1      31.965  18.190 -23.576  0.00  0.00    -0.237 NA
ATOM      3  S   UNL d   1      32.836  17.185 -23.666  0.00  0.00    -0.066 SA
ATOM      4  C   UNL d   1      32.700  18.471 -23.347  0.00  0.00     0.108 A 
ATOM      5  C   UNL d   1      33.241  17.857 -23.400  0.00  0.00     0.058 A 
ENDROOT
BRANCH   4   6
ATOM      6  C   UNL d   1      32.867  19.248 -23.102  0.00  0.00     0.132 C 
BRANCH   6   7
ATOM      7  N   UNL d   1      32.992  19.417 -22.308  0.00  0.00    -0.155 NA
BRANCH   7   8
ATOM      8  S   UNL d   1      32.965  20.201 -22.030  0.00  0.00     0.291 S 
ATOM      9  O   UNL d   1      32.731  19.932 -21.288  0.00  0.00    -0.198 OA
ATOM     10  O   UNL d   1      33.204  20.467 -22.788  0.00  0.00    -0.198 OA
BRANCH   8  11
ATOM     11  C   UNL d   1      32.941  20.978 -21.764  0.00  0.00     0.135 A 
ATOM     12  S   UNL d   1      33.218  21.620 -22.156  0.00  0.00    -0.073 SA
ATOM     13  C   UNL d   1      33.087  22.292 -21.700  0.00  0.00     0.036 A 
ATOM     14  C   UNL d   1      32.716  22.045 -21.004  0.00  0.00     0.008 A 
ATOM     15  C   UNL d   1      32.623  21.229 -21.039  0.00  0.00     0.020 A 
ENDBRANCH   8  11
ENDBRANCH   7   8
ENDBRANCH   6   7
ENDBRANCH   4   6
BRANCH   1  16
ATOM     16  C   UNL d   1      31.439  16.882 -24.038  0.00  0.00     0.043 A 
ATOM     17  C   UNL d   1      31.435  16.646 -24.828  0.00  0.00     0.101 A 
ATOM     18  N   UNL d   1      30.833  16.143 -25.097  0.00  0.00    -0.242 NA
ATOM     19  C   UNL d   1      30.260  15.896 -24.568  0.00  0.00     0.099 A 
ATOM     20  C   UNL d   1      30.269  16.137 -23.773  0.00  0.00     0.021 A 
ATOM     21  C   UNL d   1      30.864  16.632 -23.511  0.00  0.00     0.005 A 
ENDBRANCH   1  16
TORSDOF 5
ENDMDL
MODEL 4
REMARK VINA RESULT:      -1.8      1.202      1.645
REMARK  5 active torsions:
REMARK  status: ('A' for Active; 'I' for Inactive)
REMARK    1  A    between atoms: C_4  and  S_1 
REMARK    2  A    between atoms: N_7  and  S_1 
REMARK    3  A    between atoms: C_8  and  C_2 
REMARK    4  A    between atoms: C_6  and  C_13 
REMARK    5  A    between atoms: C_13  and  N_7 
ROOT
ATOM      1  C   UNL d   1      32.925  20.060 -21.961  0.00  0.00     0.112 A 
ATOM      2  N   UNL d   1      32.729  19.732 -22.701  0.00  0.00    -0.237 NA
ATOM      3  S   UNL d   1      33.241  19.454 -21.502  0.00  0.00    -0.066 SA
ATOM      4  C   UNL d   1      32.925  18.937 -22.688  0.00  0.00     0.108 A 
ATOM      5  C   UNL d   1      33.241  18.759 -21.952  0.00  0.00     0.058 A 
ENDROOT
BRANCH   4   6
ATOM      6  C   UNL d   1      32.820  18.402 -23.316  0.00  0.00     0.132 C 
BRANCH   6   7
ATOM      7  N   UNL d   1      32.780  17.594 -23.172  0.00  0.00    -0.155 NA
BRANCH   7   8
ATOM      8  S   UNL d   1      32.388  17.087 -23.704  0.00  0.00     0.291 S 
ATOM      9  O   UNL d   1      32.353  16.503 -23.124  0.00  0.00    -0.198 OA
ATOM     10  O   UNL d   1      32.427  17.686 -24.289  0.00  0.00    -0.198 OA
BRANCH   8  11
ATOM     11  C   UNL d   1      32.002  16.593 -24.235  0.00  0.00     0.135 A 
ATOM     12  S   UNL d   1      31.252  16.681 -24.501  0.00  0.00    -0.073 SA
ATOM     13  C   UNL d   1      31.078  16.070 -25.024  0.00  0.00     0.036 A 
ATOM     14  C   UNL d   1      31.751  15.594 -25.075  0.00  0.00     0.008 A 
ATOM     15  C   UNL d   1      32.328  15.915 -24.586  0.00  0.00     0.020 A 
ENDBRANCH   8  11
ENDBRANCH   7   8
ENDBRANCH   6   7
ENDBRANCH   4   6
BRANCH   1  16
ATOM     16  C   UNL d   1      32.820  20.852 -21.730  0.00  0.00     0.043 A 
ATOM     17  C   UNL d   1      33.037  21.448 -22.255  0.00  0.00     0.101 A 
ATOM     18  N   UNL d   1      32.936  22.240 -22.032  0.00  0.00    -0.242 NA
ATOM     19  C   UNL d   1      32.622  22.405 -21.296  0.00  0.00     0.099 A 
ATOM     20  C   UNL d   1      32.404  21.799 -20.770  0.00  0.00     0.021 A 
ATOM     21  C   UNL d   1      32.505  21.021 -20.993  0.00  0.00     0.005 A 
ENDBRANCH   1  16
TORSDOF 5
ENDMDL
MODEL 5
REMARK VINA RESULT:      -1.6      2.668      3.658
REMARK  5 active torsions:
REMARK  status: ('A' for Active; 'I' for Inactive)
REMARK    1  A    between atoms: C_4  and  S_1 
REMARK    2  A    between atoms: N_7  and  S_1 
REMARK    3  A    between atoms: C_8  and  C_2 
REMARK    4  A    between atoms: C_6  and  C_13 
REMARK    5  A    between atoms: C_13  and  N_7 
ROOT
ATOM      1  C   UNL d   1      32.692  23.097 -18.758  0.00  0.00     0.112 A 
ATOM      2  N   UNL d   1      32.955  22.438 -19.195  0.00  0.00    -0.237 NA
ATOM      3  S   UNL d   1      32.462  23.673 -19.299  0.00  0.00    -0.066 SA
ATOM      4  C   UNL d   1      32.883  22.616 -19.992  0.00  0.00     0.108 A 
ATOM      5  C   UNL d   1      32.580  23.375 -20.063  0.00  0.00     0.058 A 
ENDROOT
BRANCH   4   6
ATOM      6  C   UNL d   1      33.085  22.111 -20.621  0.00  0.00     0.132 C 
BRANCH   6   7
ATOM      7  N   UNL d   1      32.705  21.387 -20.711  0.00  0.00    -0.155 NA
BRANCH   7   8
ATOM      8  S   UNL d   1      32.788  20.949 -21.415  0.00  0.00     0.291 S 
ATOM      9  O   UNL d   1      32.890  21.647 -21.839  0.00  0.00    -0.198 OA
ATOM     10  O   UNL d   1      32.683  20.244 -20.975  0.00  0.00    -0.198 OA
BRANCH   8  11
ATOM     11  C   UNL d   1      32.868  20.509 -22.103  0.00  0.00     0.135 A 
ATOM     12  S   UNL d   1      32.980  20.803 -22.840  0.00  0.00    -0.073 SA
ATOM     13  C   UNL d   1      33.032  20.179 -23.374  0.00  0.00     0.036 A 
ATOM     14  C   UNL d   1      32.949  19.481 -22.941  0.00  0.00     0.008 A 
ATOM     15  C   UNL d   1      32.847  19.681 -22.151  0.00  0.00     0.020 A 
ENDBRANCH   8  11
ENDBRANCH   7   8
ENDBRANCH   6   7
ENDBRANCH   4   6
BRANCH   1  16
ATOM     16  C   UNL d   1      32.668  23.159 -17.930  0.00  0.00     0.043 A 
ATOM     17  C   UNL d   1      32.062  23.598 -17.584  0.00  0.00     0.101 A 
ATOM     18  N   UNL d   1      32.032  23.664 -16.758  0.00  0.00    -0.242 NA
ATOM     19  C   UNL d   1      32.605  23.291 -16.311  0.00  0.00     0.099 A 
ATOM     20  C   UNL d   1      33.214  22.849 -16.665  0.00  0.00     0.021 A 
ATOM     21  C   UNL d   1      33.241  22.786 -17.479  0.00  0.00     0.005 A 
ENDBRANCH   1  16
TORSDOF 5
ENDMDL
MODEL 6
REMARK VINA RESULT:      -1.3      2.707      5.510
REMARK  5 active torsions:
REMARK  status: ('A' for Active; 'I' for Inactive)
REMARK    1  A    between atoms: C_4  and  S_1 
REMARK    2  A    between atoms: N_7  and  S_1 
REMARK    3  A    between atoms: C_8  and  C_2 
REMARK    4  A    between atoms: C_6  and  C_13 
REMARK    5  A    between atoms: C_13  and  N_7 
ROOT
ATOM      1  C   UNL d   1      30.424  16.067 -24.016  0.00  0.00     0.112 A 
ATOM      2  N   UNL d   1      30.825  16.780 -23.861  0.00  0.00    -0.237 NA
ATOM      3  S   UNL d   1      30.945  15.578 -24.424  0.00  0.00    -0.066 SA
ATOM      4  C   UNL d   1      31.581  16.721 -24.173  0.00  0.00     0.108 A 
ATOM      5  C   UNL d   1      31.661  15.983 -24.521  0.00  0.00     0.058 A 
ENDROOT
BRANCH   4   6
ATOM      6  C   UNL d   1      32.165  17.311 -24.140  0.00  0.00     0.132 C 
BRANCH   6   7
ATOM      7  N   UNL d   1      32.413  17.612 -23.417  0.00  0.00    -0.155 NA
BRANCH   7   8
ATOM      8  S   UNL d   1      32.646  18.408 -23.344  0.00  0.00     0.291 S 
ATOM      9  O   UNL d   1      33.012  18.370 -24.082  0.00  0.00    -0.198 OA
ATOM     10  O   UNL d   1      32.272  18.439 -22.596  0.00  0.00    -0.198 OA
BRANCH   8  11
ATOM     11  C   UNL d   1      32.871  19.194 -23.265  0.00  0.00     0.135 A 
ATOM     12  S   UNL d   1      33.039  19.569 -22.577  0.00  0.00    -0.073 SA
ATOM     13  C   UNL d   1      33.241  20.351 -22.739  0.00  0.00     0.036 A 
ATOM     14  C   UNL d   1      33.193  20.450 -23.558  0.00  0.00     0.008 A 
ATOM     15  C   UNL d   1      32.964  19.733 -23.889  0.00  0.00     0.020 A 
ENDBRANCH   8  11
ENDBRANCH   7   8
ENDBRANCH   6   7
ENDBRANCH   4   6
BRANCH   1  16
ATOM     16  C   UNL d   1      29.643  15.884 -23.798  0.00  0.00     0.043 A 
ATOM     17  C   UNL d   1      29.494  15.645 -23.023  0.00  0.00     0.101 A 
ATOM     18  N   UNL d   1      28.717  15.462 -22.799  0.00  0.00    -0.242 NA
ATOM     19  C   UNL d   1      28.121  15.524 -23.355  0.00  0.00     0.099 A 
ATOM     20  C   UNL d   1      28.276  15.766 -24.135  0.00  0.00     0.021 A 
ATOM     21  C   UNL d   1      29.043  15.946 -24.352  0.00  0.00     0.005 A 
ENDBRANCH   1  16
TORSDOF 5
ENDMDL
MODEL 7
REMARK VINA RESULT:      -1.1      0.854      1.202
REMARK  5 active torsions:
REMARK  status: ('A' for Active; 'I' for Inactive)
REMARK    1  A    between atoms: C_4  and  S_1 
REMARK    2  A    between atoms: N_7  and  S_1 
REMARK    3  A    between atoms: C_8  and  C_2 
REMARK    4  A    between atoms: C_6  and  C_13 
REMARK    5  A    between atoms: C_13  and  N_7 
ROOT
ATOM      1  C   UNL d   1      32.922  21.537 -21.403  0.00  0.00     0.112 A 
ATOM      2  N   UNL d   1      32.949  20.707 -21.348  0.00  0.00    -0.237 NA
ATOM      3  S   UNL d   1      33.103  21.736 -22.181  0.00  0.00    -0.066 SA
ATOM      4  C   UNL d   1      33.145  20.408 -22.086  0.00  0.00     0.108 A 
ATOM      5  C   UNL d   1      33.241  21.038 -22.603  0.00  0.00     0.058 A 
ENDROOT
BRANCH   4   6
ATOM      6  C   UNL d   1      33.230  19.603 -22.275  0.00  0.00     0.132 C 
BRANCH   6   7
ATOM      7  N   UNL d   1      32.684  19.229 -22.762  0.00  0.00    -0.155 NA
BRANCH   7   8
ATOM      8  S   UNL d   1      32.828  18.462 -23.051  0.00  0.00     0.291 S 
ATOM      9  O   UNL d   1      32.480  18.666 -23.770  0.00  0.00    -0.198 OA
ATOM     10  O   UNL d   1      33.179  18.262 -22.317  0.00  0.00    -0.198 OA
BRANCH   8  11
ATOM     11  C   UNL d   1      32.973  17.702 -23.328  0.00  0.00     0.135 A 
ATOM     12  S   UNL d   1      33.120  17.498 -24.089  0.00  0.00    -0.073 SA
ATOM     13  C   UNL d   1      33.235  16.684 -24.131  0.00  0.00     0.036 A 
ATOM     14  C   UNL d   1      33.154  16.386 -23.365  0.00  0.00     0.008 A 
ATOM     15  C   UNL d   1      32.990  17.015 -22.862  0.00  0.00     0.020 A 
ENDBRANCH   8  11
ENDBRANCH   7   8
ENDBRANCH   6   7
ENDBRANCH   4   6
BRANCH   1  16
ATOM     16  C   UNL d   1      32.744  22.065 -20.786  0.00  0.00     0.043 A 
ATOM     17  C   UNL d   1      32.155  22.629 -20.905  0.00  0.00     0.101 A 
ATOM     18  N   UNL d   1      31.972  23.159 -20.294  0.00  0.00    -0.242 NA
ATOM     19  C   UNL d   1      32.384  23.105 -19.590  0.00  0.00     0.099 A 
ATOM     20  C   UNL d   1      32.978  22.534 -19.475  0.00  0.00     0.021 A 
ATOM     21  C   UNL d   1      33.155  22.014 -20.079  0.00  0.00     0.005 A 
ENDBRANCH   1  16
TORSDOF 5
ENDMDL
