MODEL 1
REMARK VINA RESULT:      -8.3      0.000      0.000
REMARK  1 active torsions:
REMARK  status: ('A' for Active; 'I' for Inactive)
REMARK    1  A    between atoms: C_7  and  C_3 
ROOT
ATOM      1  C   UNL d   1      52.835  31.345  53.157  0.00  0.00     0.179 A 
ATOM      2  N   UNL d   1      52.598  32.117  53.152  0.00  0.00    -0.221 NA
ATOM      3  C   UNL d   1      53.099  32.557  53.640  0.00  0.00     0.101 A 
ATOM      4  N   UNL d   1      53.485  31.294  53.646  0.00  0.00    -0.282 N 
ATOM      5  C   UNL d   1      53.637  32.046  53.937  0.00  0.00     0.101 A 
ATOM      6  S   UNL d   1      52.693  30.579  52.870  0.00  0.00    -0.048 SA
ATOM      7  C   UNL d   1      53.740  30.500  53.660  0.00  0.00     0.089 A 
ATOM      8  C   UNL d   1      53.266  30.053  53.192  0.00  0.00     0.057 A 
ENDROOT
BRANCH   3   9
ATOM      9  C   UNL d   1      53.088  33.363  53.817  0.00  0.00     0.019 A 
ATOM     10  C   UNL d   1      53.364  33.644  54.538  0.00  0.00     0.002 A 
ATOM     11  C   UNL d   1      53.353  34.454  54.718  0.00  0.00     0.011 A 
ATOM     12  C   UNL d   1      53.070  34.976  54.182  0.00  0.00     0.058 A 
ATOM     13  C   UNL d   1      52.781  34.706  53.430  0.00  0.00     0.011 A 
ATOM     14 CL   UNL d   1      53.060  35.800  54.364  0.00  0.00    -0.082 Cl
ATOM     15  C   UNL d   1      52.795  33.897  53.260  0.00  0.00     0.002 A 
ENDBRANCH   3   9
TORSDOF 1
ENDMDL
MODEL 2
REMARK VINA RESULT:      -8.3      2.152      3.567
REMARK  1 active torsions:
REMARK  status: ('A' for Active; 'I' for Inactive)
REMARK    1  A    between atoms: C_7  and  C_3 
ROOT
ATOM      1  C   UNL d   1      52.821  34.172  53.600  0.00  0.00     0.179 A 
ATOM      2  N   UNL d   1      52.721  33.467  53.219  0.00  0.00    -0.221 NA
ATOM      3  C   UNL d   1      53.056  32.864  53.674  0.00  0.00     0.101 A 
ATOM      4  N   UNL d   1      53.219  34.019  54.294  0.00  0.00    -0.282 N 
ATOM      5  C   UNL d   1      53.358  33.211  54.328  0.00  0.00     0.101 A 
ATOM      6  S   UNL d   1      52.687  34.991  53.578  0.00  0.00    -0.048 SA
ATOM      7  C   UNL d   1      53.329  34.741  54.697  0.00  0.00     0.089 A 
ATOM      8  C   UNL d   1      53.010  35.342  54.273  0.00  0.00     0.057 A 
ENDROOT
BRANCH   3   9
ATOM      9  C   UNL d   1      53.098  32.053  53.527  0.00  0.00     0.019 A 
ATOM     10  C   UNL d   1      53.669  31.584  53.885  0.00  0.00     0.002 A 
ATOM     11  C   UNL d   1      53.711  30.768  53.738  0.00  0.00     0.011 A 
ATOM     12  C   UNL d   1      53.189  30.427  53.238  0.00  0.00     0.058 A 
ATOM     13  C   UNL d   1      52.590  30.895  52.856  0.00  0.00     0.011 A 
ATOM     14 CL   UNL d   1      53.232  29.598  53.087  0.00  0.00    -0.082 Cl
ATOM     15  C   UNL d   1      52.556  31.707  53.010  0.00  0.00     0.002 A 
ENDBRANCH   3   9
TORSDOF 1
ENDMDL
MODEL 3
REMARK VINA RESULT:      -8.1      2.032      2.766
REMARK  1 active torsions:
REMARK  status: ('A' for Active; 'I' for Inactive)
REMARK    1  A    between atoms: C_7  and  C_3 
ROOT
ATOM      1  C   UNL d   1      53.710  33.131  54.240  0.00  0.00     0.179 A 
ATOM      2  N   UNL d   1      53.100  33.022  53.721  0.00  0.00    -0.221 NA
ATOM      3  C   UNL d   1      52.621  33.695  53.722  0.00  0.00     0.101 A 
ATOM      4  N   UNL d   1      53.618  33.871  54.569  0.00  0.00    -0.282 N 
ATOM      5  C   UNL d   1      52.945  34.207  54.243  0.00  0.00     0.101 A 
ATOM      6  S   UNL d   1      54.393  32.803  54.578  0.00  0.00    -0.048 SA
ATOM      7  C   UNL d   1      54.243  33.996  55.108  0.00  0.00     0.089 A 
ATOM      8  C   UNL d   1      54.723  33.353  55.124  0.00  0.00     0.057 A 
ENDROOT
BRANCH   3   9
ATOM      9  C   UNL d   1      51.935  33.854  53.291  0.00  0.00     0.019 A 
ATOM     10  C   UNL d   1      51.200  33.591  53.547  0.00  0.00     0.002 A 
ATOM     11  C   UNL d   1      50.510  33.750  53.114  0.00  0.00     0.011 A 
ATOM     12  C   UNL d   1      50.556  34.168  52.434  0.00  0.00     0.058 A 
ATOM     13  C   UNL d   1      51.306  34.451  52.152  0.00  0.00     0.011 A 
ATOM     14 CL   UNL d   1      49.854  34.331  51.994  0.00  0.00    -0.082 Cl
ATOM     15  C   UNL d   1      51.988  34.287  52.590  0.00  0.00     0.002 A 
ENDBRANCH   3   9
TORSDOF 1
ENDMDL
MODEL 4
REMARK VINA RESULT:      -7.9      2.026      2.821
REMARK  1 active torsions:
REMARK  status: ('A' for Active; 'I' for Inactive)
REMARK    1  A    between atoms: C_7  and  C_3 
ROOT
ATOM      1  C   UNL d   1      51.362  33.629  53.260  0.00  0.00     0.179 A 
ATOM      2  N   UNL d   1      51.891  33.399  53.825  0.00  0.00    -0.221 NA
ATOM      3  C   UNL d   1      52.609  33.785  53.696  0.00  0.00     0.101 A 
ATOM      4  N   UNL d   1      51.743  34.159  52.772  0.00  0.00    -0.282 N 
ATOM      5  C   UNL d   1      52.510  34.247  53.051  0.00  0.00     0.101 A 
ATOM      6  S   UNL d   1      50.589  33.550  52.967  0.00  0.00    -0.048 SA
ATOM      7  C   UNL d   1      51.206  34.404  52.182  0.00  0.00     0.089 A 
ATOM      8  C   UNL d   1      50.499  34.041  52.288  0.00  0.00     0.057 A 
ENDROOT
BRANCH   3   9
ATOM      9  C   UNL d   1      53.317  33.738  54.118  0.00  0.00     0.019 A 
ATOM     10  C   UNL d   1      53.483  34.260  54.731  0.00  0.00     0.002 A 
ATOM     11  C   UNL d   1      54.193  34.213  55.157  0.00  0.00     0.011 A 
ATOM     12  C   UNL d   1      54.731  33.651  54.971  0.00  0.00     0.058 A 
ATOM     13  C   UNL d   1      54.580  33.101  54.341  0.00  0.00     0.011 A 
ATOM     14 CL   UNL d   1      55.454  33.603  55.404  0.00  0.00    -0.082 Cl
ATOM     15  C   UNL d   1      53.868  33.156  53.922  0.00  0.00     0.002 A 
ENDBRANCH   3   9
TORSDOF 1
ENDMDL
MODEL 5
REMARK VINA RESULT:      -5.6      9.769     10.070
REMARK  1 active torsions:
REMARK  status: ('A' for Active; 'I' for Inactive)
REMARK    1  A    between atoms: C_7  and  C_3 
ROOT
ATOM      1  C   UNL d   1      45.261  27.617  58.166  0.00  0.00     0.179 A 
ATOM      2  N   UNL d   1      45.351  28.298  57.742  0.00  0.00    -0.221 NA
ATOM      3  C   UNL d   1      44.958  28.912  58.130  0.00  0.00     0.101 A 
ATOM      4  N   UNL d   1      44.812  27.797  58.822  0.00  0.00    -0.282 N 
ATOM      5  C   UNL d   1      44.633  28.597  58.788  0.00  0.00     0.101 A 
ATOM      6  S   UNL d   1      45.435  26.806  58.213  0.00  0.00    -0.048 SA
ATOM      7  C   UNL d   1      44.712  27.100  59.269  0.00  0.00     0.089 A 
ATOM      8  C   UNL d   1      45.086  26.488  58.910  0.00  0.00     0.057 A 
ENDROOT
BRANCH   3   9
ATOM      9  C   UNL d   1      44.887  29.708  57.922  0.00  0.00     0.019 A 
ATOM     10  C   UNL d   1      44.613  29.930  57.180  0.00  0.00     0.002 A 
ATOM     11  C   UNL d   1      44.541  30.730  56.969  0.00  0.00     0.011 A 
ATOM     12  C   UNL d   1      44.742  31.299  57.494  0.00  0.00     0.058 A 
ATOM     13  C   UNL d   1      45.028  31.090  58.266  0.00  0.00     0.011 A 
ATOM     14 CL   UNL d   1      44.669  32.112  57.279  0.00  0.00    -0.082 Cl
ATOM     15  C   UNL d   1      45.096  30.291  58.467  0.00  0.00     0.002 A 
ENDBRANCH   3   9
TORSDOF 1
ENDMDL
MODEL 6
REMARK VINA RESULT:      -5.3     10.086     10.806
REMARK  1 active torsions:
REMARK  status: ('A' for Active; 'I' for Inactive)
REMARK    1  A    between atoms: C_7  and  C_3 
ROOT
ATOM      1  C   UNL d   1      45.010  30.289  58.415  0.00  0.00     0.179 A 
ATOM      2  N   UNL d   1      45.146  29.591  58.799  0.00  0.00    -0.221 NA
ATOM      3  C   UNL d   1      44.965  28.964  58.294  0.00  0.00     0.101 A 
ATOM      4  N   UNL d   1      44.743  30.105  57.667  0.00  0.00    -0.282 N 
ATOM      5  C   UNL d   1      44.720  29.287  57.605  0.00  0.00     0.101 A 
ATOM      6  S   UNL d   1      45.029  31.117  58.464  0.00  0.00    -0.048 SA
ATOM      7  C   UNL d   1      44.598  30.817  57.259  0.00  0.00     0.089 A 
ATOM      8  C   UNL d   1      44.768  31.443  57.732  0.00  0.00     0.057 A 
ENDROOT
BRANCH   3   9
ATOM      9  C   UNL d   1      45.011  28.150  58.426  0.00  0.00     0.019 A 
ATOM     10  C   UNL d   1      45.410  27.656  57.905  0.00  0.00     0.002 A 
ATOM     11  C   UNL d   1      45.457  26.838  58.037  0.00  0.00     0.011 A 
ATOM     12  C   UNL d   1      45.109  26.519  58.682  0.00  0.00     0.058 A 
ATOM     13  C   UNL d   1      44.691  27.012  59.233  0.00  0.00     0.011 A 
ATOM     14 CL   UNL d   1      45.157  25.687  58.816  0.00  0.00    -0.082 Cl
ATOM     15  C   UNL d   1      44.649  27.826  59.094  0.00  0.00     0.002 A 
ENDBRANCH   3   9
TORSDOF 1
ENDMDL
