MODEL 1
REMARK VINA RESULT:      -5.3      0.000      0.000
REMARK  5 active torsions:
REMARK  status: ('A' for Active; 'I' for Inactive)
REMARK    1  A    between atoms: S_2  and  C_1 
REMARK    2  A    between atoms: N_3  and  C_1 
REMARK    3  A    between atoms: C_4  and  C_1 
REMARK    4  A    between atoms: C_6  and  S_2 
REMARK       I    between atoms: C_5  and  N_3 
REMARK    5  A    between atoms: C_9  and  C_5 
ROOT
ATOM      1  C   UNL d   1      58.433  -0.434  29.524  0.00  0.00     0.193 C 
ENDROOT
BRANCH   1   2
ATOM      2  S   UNL d   1      58.855  -1.119  29.342  0.00  0.00     0.228 S 
ATOM      3  O   UNL d   1      58.157  -1.480  29.090  0.00  0.00    -0.216 OA
ATOM      4  O   UNL d   1      59.562  -0.761  29.595  0.00  0.00    -0.216 OA
BRANCH   2   5
ATOM      5  C   UNL d   1      59.293  -1.836  29.151  0.00  0.00     0.089 A 
ATOM      6  C   UNL d   1      60.115  -1.841  29.220  0.00  0.00     0.011 A 
ATOM      7  C   UNL d   1      60.533  -2.528  29.037  0.00  0.00     0.001 A 
ATOM      8  C   UNL d   1      60.131  -3.209  28.786  0.00  0.00     0.000 A 
ATOM      9  C   UNL d   1      59.307  -3.208  28.716  0.00  0.00     0.001 A 
ATOM     10  C   UNL d   1      60.563  -3.901  28.603  0.00  0.00     0.000 C 
ATOM     11  C   UNL d   1      58.889  -2.521  28.899  0.00  0.00     0.011 A 
ENDBRANCH   2   5
ENDBRANCH   1   2
BRANCH   1  12
ATOM     12  N   UNL d   1      57.864  -0.443  30.092  0.00  0.00    -0.195 NA
ATOM     13  C   UNL d   1      57.980  -0.051  30.809  0.00  0.00     0.280 C 
ATOM     14  O   UNL d   1      58.662   0.341  30.943  0.00  0.00    -0.265 OA
BRANCH  13  15
ATOM     15  C   UNL d   1      57.372  -0.088  31.356  0.00  0.00     0.058 A 
ATOM     16  C   UNL d   1      57.061   0.607  31.627  0.00  0.00     0.005 A 
ATOM     17  C   UNL d   1      56.458   0.596  32.169  0.00  0.00     0.000 A 
ATOM     18  C   UNL d   1      56.151  -0.112  32.453  0.00  0.00     0.000 A 
ATOM     19  C   UNL d   1      56.461  -0.816  32.183  0.00  0.00     0.000 A 
ATOM     20  C   UNL d   1      55.513  -0.140  33.027  0.00  0.00     0.000 C 
ATOM     21  C   UNL d   1      57.079  -0.801  31.628  0.00  0.00     0.005 A 
ENDBRANCH  13  15
ENDBRANCH   1  12
BRANCH   1  22
ATOM     22  C   UNL d   1      58.583   0.270  29.134  0.00  0.00     0.144 C 
ATOM     23 CL   UNL d   1      58.008   0.527  28.692  0.00  0.00    -0.068 Cl
ATOM     24 CL   UNL d   1      59.346   0.682  29.230  0.00  0.00    -0.068 Cl
ENDBRANCH   1  22
TORSDOF 5
ENDMDL
MODEL 2
REMARK VINA RESULT:      -4.7      0.670      4.346
REMARK  5 active torsions:
REMARK  status: ('A' for Active; 'I' for Inactive)
REMARK    1  A    between atoms: S_2  and  C_1 
REMARK    2  A    between atoms: N_3  and  C_1 
REMARK    3  A    between atoms: C_4  and  C_1 
REMARK    4  A    between atoms: C_6  and  S_2 
REMARK       I    between atoms: C_5  and  N_3 
REMARK    5  A    between atoms: C_9  and  C_5 
ROOT
ATOM      1  C   UNL d   1      58.437  -0.272  30.067  0.00  0.00     0.193 C 
ENDROOT
BRANCH   1   2
ATOM      2  S   UNL d   1      57.932  -0.233  30.718  0.00  0.00     0.228 S 
ATOM      3  O   UNL d   1      58.500   0.198  31.131  0.00  0.00    -0.216 OA
ATOM      4  O   UNL d   1      57.355  -0.669  30.305  0.00  0.00    -0.216 OA
BRANCH   2   5
ATOM      5  C   UNL d   1      57.405  -0.192  31.399  0.00  0.00     0.089 A 
ATOM      6  C   UNL d   1      57.390   0.491  31.860  0.00  0.00     0.011 A 
ATOM      7  C   UNL d   1      56.886   0.530  32.512  0.00  0.00     0.001 A 
ATOM      8  C   UNL d   1      56.397  -0.114  32.702  0.00  0.00     0.000 A 
ATOM      9  C   UNL d   1      56.410  -0.801  32.242  0.00  0.00     0.001 A 
ATOM     10  C   UNL d   1      55.890  -0.066  33.364  0.00  0.00     0.000 C 
ATOM     11  C   UNL d   1      56.915  -0.839  31.590  0.00  0.00     0.011 A 
ENDBRANCH   2   5
ENDBRANCH   1   2
BRANCH   1  12
ATOM     12  N   UNL d   1      58.846  -0.946  29.907  0.00  0.00    -0.195 NA
ATOM     13  C   UNL d   1      58.807  -1.293  29.159  0.00  0.00     0.280 C 
ATOM     14  O   UNL d   1      58.360  -0.961  28.588  0.00  0.00    -0.265 OA
BRANCH  13  15
ATOM     15  C   UNL d   1      59.241  -1.978  29.044  0.00  0.00     0.058 A 
ATOM     16  C   UNL d   1      58.838  -2.670  28.935  0.00  0.00     0.005 A 
ATOM     17  C   UNL d   1      59.245  -3.361  28.819  0.00  0.00     0.000 A 
ATOM     18  C   UNL d   1      60.067  -3.377  28.810  0.00  0.00     0.000 A 
ATOM     19  C   UNL d   1      60.479  -2.683  28.920  0.00  0.00     0.000 A 
ATOM     20  C   UNL d   1      60.513  -4.102  28.688  0.00  0.00     0.000 C 
ATOM     21  C   UNL d   1      60.058  -1.976  29.038  0.00  0.00     0.005 A 
ENDBRANCH  13  15
ENDBRANCH   1  12
BRANCH   1  22
ATOM     22  C   UNL d   1      58.534   0.370  29.568  0.00  0.00     0.144 C 
ATOM     23 CL   UNL d   1      59.238   0.681  29.570  0.00  0.00    -0.068 Cl
ATOM     24 CL   UNL d   1      57.873   0.661  29.079  0.00  0.00    -0.068 Cl
ENDBRANCH   1  22
TORSDOF 5
ENDMDL
