MODEL 1
REMARK VINA RESULT:      46.6      0.000      0.000
REMARK  3 active torsions:
REMARK  status: ('A' for Active; 'I' for Inactive)
REMARK    1  A    between atoms: C_9  and  N_1 
REMARK    2  A    between atoms: C_5  and  C_9 
REMARK       I    between atoms: N_8  and  C_5 
REMARK    3  A    between atoms: O_14  and  C_12 
ROOT
ATOM      1  N   UNL d   1      43.559 -15.589  36.612  0.00  0.00    -0.268 N 
ATOM      2  C   UNL d   1      44.256 -16.021  36.624  0.00  0.00     0.265 A 
ATOM      3  C   UNL d   1      44.974 -15.635  36.777  0.00  0.00     0.059 A 
ATOM      4  C   UNL d   1      44.986 -14.824  36.915  0.00  0.00     0.028 A 
ATOM      5  C   UNL d   1      44.287 -14.392  36.903  0.00  0.00     0.021 A 
ATOM      6  C   UNL d   1      43.575 -14.770  36.753  0.00  0.00     0.083 A 
ATOM      7  O   UNL d   1      44.246 -16.832  36.486  0.00  0.00    -0.267 OA
ATOM      8  C   UNL d   1      45.702 -14.447  37.066  0.00  0.00     0.094 A 
ATOM      9  C   UNL d   1      45.671 -16.076  36.787  0.00  0.00     0.005 A 
ATOM     10  C   UNL d   1      46.392 -15.698  36.938  0.00  0.00     0.002 A 
ATOM     11  C   UNL d   1      46.408 -14.888  37.077  0.00  0.00     0.024 A 
ENDROOT
BRANCH   1  12
ATOM     12  C   UNL d   1      42.847 -15.966  36.462  0.00  0.00     0.144 C 
BRANCH  12  13
ATOM     13  C   UNL d   1      42.140 -15.530  36.423  0.00  0.00     0.283 C 
ATOM     14  N   UNL d   1      41.421 -15.928  36.401  0.00  0.00    -0.271 N 
ATOM     15  C   UNL d   1      40.743 -15.405  36.362  0.00  0.00     0.083 A 
ATOM     16  C   UNL d   1      41.485 -16.669  36.418  0.00  0.00     0.083 A 
ATOM     17  C   UNL d   1      40.031 -15.505  36.334  0.00  0.00     0.019 A 
ATOM     18  C   UNL d   1      39.619 -16.233  36.331  0.00  0.00     0.002 A 
ATOM     19  C   UNL d   1      39.987 -17.036  36.363  0.00  0.00     0.002 A 
ATOM     20  C   UNL d   1      40.853 -17.243  36.403  0.00  0.00     0.019 A 
ATOM     21  O   UNL d   1      42.155 -14.717  36.408  0.00  0.00    -0.265 OA
ENDBRANCH  12  13
ENDBRANCH   1  12
BRANCH   8  22
ATOM     22  O   UNL d   1      45.726 -13.637  37.206  0.00  0.00    -0.328 OA
ATOM     23  C   UNL d   1      46.347 -13.311  37.625  0.00  0.00     0.181 C 
ENDBRANCH   8  22
TORSDOF 3
ENDMDL
