MODEL 1
REMARK VINA RESULT:       0.9      0.000      0.000
REMARK  4 active torsions:
REMARK  status: ('A' for Active; 'I' for Inactive)
REMARK    1  A    between atoms: C_8  and  S_1 
REMARK    2  A    between atoms: C_2  and  C_10 
REMARK    3  A    between atoms: C_6  and  C_14 
REMARK       I    between atoms: N_9  and  C_6 
REMARK    4  A    between atoms: C_23  and  N_9 
ROOT
ATOM      1  C   UNL d   1      55.469   0.600  33.344  0.00  0.00     0.024 A 
ATOM      2  C   UNL d   1      55.285   0.621  32.549  0.00  0.00     0.004 A 
ATOM      3  C   UNL d   1      56.252   0.561  33.591  0.00  0.00     0.004 A 
ATOM      4  C   UNL d   1      56.679   0.563  32.230  0.00  0.00     0.085 A 
ATOM      5  C   UNL d   1      56.862   0.542  33.036  0.00  0.00     0.019 A 
ATOM      6  C   UNL d   1      55.889   0.603  31.988  0.00  0.00     0.019 A 
ENDROOT
BRANCH   4   7
ATOM      7  N   UNL d   1      57.286   0.545  31.665  0.00  0.00    -0.208 NA
ATOM      8  C   UNL d   1      57.443  -0.155  31.262  0.00  0.00     0.279 C 
ATOM      9  O   UNL d   1      57.006  -0.835  31.411  0.00  0.00    -0.265 OA
BRANCH   8  10
ATOM     10  C   UNL d   1      58.044  -0.173  30.703  0.00  0.00     0.058 A 
ATOM     11  C   UNL d   1      58.166  -0.852  30.248  0.00  0.00     0.005 A 
ATOM     12  C   UNL d   1      58.764  -0.871  29.692  0.00  0.00     0.013 A 
ATOM     13  C   UNL d   1      59.257  -0.202  29.579  0.00  0.00     0.107 A 
ATOM     14  C   UNL d   1      59.138   0.477  30.031  0.00  0.00     0.013 A 
ATOM     15  C   UNL d   1      58.531   0.496  30.596  0.00  0.00     0.005 A 
BRANCH  13  16
ATOM     16  S   UNL d   1      59.864  -0.220  29.015  0.00  0.00     0.302 S 
ATOM     17  O   UNL d   1      59.383   0.180  28.485  0.00  0.00    -0.197 OA
ATOM     18  O   UNL d   1      60.339  -0.623  29.556  0.00  0.00    -0.197 OA
ATOM     19  N   UNL d   1      60.470  -0.243  28.462  0.00  0.00    -0.043 N 
ENDBRANCH  13  16
ENDBRANCH   8  10
ENDBRANCH   4   7
BRANCH   1  20
ATOM     20  C   UNL d   1      54.860   0.619  33.904  0.00  0.00     0.112 A 
ATOM     21  S   UNL d   1      54.963   0.631  34.734  0.00  0.00    -0.047 SA
ATOM     22  C   UNL d   1      54.207   0.649  35.083  0.00  0.00     0.130 A 
ATOM     23  N   UNL d   1      53.962   0.666  35.871  0.00  0.00    -0.236 NA
ATOM     24  C   UNL d   1      53.640   0.647  34.473  0.00  0.00     0.106 A 
ATOM     25  C   UNL d   1      53.156   0.681  36.055  0.00  0.00     0.100 A 
ATOM     26  C   UNL d   1      52.589   0.680  35.440  0.00  0.00     0.022 A 
ATOM     27  C   UNL d   1      52.837   0.663  34.655  0.00  0.00     0.023 A 
ATOM     28  N   UNL d   1      54.057   0.629  33.743  0.00  0.00    -0.237 NA
ENDBRANCH   1  20
TORSDOF 4
ENDMDL
MODEL 2
REMARK VINA RESULT:       1.7      5.251      7.823
REMARK  4 active torsions:
REMARK  status: ('A' for Active; 'I' for Inactive)
REMARK    1  A    between atoms: C_8  and  S_1 
REMARK    2  A    between atoms: C_2  and  C_10 
REMARK    3  A    between atoms: C_6  and  C_14 
REMARK       I    between atoms: N_9  and  C_6 
REMARK    4  A    between atoms: C_23  and  N_9 
ROOT
ATOM      1  C   UNL d   1      58.189  -6.132  28.463  0.00  0.00     0.024 A 
ATOM      2  C   UNL d   1      57.572  -5.597  28.466  0.00  0.00     0.004 A 
ATOM      3  C   UNL d   1      58.968  -5.872  28.458  0.00  0.00     0.004 A 
ATOM      4  C   UNL d   1      58.513  -4.520  28.459  0.00  0.00     0.085 A 
ATOM      5  C   UNL d   1      59.136  -5.064  28.456  0.00  0.00     0.019 A 
ATOM      6  C   UNL d   1      57.731  -4.788  28.465  0.00  0.00     0.019 A 
ENDROOT
BRANCH   4   7
ATOM      7  N   UNL d   1      58.673  -3.706  28.458  0.00  0.00    -0.208 NA
ATOM      8  C   UNL d   1      59.078  -3.371  29.091  0.00  0.00     0.279 C 
ATOM      9  O   UNL d   1      59.327  -3.832  29.725  0.00  0.00    -0.265 OA
BRANCH   8  10
ATOM     10  C   UNL d   1      59.237  -2.565  29.089  0.00  0.00     0.058 A 
ATOM     11  C   UNL d   1      60.004  -2.294  28.947  0.00  0.00     0.005 A 
ATOM     12  C   UNL d   1      60.162  -1.492  28.946  0.00  0.00     0.013 A 
ATOM     13  C   UNL d   1      59.546  -0.941  29.088  0.00  0.00     0.107 A 
ATOM     14  C   UNL d   1      58.780  -1.208  29.230  0.00  0.00     0.013 A 
ATOM     15  C   UNL d   1      58.620  -2.022  29.232  0.00  0.00     0.005 A 
BRANCH  13  16
ATOM     16  S   UNL d   1      59.706  -0.128  29.086  0.00  0.00     0.302 S 
ATOM     17  O   UNL d   1      59.168  -0.023  28.477  0.00  0.00    -0.197 OA
ATOM     18  O   UNL d   1      60.245  -0.245  29.700  0.00  0.00    -0.197 OA
ATOM     19  N   UNL d   1      59.870   0.677  29.091  0.00  0.00    -0.043 N 
ENDBRANCH  13  16
ENDBRANCH   8  10
ENDBRANCH   4   7
BRANCH   1  20
ATOM     20  C   UNL d   1      58.024  -6.944  28.464  0.00  0.00     0.112 A 
ATOM     21  S   UNL d   1      58.595  -7.555  28.475  0.00  0.00    -0.047 SA
ATOM     22  C   UNL d   1      58.189  -8.281  28.473  0.00  0.00     0.130 A 
ATOM     23  N   UNL d   1      58.453  -9.063  28.480  0.00  0.00    -0.236 NA
ATOM     24  C   UNL d   1      57.371  -8.121  28.461  0.00  0.00     0.106 A 
ATOM     25  C   UNL d   1      57.909  -9.686  28.476  0.00  0.00     0.100 A 
ATOM     26  C   UNL d   1      57.088  -9.521  28.464  0.00  0.00     0.022 A 
ATOM     27  C   UNL d   1      56.828  -8.740  28.456  0.00  0.00     0.023 A 
ATOM     28  N   UNL d   1      57.280  -7.285  28.456  0.00  0.00    -0.237 NA
ENDBRANCH   1  20
TORSDOF 4
ENDMDL
MODEL 3
REMARK VINA RESULT:       2.3      1.806      6.636
REMARK  4 active torsions:
REMARK  status: ('A' for Active; 'I' for Inactive)
REMARK    1  A    between atoms: C_8  and  S_1 
REMARK    2  A    between atoms: C_2  and  C_10 
REMARK    3  A    between atoms: C_6  and  C_14 
REMARK       I    between atoms: N_9  and  C_6 
REMARK    4  A    between atoms: C_23  and  N_9 
ROOT
ATOM      1  C   UNL d   1      58.418  -0.500  30.854  0.00  0.00     0.024 A 
ATOM      2  C   UNL d   1      57.636  -0.698  30.727  0.00  0.00     0.004 A 
ATOM      3  C   UNL d   1      58.639  -0.082  31.526  0.00  0.00     0.004 A 
ATOM      4  C   UNL d   1      57.279  -0.056  31.955  0.00  0.00     0.085 A 
ATOM      5  C   UNL d   1      58.072   0.143  32.081  0.00  0.00     0.019 A 
ATOM      6  C   UNL d   1      57.062  -0.477  31.277  0.00  0.00     0.019 A 
ENDROOT
BRANCH   4   7
ATOM      7  N   UNL d   1      56.702   0.166  32.507  0.00  0.00    -0.208 NA
ATOM      8  C   UNL d   1      56.254  -0.415  32.882  0.00  0.00     0.279 C 
ATOM      9  O   UNL d   1      56.372  -1.211  32.715  0.00  0.00    -0.265 OA
BRANCH   8  10
ATOM     10  C   UNL d   1      55.683  -0.195  33.429  0.00  0.00     0.058 A 
ATOM     11  C   UNL d   1      55.836   0.416  33.965  0.00  0.00     0.005 A 
ATOM     12  C   UNL d   1      55.267   0.634  34.509  0.00  0.00     0.013 A 
ATOM     13  C   UNL d   1      54.527   0.241  34.528  0.00  0.00     0.107 A 
ATOM     14  C   UNL d   1      54.372  -0.368  33.995  0.00  0.00     0.013 A 
ATOM     15  C   UNL d   1      54.949  -0.590  33.442  0.00  0.00     0.005 A 
BRANCH  13  16
ATOM     16  S   UNL d   1      53.951   0.463  35.080  0.00  0.00     0.302 S 
ATOM     17  O   UNL d   1      53.426   0.621  34.470  0.00  0.00    -0.197 OA
ATOM     18  O   UNL d   1      54.486   0.302  35.686  0.00  0.00    -0.197 OA
ATOM     19  N   UNL d   1      53.385   0.681  35.634  0.00  0.00    -0.043 N 
ENDBRANCH  13  16
ENDBRANCH   8  10
ENDBRANCH   4   7
BRANCH   1  20
ATOM     20  C   UNL d   1      58.990  -0.724  30.299  0.00  0.00     0.112 A 
ATOM     21  S   UNL d   1      59.612  -0.239  30.020  0.00  0.00    -0.047 SA
ATOM     22  C   UNL d   1      60.054  -0.683  29.472  0.00  0.00     0.130 A 
ATOM     23  N   UNL d   1      60.721  -0.501  29.022  0.00  0.00    -0.236 NA
ATOM     24  C   UNL d   1      59.707  -1.439  29.412  0.00  0.00     0.106 A 
ATOM     25  C   UNL d   1      61.046  -1.066  28.513  0.00  0.00     0.100 A 
ATOM     26  C   UNL d   1      60.695  -1.824  28.455  0.00  0.00     0.022 A 
ATOM     27  C   UNL d   1      60.030  -2.003  28.905  0.00  0.00     0.023 A 
ATOM     28  N   UNL d   1      59.046  -1.454  29.931  0.00  0.00    -0.237 NA
ENDBRANCH   1  20
TORSDOF 4
ENDMDL
