MODEL 1
REMARK VINA RESULT:      -7.2      0.000      0.000
REMARK  3 active torsions:
REMARK  status: ('A' for Active; 'I' for Inactive)
REMARK    1  A    between atoms: C_11  and  N_3 
REMARK    2  A    between atoms: C_10  and  N_6 
REMARK    3  A    between atoms: C_9  and  C_7 
ROOT
ATOM      1  C   UNL d   1      51.879  33.563  53.186  0.00  0.00     0.106 A 
ATOM      2  C   UNL d   1      51.871  34.384  53.374  0.00  0.00     0.186 A 
ATOM      3  N   UNL d   1      50.759  34.110  52.651  0.00  0.00    -0.240 N 
ATOM      4  C   UNL d   1      51.174  34.691  53.033  0.00  0.00     0.292 A 
ATOM      5  C   UNL d   1      51.207  33.397  52.750  0.00  0.00     0.271 A 
ATOM      6  N   UNL d   1      52.973  33.871  53.906  0.00  0.00    -0.211 N 
ATOM      7  C   UNL d   1      52.564  33.257  53.520  0.00  0.00     0.117 A 
ATOM      8  O   UNL d   1      52.528  34.558  53.803  0.00  0.00    -0.223 OA
ATOM      9  O   UNL d   1      50.980  32.665  52.444  0.00  0.00    -0.266 OA
ATOM     10  O   UNL d   1      50.938  35.499  53.082  0.00  0.00    -0.264 OA
ENDROOT
BRANCH   6  11
ATOM     11  C   UNL d   1      53.687  33.806  54.314  0.00  0.00     0.088 A 
ATOM     12  C   UNL d   1      53.672  33.685  55.139  0.00  0.00     0.021 A 
ATOM     13  C   UNL d   1      54.378  33.616  55.566  0.00  0.00     0.013 A 
ATOM     14  C   UNL d   1      55.118  33.669  55.163  0.00  0.00     0.058 A 
ATOM     15  C   UNL d   1      55.124  33.791  54.334  0.00  0.00     0.013 A 
ATOM     16 CL   UNL d   1      55.817  33.605  55.563  0.00  0.00    -0.082 Cl
ATOM     17  C   UNL d   1      54.410  33.857  53.925  0.00  0.00     0.021 A 
ENDBRANCH   6  11
BRANCH   7  18
ATOM     18  C   UNL d   1      52.805  32.473  53.479  0.00  0.00     0.118 A 
ATOM     19  O   UNL d   1      52.699  31.872  54.039  0.00  0.00    -0.304 OA
ATOM     20  C   UNL d   1      53.038  31.176  53.749  0.00  0.00     0.123 A 
ATOM     21  C   UNL d   1      53.353  31.370  52.995  0.00  0.00     0.029 A 
ATOM     22  C   UNL d   1      53.205  32.146  52.851  0.00  0.00     0.028 A 
ENDBRANCH   7  18
BRANCH   3  23
ATOM     23  C   UNL d   1      50.056  34.322  52.284  0.00  0.00     0.070 A 
ATOM     24  C   UNL d   1      49.404  34.590  52.722  0.00  0.00     0.018 A 
ATOM     25  C   UNL d   1      48.705  34.800  52.339  0.00  0.00     0.002 A 
ATOM     26  C   UNL d   1      48.634  34.751  51.541  0.00  0.00     0.000 A 
ATOM     27  C   UNL d   1      49.295  34.478  51.087  0.00  0.00     0.002 A 
ATOM     28  C   UNL d   1      49.993  34.267  51.449  0.00  0.00     0.018 A 
ENDBRANCH   3  23
TORSDOF 3
ENDMDL
MODEL 2
REMARK VINA RESULT:      -6.2      2.035      4.662
REMARK  3 active torsions:
REMARK  status: ('A' for Active; 'I' for Inactive)
REMARK    1  A    between atoms: C_11  and  N_3 
REMARK    2  A    between atoms: C_10  and  N_6 
REMARK    3  A    between atoms: C_9  and  C_7 
ROOT
ATOM      1  C   UNL d   1      52.281  32.593  53.412  0.00  0.00     0.106 A 
ATOM      2  C   UNL d   1      51.679  32.035  53.223  0.00  0.00     0.186 A 
ATOM      3  N   UNL d   1      52.809  31.349  53.521  0.00  0.00    -0.240 N 
ATOM      4  C   UNL d   1      52.033  31.283  53.299  0.00  0.00     0.292 A 
ATOM      5  C   UNL d   1      52.963  32.179  53.591  0.00  0.00     0.271 A 
ATOM      6  N   UNL d   1      51.141  33.242  53.110  0.00  0.00    -0.211 N 
ATOM      7  C   UNL d   1      51.937  33.335  53.338  0.00  0.00     0.117 A 
ATOM      8  O   UNL d   1      51.004  32.432  53.045  0.00  0.00    -0.223 OA
ATOM      9  O   UNL d   1      53.694  32.495  53.808  0.00  0.00    -0.266 OA
ATOM     10  O   UNL d   1      51.631  30.554  53.162  0.00  0.00    -0.264 OA
ENDROOT
BRANCH   6  11
ATOM     11  C   UNL d   1      50.595  33.846  52.975  0.00  0.00     0.088 A 
ATOM     12  C   UNL d   1      50.429  34.072  52.190  0.00  0.00     0.021 A 
ATOM     13  C   UNL d   1      49.884  34.675  52.033  0.00  0.00     0.013 A 
ATOM     14  C   UNL d   1      49.494  35.063  52.674  0.00  0.00     0.058 A 
ATOM     15  C   UNL d   1      49.667  34.830  53.460  0.00  0.00     0.013 A 
ATOM     16 CL   UNL d   1      48.959  35.654  52.540  0.00  0.00    -0.082 Cl
ATOM     17  C   UNL d   1      50.213  34.227  53.596  0.00  0.00     0.021 A 
ENDBRANCH   6  11
BRANCH   7  18
ATOM     18  C   UNL d   1      52.317  34.052  53.469  0.00  0.00     0.118 A 
ATOM     19  O   UNL d   1      52.361  34.491  54.169  0.00  0.00    -0.304 OA
ATOM     20  C   UNL d   1      52.805  35.174  54.027  0.00  0.00     0.123 A 
ATOM     21  C   UNL d   1      53.030  35.139  53.219  0.00  0.00     0.029 A 
ATOM     22  C   UNL d   1      52.731  34.464  52.902  0.00  0.00     0.028 A 
ENDBRANCH   7  18
BRANCH   3  23
ATOM     23  C   UNL d   1      53.237  30.656  53.619  0.00  0.00     0.070 A 
ATOM     24  C   UNL d   1      53.110  30.158  54.271  0.00  0.00     0.018 A 
ATOM     25  C   UNL d   1      53.548  29.466  54.356  0.00  0.00     0.002 A 
ATOM     26  C   UNL d   1      54.105  29.254  53.818  0.00  0.00     0.000 A 
ATOM     27  C   UNL d   1      54.241  29.756  53.150  0.00  0.00     0.002 A 
ATOM     28  C   UNL d   1      53.817  30.444  53.051  0.00  0.00     0.018 A 
ENDBRANCH   3  23
TORSDOF 3
ENDMDL
MODEL 3
REMARK VINA RESULT:      -6.1      1.445      2.536
REMARK  3 active torsions:
REMARK  status: ('A' for Active; 'I' for Inactive)
REMARK    1  A    between atoms: C_11  and  N_3 
REMARK    2  A    between atoms: C_10  and  N_6 
REMARK    3  A    between atoms: C_9  and  C_7 
ROOT
ATOM      1  C   UNL d   1      52.041  32.874  53.273  0.00  0.00     0.106 A 
ATOM      2  C   UNL d   1      51.378  32.370  53.152  0.00  0.00     0.186 A 
ATOM      3  N   UNL d   1      50.967  33.650  52.990  0.00  0.00    -0.240 N 
ATOM      4  C   UNL d   1      50.735  32.874  52.980  0.00  0.00     0.292 A 
ATOM      5  C   UNL d   1      51.793  33.648  53.175  0.00  0.00     0.271 A 
ATOM      6  N   UNL d   1      52.416  31.591  53.427  0.00  0.00    -0.211 N 
ATOM      7  C   UNL d   1      52.676  32.382  53.442  0.00  0.00     0.117 A 
ATOM      8  O   UNL d   1      51.611  31.607  53.246  0.00  0.00    -0.223 OA
ATOM      9  O   UNL d   1      52.253  34.330  53.240  0.00  0.00    -0.266 OA
ATOM     10  O   UNL d   1      49.952  32.607  52.820  0.00  0.00    -0.264 OA
ENDROOT
BRANCH   6  11
ATOM     11  C   UNL d   1      52.874  30.919  53.567  0.00  0.00     0.088 A 
ATOM     12  C   UNL d   1      52.911  30.609  54.341  0.00  0.00     0.021 A 
ATOM     13  C   UNL d   1      53.365  29.936  54.501  0.00  0.00     0.013 A 
ATOM     14  C   UNL d   1      53.794  29.562  53.877  0.00  0.00     0.058 A 
ATOM     15  C   UNL d   1      53.751  29.880  53.103  0.00  0.00     0.013 A 
ATOM     16 CL   UNL d   1      54.243  28.904  54.015  0.00  0.00    -0.082 Cl
ATOM     17  C   UNL d   1      53.293  30.551  52.963  0.00  0.00     0.021 A 
ENDBRANCH   6  11
BRANCH   7  18
ATOM     18  C   UNL d   1      53.444  32.630  53.600  0.00  0.00     0.118 A 
ATOM     19  O   UNL d   1      54.080  32.701  53.076  0.00  0.00    -0.304 OA
ATOM     20  C   UNL d   1      54.740  32.973  53.495  0.00  0.00     0.123 A 
ATOM     21  C   UNL d   1      54.486  33.065  54.290  0.00  0.00     0.029 A 
ATOM     22  C   UNL d   1      53.712  32.857  54.334  0.00  0.00     0.028 A 
ENDBRANCH   7  18
BRANCH   3  23
ATOM     23  C   UNL d   1      50.397  34.219  52.831  0.00  0.00     0.070 A 
ATOM     24  C   UNL d   1      50.060  34.675  53.437  0.00  0.00     0.018 A 
ATOM     25  C   UNL d   1      49.489  35.243  53.261  0.00  0.00     0.002 A 
ATOM     26  C   UNL d   1      49.244  35.370  52.507  0.00  0.00     0.000 A 
ATOM     27  C   UNL d   1      49.582  34.909  51.883  0.00  0.00     0.002 A 
ATOM     28  C   UNL d   1      50.147  34.344  52.039  0.00  0.00     0.018 A 
ENDBRANCH   3  23
TORSDOF 3
ENDMDL
MODEL 4
REMARK VINA RESULT:      -5.6      3.019      6.087
REMARK  3 active torsions:
REMARK  status: ('A' for Active; 'I' for Inactive)
REMARK    1  A    between atoms: C_11  and  N_3 
REMARK    2  A    between atoms: C_10  and  N_6 
REMARK    3  A    between atoms: C_9  and  C_7 
ROOT
ATOM      1  C   UNL d   1      49.036  35.083  52.807  0.00  0.00     0.106 A 
ATOM      2  C   UNL d   1      49.138  34.801  52.021  0.00  0.00     0.186 A 
ATOM      3  N   UNL d   1      50.255  34.497  52.723  0.00  0.00    -0.240 N 
ATOM      4  C   UNL d   1      49.893  34.447  52.000  0.00  0.00     0.292 A 
ATOM      5  C   UNL d   1      49.711  34.899  53.232  0.00  0.00     0.271 A 
ATOM      6  N   UNL d   1      47.941  35.370  52.080  0.00  0.00    -0.211 N 
ATOM      7  C   UNL d   1      48.293  35.432  52.832  0.00  0.00     0.117 A 
ATOM      8  O   UNL d   1      48.480  34.977  51.595  0.00  0.00    -0.223 OA
ATOM      9  O   UNL d   1      49.861  35.067  54.026  0.00  0.00    -0.266 OA
ATOM     10  O   UNL d   1      50.230  34.088  51.316  0.00  0.00    -0.264 OA
ENDROOT
BRANCH   6  11
ATOM     11  C   UNL d   1      47.195  35.648  51.862  0.00  0.00     0.088 A 
ATOM     12  C   UNL d   1      46.551  35.118  51.861  0.00  0.00     0.021 A 
ATOM     13  C   UNL d   1      45.795  35.378  51.645  0.00  0.00     0.013 A 
ATOM     14  C   UNL d   1      45.676  36.184  51.425  0.00  0.00     0.058 A 
ATOM     15  C   UNL d   1      46.329  36.709  51.429  0.00  0.00     0.013 A 
ATOM     16 CL   UNL d   1      44.945  36.455  51.211  0.00  0.00    -0.082 Cl
ATOM     17  C   UNL d   1      47.075  36.433  51.647  0.00  0.00     0.021 A 
ENDBRANCH   6  11
BRANCH   7  18
ATOM     18  C   UNL d   1      47.954  35.785  53.492  0.00  0.00     0.118 A 
ATOM     19  O   UNL d   1      47.406  35.465  54.022  0.00  0.00    -0.304 OA
ATOM     20  C   UNL d   1      47.229  36.033  54.597  0.00  0.00     0.123 A 
ATOM     21  C   UNL d   1      47.686  36.709  54.401  0.00  0.00     0.029 A 
ATOM     22  C   UNL d   1      48.111  36.544  53.740  0.00  0.00     0.028 A 
ENDBRANCH   7  18
BRANCH   3  23
ATOM     23  C   UNL d   1      51.006  34.173  52.795  0.00  0.00     0.070 A 
ATOM     24  C   UNL d   1      51.117  33.394  53.060  0.00  0.00     0.018 A 
ATOM     25  C   UNL d   1      51.877  33.084  53.128  0.00  0.00     0.002 A 
ATOM     26  C   UNL d   1      52.526  33.519  52.942  0.00  0.00     0.000 A 
ATOM     27  C   UNL d   1      52.421  34.314  52.671  0.00  0.00     0.002 A 
ATOM     28  C   UNL d   1      51.677  34.637  52.598  0.00  0.00     0.018 A 
ENDBRANCH   3  23
TORSDOF 3
ENDMDL
MODEL 5
REMARK VINA RESULT:      -5.6      1.676      3.904
REMARK  3 active torsions:
REMARK  status: ('A' for Active; 'I' for Inactive)
REMARK    1  A    between atoms: C_11  and  N_3 
REMARK    2  A    between atoms: C_10  and  N_6 
REMARK    3  A    between atoms: C_9  and  C_7 
ROOT
ATOM      1  C   UNL d   1      52.583  32.303  53.555  0.00  0.00     0.106 A 
ATOM      2  C   UNL d   1      53.326  32.183  53.931  0.00  0.00     0.186 A 
ATOM      3  N   UNL d   1      52.867  30.978  53.518  0.00  0.00    -0.240 N 
ATOM      4  C   UNL d   1      53.474  31.363  53.893  0.00  0.00     0.292 A 
ATOM      5  C   UNL d   1      52.305  31.576  53.306  0.00  0.00     0.271 A 
ATOM      6  N   UNL d   1      53.069  33.484  53.980  0.00  0.00    -0.211 N 
ATOM      7  C   UNL d   1      52.434  33.110  53.591  0.00  0.00     0.117 A 
ATOM      8  O   UNL d   1      53.608  32.893  54.181  0.00  0.00    -0.223 OA
ATOM      9  O   UNL d   1      51.597  31.422  52.910  0.00  0.00    -0.266 OA
ATOM     10  O   UNL d   1      54.162  30.989  54.203  0.00  0.00    -0.264 OA
ENDROOT
BRANCH   6  11
ATOM     11  C   UNL d   1      53.144  34.291  54.134  0.00  0.00     0.088 A 
ATOM     12  C   UNL d   1      52.925  34.581  54.885  0.00  0.00     0.021 A 
ATOM     13  C   UNL d   1      52.993  35.387  55.059  0.00  0.00     0.013 A 
ATOM     14  C   UNL d   1      53.287  35.919  54.472  0.00  0.00     0.058 A 
ATOM     15  C   UNL d   1      53.505  35.619  53.721  0.00  0.00     0.013 A 
ATOM     16 CL   UNL d   1      53.360  36.709  54.625  0.00  0.00    -0.082 Cl
ATOM     17  C   UNL d   1      53.430  34.812  53.566  0.00  0.00     0.021 A 
ENDBRANCH   6  11
BRANCH   7  18
ATOM     18  C   UNL d   1      51.767  33.486  53.293  0.00  0.00     0.118 A 
ATOM     19  O   UNL d   1      51.057  33.658  53.680  0.00  0.00    -0.304 OA
ATOM     20  C   UNL d   1      50.551  34.042  53.149  0.00  0.00     0.123 A 
ATOM     21  C   UNL d   1      50.975  34.099  52.427  0.00  0.00     0.029 A 
ATOM     22  C   UNL d   1      51.697  33.763  52.531  0.00  0.00     0.028 A 
ENDBRANCH   7  18
BRANCH   3  23
ATOM     23  C   UNL d   1      52.927  30.164  53.434  0.00  0.00     0.070 A 
ATOM     24  C   UNL d   1      52.977  29.664  54.094  0.00  0.00     0.018 A 
ATOM     25  C   UNL d   1      53.037  28.848  53.994  0.00  0.00     0.002 A 
ATOM     26  C   UNL d   1      53.048  28.516  53.263  0.00  0.00     0.000 A 
ATOM     27  C   UNL d   1      52.998  29.019  52.584  0.00  0.00     0.002 A 
ATOM     28  C   UNL d   1      52.938  29.828  52.665  0.00  0.00     0.018 A 
ENDBRANCH   3  23
TORSDOF 3
ENDMDL
MODEL 6
REMARK VINA RESULT:      -5.5      1.297      2.350
REMARK  3 active torsions:
REMARK  status: ('A' for Active; 'I' for Inactive)
REMARK    1  A    between atoms: C_11  and  N_3 
REMARK    2  A    between atoms: C_10  and  N_6 
REMARK    3  A    between atoms: C_9  and  C_7 
ROOT
ATOM      1  C   UNL d   1      51.104  34.208  53.242  0.00  0.00     0.106 A 
ATOM      2  C   UNL d   1      50.703  33.619  52.794  0.00  0.00     0.186 A 
ATOM      3  N   UNL d   1      49.903  34.710  52.864  0.00  0.00    -0.240 N 
ATOM      4  C   UNL d   1      49.971  33.956  52.576  0.00  0.00     0.292 A 
ATOM      5  C   UNL d   1      50.621  34.867  53.285  0.00  0.00     0.271 A 
ATOM      6  N   UNL d   1      51.873  33.107  53.153  0.00  0.00    -0.211 N 
ATOM      7  C   UNL d   1      51.825  33.880  53.459  0.00  0.00     0.117 A 
ATOM      8  O   UNL d   1      51.170  32.967  52.746  0.00  0.00    -0.223 OA
ATOM      9  O   UNL d   1      50.784  35.579  53.669  0.00  0.00    -0.266 OA
ATOM     10  O   UNL d   1      49.385  33.560  52.117  0.00  0.00    -0.264 OA
ENDROOT
BRANCH   6  11
ATOM     11  C   UNL d   1      52.503  32.582  53.240  0.00  0.00     0.088 A 
ATOM     12  C   UNL d   1      52.456  31.986  53.823  0.00  0.00     0.021 A 
ATOM     13  C   UNL d   1      53.077  31.450  53.926  0.00  0.00     0.013 A 
ATOM     14  C   UNL d   1      53.764  31.506  53.437  0.00  0.00     0.058 A 
ATOM     15  C   UNL d   1      53.803  32.107  52.855  0.00  0.00     0.013 A 
ATOM     16 CL   UNL d   1      54.381  30.991  53.524  0.00  0.00    -0.082 Cl
ATOM     17  C   UNL d   1      53.174  32.633  52.767  0.00  0.00     0.021 A 
ENDBRANCH   6  11
BRANCH   7  18
ATOM     18  C   UNL d   1      52.405  34.255  53.905  0.00  0.00     0.118 A 
ATOM     19  O   UNL d   1      52.567  34.172  54.712  0.00  0.00    -0.304 OA
ATOM     20  C   UNL d   1      53.203  34.664  54.907  0.00  0.00     0.123 A 
ATOM     21  C   UNL d   1      53.423  35.050  54.195  0.00  0.00     0.029 A 
ATOM     22  C   UNL d   1      52.937  34.795  53.608  0.00  0.00     0.028 A 
ENDBRANCH   7  18
BRANCH   3  23
ATOM     23  C   UNL d   1      49.212  35.120  52.697  0.00  0.00     0.070 A 
ATOM     24  C   UNL d   1      48.943  35.216  51.918  0.00  0.00     0.018 A 
ATOM     25  C   UNL d   1      48.248  35.631  51.767  0.00  0.00     0.002 A 
ATOM     26  C   UNL d   1      47.813  35.950  52.362  0.00  0.00     0.000 A 
ATOM     27  C   UNL d   1      48.080  35.855  53.160  0.00  0.00     0.002 A 
ATOM     28  C   UNL d   1      48.765  35.449  53.327  0.00  0.00     0.018 A 
ENDBRANCH   3  23
TORSDOF 3
ENDMDL
MODEL 7
REMARK VINA RESULT:      -5.1      2.453      3.951
REMARK  3 active torsions:
REMARK  status: ('A' for Active; 'I' for Inactive)
REMARK    1  A    between atoms: C_11  and  N_3 
REMARK    2  A    between atoms: C_10  and  N_6 
REMARK    3  A    between atoms: C_9  and  C_7 
ROOT
ATOM      1  C   UNL d   1      53.495  32.239  53.919  0.00  0.00     0.106 A 
ATOM      2  C   UNL d   1      52.673  32.273  53.740  0.00  0.00     0.186 A 
ATOM      3  N   UNL d   1      53.095  31.004  53.527  0.00  0.00    -0.240 N 
ATOM      4  C   UNL d   1      52.457  31.503  53.503  0.00  0.00     0.292 A 
ATOM      5  C   UNL d   1      53.750  31.472  53.791  0.00  0.00     0.271 A 
ATOM      6  N   UNL d   1      53.042  33.490  54.120  0.00  0.00    -0.211 N 
ATOM      7  C   UNL d   1      53.712  32.995  54.153  0.00  0.00     0.117 A 
ATOM      8  O   UNL d   1      52.412  33.023  53.863  0.00  0.00    -0.223 OA
ATOM      9  O   UNL d   1      54.514  31.178  53.894  0.00  0.00    -0.266 OA
ATOM     10  O   UNL d   1      51.679  31.278  53.270  0.00  0.00    -0.264 OA
ENDROOT
BRANCH   6  11
ATOM     11  C   UNL d   1      53.014  34.292  54.309  0.00  0.00     0.088 A 
ATOM     12  C   UNL d   1      53.035  34.854  53.692  0.00  0.00     0.021 A 
ATOM     13  C   UNL d   1      53.007  35.663  53.861  0.00  0.00     0.013 A 
ATOM     14  C   UNL d   1      52.958  35.923  54.663  0.00  0.00     0.058 A 
ATOM     15  C   UNL d   1      52.937  35.352  55.276  0.00  0.00     0.013 A 
ATOM     16 CL   UNL d   1      52.930  36.709  54.846  0.00  0.00    -0.082 Cl
ATOM     17  C   UNL d   1      52.965  34.549  55.088  0.00  0.00     0.021 A 
ENDBRANCH   6  11
BRANCH   7  18
ATOM     18  C   UNL d   1      54.466  33.226  54.381  0.00  0.00     0.118 A 
ATOM     19  O   UNL d   1      54.768  33.313  55.147  0.00  0.00    -0.304 OA
ATOM     20  C   UNL d   1      55.557  33.557  55.095  0.00  0.00     0.123 A 
ATOM     21  C   UNL d   1      55.727  33.616  54.275  0.00  0.00     0.029 A 
ATOM     22  C   UNL d   1      55.066  33.416  53.865  0.00  0.00     0.028 A 
ENDBRANCH   7  18
BRANCH   3  23
ATOM     23  C   UNL d   1      52.975  30.222  53.309  0.00  0.00     0.070 A 
ATOM     24  C   UNL d   1      52.912  30.000  52.512  0.00  0.00     0.018 A 
ATOM     25  C   UNL d   1      52.792  29.210  52.310  0.00  0.00     0.002 A 
ATOM     26  C   UNL d   1      52.732  28.638  52.870  0.00  0.00     0.000 A 
ATOM     27  C   UNL d   1      52.795  28.857  53.686  0.00  0.00     0.002 A 
ATOM     28  C   UNL d   1      52.914  29.632  53.904  0.00  0.00     0.018 A 
ENDBRANCH   3  23
TORSDOF 3
ENDMDL
MODEL 8
REMARK VINA RESULT:      -4.4      1.816      4.540
REMARK  3 active torsions:
REMARK  status: ('A' for Active; 'I' for Inactive)
REMARK    1  A    between atoms: C_11  and  N_3 
REMARK    2  A    between atoms: C_10  and  N_6 
REMARK    3  A    between atoms: C_9  and  C_7 
ROOT
ATOM      1  C   UNL d   1      52.590  33.596  53.708  0.00  0.00     0.106 A 
ATOM      2  C   UNL d   1      52.717  34.428  53.685  0.00  0.00     0.186 A 
ATOM      3  N   UNL d   1      53.746  33.865  54.363  0.00  0.00    -0.240 N 
ATOM      4  C   UNL d   1      53.433  34.562  54.094  0.00  0.00     0.292 A 
ATOM      5  C   UNL d   1      53.210  33.256  54.118  0.00  0.00     0.271 A 
ATOM      6  N   UNL d   1      51.583  34.189  53.040  0.00  0.00    -0.211 N 
ATOM      7  C   UNL d   1      51.886  33.460  53.307  0.00  0.00     0.117 A 
ATOM      8  O   UNL d   1      52.112  34.772  53.284  0.00  0.00    -0.223 OA
ATOM      9  O   UNL d   1      53.320  32.454  54.279  0.00  0.00    -0.266 OA
ATOM     10  O   UNL d   1      53.779  35.322  54.208  0.00  0.00    -0.264 OA
ENDROOT
BRANCH   6  11
ATOM     11  C   UNL d   1      50.887  34.304  52.612  0.00  0.00     0.088 A 
ATOM     12  C   UNL d   1      50.188  34.500  53.024  0.00  0.00     0.021 A 
ATOM     13  C   UNL d   1      49.480  34.620  52.613  0.00  0.00     0.013 A 
ATOM     14  C   UNL d   1      49.465  34.544  51.772  0.00  0.00     0.058 A 
ATOM     15  C   UNL d   1      50.172  34.347  51.367  0.00  0.00     0.013 A 
ATOM     16 CL   UNL d   1      48.782  34.658  51.354  0.00  0.00    -0.082 Cl
ATOM     17  C   UNL d   1      50.868  34.231  51.793  0.00  0.00     0.021 A 
ENDBRANCH   6  11
BRANCH   7  18
ATOM     18  C   UNL d   1      51.539  32.725  53.188  0.00  0.00     0.118 A 
ATOM     19  O   UNL d   1      50.869  32.407  53.556  0.00  0.00    -0.304 OA
ATOM     20  C   UNL d   1      50.735  31.649  53.254  0.00  0.00     0.123 A 
ATOM     21  C   UNL d   1      51.343  31.514  52.691  0.00  0.00     0.029 A 
ATOM     22  C   UNL d   1      51.813  32.165  52.665  0.00  0.00     0.028 A 
ENDBRANCH   7  18
BRANCH   3  23
ATOM     23  C   UNL d   1      54.452  33.901  54.779  0.00  0.00     0.070 A 
ATOM     24  C   UNL d   1      55.183  33.950  54.387  0.00  0.00     0.018 A 
ATOM     25  C   UNL d   1      55.883  33.985  54.819  0.00  0.00     0.002 A 
ATOM     26  C   UNL d   1      55.882  33.974  55.621  0.00  0.00     0.000 A 
ATOM     27  C   UNL d   1      55.142  33.924  56.029  0.00  0.00     0.002 A 
ATOM     28  C   UNL d   1      54.439  33.888  55.618  0.00  0.00     0.018 A 
ENDBRANCH   3  23
TORSDOF 3
ENDMDL
