MODEL 1
REMARK VINA RESULT:      -6.1      0.000      0.000
REMARK  4 active torsions:
REMARK  status: ('A' for Active; 'I' for Inactive)
REMARK    1  A    between atoms: C_17  and  C_4 
REMARK    2  A    between atoms: C_6  and  C_8 
REMARK       I    between atoms: C_8  and  N_16 
REMARK    3  A    between atoms: N_16  and  C_18 
REMARK    4  A    between atoms: C_18  and  C_17 
ROOT
ATOM      1  C   UNL d   1      51.844  34.039  52.573  0.00  0.00     0.042 C 
ENDROOT
BRANCH   1   2
ATOM      2  C   UNL d   1      52.392  33.812  53.152  0.00  0.00     0.103 A 
ATOM      3  N   UNL d   1      52.767  34.309  53.697  0.00  0.00    -0.221 NA
ATOM      4  C   UNL d   1      53.269  33.843  54.169  0.00  0.00     0.179 A 
ATOM      5  N   UNL d   1      53.201  33.057  53.913  0.00  0.00    -0.282 N 
ATOM      6  S   UNL d   1      53.806  33.862  54.793  0.00  0.00    -0.048 SA
ATOM      7  C   UNL d   1      52.658  33.043  53.284  0.00  0.00     0.101 A 
ATOM      8  C   UNL d   1      53.698  32.596  54.380  0.00  0.00     0.089 A 
ATOM      9  C   UNL d   1      54.072  33.090  54.924  0.00  0.00     0.057 A 
ENDBRANCH   1   2
BRANCH   1  10
ATOM     10  C   UNL d   1      51.062  34.197  52.791  0.00  0.00     0.104 C 
BRANCH  10  11
ATOM     11  N   UNL d   1      50.477  34.294  52.206  0.00  0.00    -0.206 NA
ATOM     12  C   UNL d   1      49.741  34.615  52.405  0.00  0.00     0.285 C 
ATOM     13  O   UNL d   1      49.587  34.839  53.186  0.00  0.00    -0.265 OA
BRANCH  12  14
ATOM     14  C   UNL d   1      49.161  34.710  51.826  0.00  0.00     0.087 A 
ATOM     15  S   UNL d   1      48.453  35.141  51.908  0.00  0.00    -0.082 SA
ATOM     16  C   UNL d   1      48.043  35.088  51.194  0.00  0.00     0.036 A 
ATOM     17  C   UNL d   1      48.502  34.623  50.675  0.00  0.00     0.008 A 
ATOM     18  C   UNL d   1      49.178  34.401  51.072  0.00  0.00     0.012 A 
ENDBRANCH  12  14
ENDBRANCH  10  11
ENDBRANCH   1  10
TORSDOF 4
ENDMDL
MODEL 2
REMARK VINA RESULT:      -6.0      1.184      4.861
REMARK  4 active torsions:
REMARK  status: ('A' for Active; 'I' for Inactive)
REMARK    1  A    between atoms: C_17  and  C_4 
REMARK    2  A    between atoms: C_6  and  C_8 
REMARK       I    between atoms: C_8  and  N_16 
REMARK    3  A    between atoms: N_16  and  C_18 
REMARK    4  A    between atoms: C_18  and  C_17 
ROOT
ATOM      1  C   UNL d   1      50.588  33.952  52.822  0.00  0.00     0.042 C 
ENDROOT
BRANCH   1   2
ATOM      2  C   UNL d   1      49.922  34.430  52.695  0.00  0.00     0.103 A 
ATOM      3  N   UNL d   1      49.555  34.920  53.252  0.00  0.00    -0.221 NA
ATOM      4  C   UNL d   1      48.911  35.294  52.882  0.00  0.00     0.179 A 
ATOM      5  N   UNL d   1      48.882  35.032  52.096  0.00  0.00    -0.282 N 
ATOM      6  S   UNL d   1      48.291  35.824  52.997  0.00  0.00    -0.048 SA
ATOM      7  C   UNL d   1      49.509  34.498  51.985  0.00  0.00     0.101 A 
ATOM      8  C   UNL d   1      48.245  35.402  51.730  0.00  0.00     0.089 A 
ATOM      9  C   UNL d   1      47.878  35.891  52.283  0.00  0.00     0.057 A 
ENDBRANCH   1   2
BRANCH   1  10
ATOM     10  C   UNL d   1      51.305  34.301  53.039  0.00  0.00     0.104 C 
BRANCH  10  11
ATOM     11  N   UNL d   1      51.917  33.834  53.361  0.00  0.00    -0.206 NA
ATOM     12  C   UNL d   1      52.668  34.160  53.479  0.00  0.00     0.285 C 
ATOM     13  O   UNL d   1      52.811  34.950  53.279  0.00  0.00    -0.265 OA
BRANCH  12  14
ATOM     14  C   UNL d   1      53.273  33.698  53.797  0.00  0.00     0.087 A 
ATOM     15  S   UNL d   1      53.590  33.768  54.565  0.00  0.00    -0.082 SA
ATOM     16  C   UNL d   1      54.181  33.197  54.644  0.00  0.00     0.036 A 
ATOM     17  C   UNL d   1      54.223  32.779  53.924  0.00  0.00     0.008 A 
ATOM     18  C   UNL d   1      53.667  33.094  53.419  0.00  0.00     0.012 A 
ENDBRANCH  12  14
ENDBRANCH  10  11
ENDBRANCH   1  10
TORSDOF 4
ENDMDL
MODEL 3
REMARK VINA RESULT:      -5.8      3.299      5.080
REMARK  4 active torsions:
REMARK  status: ('A' for Active; 'I' for Inactive)
REMARK    1  A    between atoms: C_17  and  C_4 
REMARK    2  A    between atoms: C_6  and  C_8 
REMARK       I    between atoms: C_8  and  N_16 
REMARK    3  A    between atoms: N_16  and  C_18 
REMARK    4  A    between atoms: C_18  and  C_17 
ROOT
ATOM      1  C   UNL d   1      54.063  32.370  53.686  0.00  0.00     0.042 C 
ENDROOT
BRANCH   1   2
ATOM      2  C   UNL d   1      53.750  33.121  53.842  0.00  0.00     0.103 A 
ATOM      3  N   UNL d   1      53.295  33.582  53.327  0.00  0.00    -0.221 NA
ATOM      4  C   UNL d   1      53.103  34.292  53.715  0.00  0.00     0.179 A 
ATOM      5  N   UNL d   1      53.441  34.267  54.472  0.00  0.00    -0.282 N 
ATOM      6  S   UNL d   1      52.706  35.010  53.637  0.00  0.00    -0.048 SA
ATOM      7  C   UNL d   1      53.840  33.542  54.546  0.00  0.00     0.101 A 
ATOM      8  C   UNL d   1      53.251  34.970  54.856  0.00  0.00     0.089 A 
ATOM      9  C   UNL d   1      52.798  35.429  54.344  0.00  0.00     0.057 A 
ENDBRANCH   1   2
BRANCH   1  10
ATOM     10  C   UNL d   1      53.550  31.738  53.538  0.00  0.00     0.104 C 
BRANCH  10  11
ATOM     11  N   UNL d   1      53.642  31.020  53.951  0.00  0.00    -0.206 NA
ATOM     12  C   UNL d   1      53.230  30.345  53.706  0.00  0.00     0.285 C 
ATOM     13  O   UNL d   1      52.727  30.385  53.051  0.00  0.00    -0.265 OA
BRANCH  12  14
ATOM     14  C   UNL d   1      53.321  29.635  54.115  0.00  0.00     0.087 A 
ATOM     15  S   UNL d   1      52.999  29.454  54.862  0.00  0.00    -0.082 SA
ATOM     16  C   UNL d   1      53.230  28.687  55.056  0.00  0.00     0.036 A 
ATOM     17  C   UNL d   1      53.695  28.398  54.427  0.00  0.00     0.008 A 
ATOM     18  C   UNL d   1      53.742  28.984  53.863  0.00  0.00     0.012 A 
ENDBRANCH  12  14
ENDBRANCH  10  11
ENDBRANCH   1  10
TORSDOF 4
ENDMDL
MODEL 4
REMARK VINA RESULT:      -5.5      2.332      5.430
REMARK  4 active torsions:
REMARK  status: ('A' for Active; 'I' for Inactive)
REMARK    1  A    between atoms: C_17  and  C_4 
REMARK    2  A    between atoms: C_6  and  C_8 
REMARK       I    between atoms: C_8  and  N_16 
REMARK    3  A    between atoms: N_16  and  C_18 
REMARK    4  A    between atoms: C_18  and  C_17 
ROOT
ATOM      1  C   UNL d   1      48.745  35.800  53.300  0.00  0.00     0.042 C 
ENDROOT
BRANCH   1   2
ATOM      2  C   UNL d   1      47.947  35.977  53.160  0.00  0.00     0.103 A 
ATOM      3  N   UNL d   1      47.598  36.126  52.424  0.00  0.00    -0.221 NA
ATOM      4  C   UNL d   1      46.789  36.277  52.548  0.00  0.00     0.179 A 
ATOM      5  N   UNL d   1      46.642  36.220  53.362  0.00  0.00    -0.282 N 
ATOM      6  S   UNL d   1      46.080  36.461  52.172  0.00  0.00    -0.048 SA
ATOM      7  C   UNL d   1      47.360  36.034  53.736  0.00  0.00     0.101 A 
ATOM      8  C   UNL d   1      45.842  36.369  53.484  0.00  0.00     0.089 A 
ATOM      9  C   UNL d   1      45.493  36.518  52.752  0.00  0.00     0.057 A 
ENDBRANCH   1   2
BRANCH   1  10
ATOM     10  C   UNL d   1      49.102  35.175  52.892  0.00  0.00     0.104 C 
BRANCH  10  11
ATOM     11  N   UNL d   1      49.844  34.886  53.138  0.00  0.00    -0.206 NA
ATOM     12  C   UNL d   1      50.277  34.384  52.643  0.00  0.00     0.285 C 
ATOM     13  O   UNL d   1      49.973  34.169  51.905  0.00  0.00    -0.265 OA
BRANCH  12  14
ATOM     14  C   UNL d   1      51.012  34.098  52.886  0.00  0.00     0.087 A 
ATOM     15  S   UNL d   1      51.158  33.356  53.235  0.00  0.00    -0.082 SA
ATOM     16  C   UNL d   1      51.967  33.304  53.387  0.00  0.00     0.036 A 
ATOM     17  C   UNL d   1      52.316  34.017  53.130  0.00  0.00     0.008 A 
ATOM     18  C   UNL d   1      51.725  34.489  52.828  0.00  0.00     0.012 A 
ENDBRANCH  12  14
ENDBRANCH  10  11
ENDBRANCH   1  10
TORSDOF 4
ENDMDL
