MODEL 1
REMARK VINA RESULT:      -8.0      0.000      0.000
REMARK  2 active torsions:
REMARK  status: ('A' for Active; 'I' for Inactive)
REMARK       I    between atoms: N_3  and  C_1 
REMARK    1  A    between atoms: C_4  and  C_1 
REMARK    2  A    between atoms: C_10  and  N_3 
ROOT
ATOM      1  C   UNL d   1     -48.088  14.020  22.891  0.00  0.00     0.279 C 
ATOM      2  N   UNL d   1     -48.836  13.816  23.177  0.00  0.00    -0.208 NA
ATOM      3  O   UNL d   1     -47.980  14.732  22.483  0.00  0.00    -0.265 OA
ENDROOT
BRANCH   1   4
ATOM      4  C   UNL d   1     -47.454  13.507  23.016  0.00  0.00     0.059 A 
ATOM      5  C   UNL d   1     -47.597  12.745  23.288  0.00  0.00     0.013 A 
ATOM      6  C   UNL d   1     -46.977  12.226  23.417  0.00  0.00     0.049 A 
ATOM      7  S   UNL d   1     -46.953  11.439  23.684  0.00  0.00    -0.064 SA
ATOM      8  C   UNL d   1     -46.188  12.474  23.269  0.00  0.00     0.088 A 
ATOM      9  C   UNL d   1     -46.154  11.214  23.698  0.00  0.00     0.135 A 
ATOM     10  N   UNL d   1     -45.679  11.836  23.447  0.00  0.00    -0.236 NA
ATOM     11  C   UNL d   1     -46.031  13.242  22.994  0.00  0.00     0.020 A 
ATOM     12  C   UNL d   1     -46.665  13.754  22.869  0.00  0.00     0.006 A 
ENDBRANCH   1   4
BRANCH   2  13
ATOM     13  C   UNL d   1     -49.488  14.352  23.044  0.00  0.00     0.087 A 
ATOM     14  C   UNL d   1     -49.961  14.276  22.374  0.00  0.00     0.049 A 
ATOM     15  C   UNL d   1     -50.582  14.792  22.253  0.00  0.00     0.142 A 
ATOM     16  F   UNL d   1     -51.064  14.723  21.579  0.00  0.00    -0.204 F 
ATOM     17  C   UNL d   1     -50.733  15.384  22.797  0.00  0.00     0.030 A 
ATOM     18  C   UNL d   1     -50.263  15.462  23.467  0.00  0.00     0.004 A 
ATOM     19  C   UNL d   1     -49.632  14.940  23.593  0.00  0.00     0.019 A 
ENDBRANCH   2  13
TORSDOF 2
ENDMDL
MODEL 2
REMARK VINA RESULT:      -7.2      2.090      4.290
REMARK  2 active torsions:
REMARK  status: ('A' for Active; 'I' for Inactive)
REMARK       I    between atoms: N_3  and  C_1 
REMARK    1  A    between atoms: C_4  and  C_1 
REMARK    2  A    between atoms: C_10  and  N_3 
ROOT
ATOM      1  C   UNL d   1     -48.047  13.873  22.676  0.00  0.00     0.279 C 
ATOM      2  N   UNL d   1     -47.417  13.864  23.212  0.00  0.00    -0.208 NA
ATOM      3  O   UNL d   1     -48.059  13.342  22.042  0.00  0.00    -0.265 OA
ENDROOT
BRANCH   1   4
ATOM      4  C   UNL d   1     -48.659  14.415  22.782  0.00  0.00     0.059 A 
ATOM      5  C   UNL d   1     -49.332  14.191  23.198  0.00  0.00     0.013 A 
ATOM      6  C   UNL d   1     -49.947  14.720  23.310  0.00  0.00     0.049 A 
ATOM      7  S   UNL d   1     -50.678  14.651  23.698  0.00  0.00    -0.064 SA
ATOM      8  C   UNL d   1     -49.890  15.498  22.997  0.00  0.00     0.088 A 
ATOM      9  C   UNL d   1     -51.062  15.384  23.620  0.00  0.00     0.135 A 
ATOM     10  N   UNL d   1     -50.591  15.906  23.196  0.00  0.00    -0.236 NA
ATOM     11  C   UNL d   1     -49.216  15.736  22.576  0.00  0.00     0.020 A 
ATOM     12  C   UNL d   1     -48.603  15.193  22.470  0.00  0.00     0.006 A 
ENDBRANCH   1   4
BRANCH   2  13
ATOM     13  C   UNL d   1     -46.786  13.300  23.097  0.00  0.00     0.087 A 
ATOM     14  C   UNL d   1     -46.820  12.556  23.448  0.00  0.00     0.049 A 
ATOM     15  C   UNL d   1     -46.214  12.022  23.333  0.00  0.00     0.142 A 
ATOM     16  F   UNL d   1     -46.241  11.269  23.685  0.00  0.00    -0.204 F 
ATOM     17  C   UNL d   1     -45.573  12.226  22.869  0.00  0.00     0.030 A 
ATOM     18  C   UNL d   1     -45.535  12.968  22.516  0.00  0.00     0.004 A 
ATOM     19  C   UNL d   1     -46.149  13.513  22.630  0.00  0.00     0.019 A 
ENDBRANCH   2  13
TORSDOF 2
ENDMDL
MODEL 3
REMARK VINA RESULT:      -7.1      1.701      2.021
REMARK  2 active torsions:
REMARK  status: ('A' for Active; 'I' for Inactive)
REMARK       I    between atoms: N_3  and  C_1 
REMARK    1  A    between atoms: C_4  and  C_1 
REMARK    2  A    between atoms: C_10  and  N_3 
ROOT
ATOM      1  C   UNL d   1     -48.092  12.699  23.083  0.00  0.00     0.279 C 
ATOM      2  N   UNL d   1     -48.617  12.102  22.858  0.00  0.00    -0.208 NA
ATOM      3  O   UNL d   1     -48.381  13.423  23.361  0.00  0.00    -0.265 OA
ENDROOT
BRANCH   1   4
ATOM      4  C   UNL d   1     -47.280  12.565  23.026  0.00  0.00     0.059 A 
ATOM      5  C   UNL d   1     -46.824  13.040  22.535  0.00  0.00     0.013 A 
ATOM      6  C   UNL d   1     -46.017  12.917  22.470  0.00  0.00     0.049 A 
ATOM      7  S   UNL d   1     -45.428  13.300  22.026  0.00  0.00    -0.064 SA
ATOM      8  C   UNL d   1     -45.652  12.301  22.909  0.00  0.00     0.088 A 
ATOM      9  C   UNL d   1     -44.711  12.918  22.197  0.00  0.00     0.135 A 
ATOM     10  N   UNL d   1     -44.835  12.308  22.733  0.00  0.00    -0.236 NA
ATOM     11  C   UNL d   1     -46.102  11.815  23.409  0.00  0.00     0.020 A 
ATOM     12  C   UNL d   1     -46.915  11.949  23.465  0.00  0.00     0.006 A 
ENDBRANCH   1   4
BRANCH   2  13
ATOM     13  C   UNL d   1     -49.457  12.248  22.919  0.00  0.00     0.087 A 
ATOM     14  C   UNL d   1     -49.853  12.666  22.330  0.00  0.00     0.049 A 
ATOM     15  C   UNL d   1     -50.655  12.802  22.395  0.00  0.00     0.142 A 
ATOM     16  F   UNL d   1     -51.062  13.222  21.804  0.00  0.00    -0.204 F 
ATOM     17  C   UNL d   1     -51.064  12.523  23.046  0.00  0.00     0.030 A 
ATOM     18  C   UNL d   1     -50.673  12.106  23.636  0.00  0.00     0.004 A 
ATOM     19  C   UNL d   1     -49.859  11.966  23.573  0.00  0.00     0.019 A 
ENDBRANCH   2  13
TORSDOF 2
ENDMDL
MODEL 4
REMARK VINA RESULT:      -6.7      2.412      4.368
REMARK  2 active torsions:
REMARK  status: ('A' for Active; 'I' for Inactive)
REMARK       I    between atoms: N_3  and  C_1 
REMARK    1  A    between atoms: C_4  and  C_1 
REMARK    2  A    between atoms: C_10  and  N_3 
ROOT
ATOM      1  C   UNL d   1     -47.942  12.509  22.807  0.00  0.00     0.279 C 
ATOM      2  N   UNL d   1     -47.331  12.813  23.273  0.00  0.00    -0.208 NA
ATOM      3  O   UNL d   1     -47.767  12.094  22.113  0.00  0.00    -0.265 OA
ENDROOT
BRANCH   1   4
ATOM      4  C   UNL d   1     -48.724  12.624  23.042  0.00  0.00     0.059 A 
ATOM      5  C   UNL d   1     -49.068  13.366  22.958  0.00  0.00     0.013 A 
ATOM      6  C   UNL d   1     -49.844  13.493  23.187  0.00  0.00     0.049 A 
ATOM      7  S   UNL d   1     -50.327  14.168  23.170  0.00  0.00    -0.064 SA
ATOM      8  C   UNL d   1     -50.292  12.860  23.510  0.00  0.00     0.088 A 
ATOM      9  C   UNL d   1     -51.064  13.945  23.480  0.00  0.00     0.135 A 
ATOM     10  N   UNL d   1     -51.054  13.151  23.691  0.00  0.00    -0.236 NA
ATOM     11  C   UNL d   1     -49.956  12.107  23.600  0.00  0.00     0.020 A 
ATOM     12  C   UNL d   1     -49.173  11.992  23.365  0.00  0.00     0.006 A 
ENDBRANCH   1   4
BRANCH   2  13
ATOM     13  C   UNL d   1     -46.523  12.690  23.024  0.00  0.00     0.087 A 
ATOM     14  C   UNL d   1     -46.110  12.018  23.259  0.00  0.00     0.049 A 
ATOM     15  C   UNL d   1     -45.339  11.907  23.017  0.00  0.00     0.142 A 
ATOM     16  F   UNL d   1     -44.915  11.230  23.250  0.00  0.00    -0.204 F 
ATOM     17  C   UNL d   1     -44.976  12.464  22.541  0.00  0.00     0.030 A 
ATOM     18  C   UNL d   1     -45.385  13.137  22.304  0.00  0.00     0.004 A 
ATOM     19  C   UNL d   1     -46.168  13.253  22.548  0.00  0.00     0.019 A 
ENDBRANCH   2  13
TORSDOF 2
ENDMDL
MODEL 5
REMARK VINA RESULT:      -6.5      8.646     10.075
REMARK  2 active torsions:
REMARK  status: ('A' for Active; 'I' for Inactive)
REMARK       I    between atoms: N_3  and  C_1 
REMARK    1  A    between atoms: C_4  and  C_1 
REMARK    2  A    between atoms: C_10  and  N_3 
ROOT
ATOM      1  C   UNL d   1     -39.996  14.269  18.377  0.00  0.00     0.279 C 
ATOM      2  N   UNL d   1     -39.712  14.707  19.018  0.00  0.00    -0.208 NA
ATOM      3  O   UNL d   1     -40.796  14.061  18.338  0.00  0.00    -0.265 OA
ENDROOT
BRANCH   1   4
ATOM      4  C   UNL d   1     -39.474  14.043  17.779  0.00  0.00     0.059 A 
ATOM      5  C   UNL d   1     -39.318  14.561  17.160  0.00  0.00     0.013 A 
ATOM      6  C   UNL d   1     -38.802  14.349  16.561  0.00  0.00     0.049 A 
ATOM      7  S   UNL d   1     -38.543  14.749  15.880  0.00  0.00    -0.064 SA
ATOM      8  C   UNL d   1     -38.429  13.597  16.578  0.00  0.00     0.088 A 
ATOM      9  C   UNL d   1     -38.017  14.241  15.488  0.00  0.00     0.135 A 
ATOM     10  N   UNL d   1     -37.940  13.537  15.904  0.00  0.00    -0.236 NA
ATOM     11  C   UNL d   1     -38.578  13.065  17.198  0.00  0.00     0.020 A 
ATOM     12  C   UNL d   1     -39.101  13.291  17.796  0.00  0.00     0.006 A 
ENDBRANCH   1   4
BRANCH   2  13
ATOM     13  C   UNL d   1     -40.259  14.937  19.633  0.00  0.00     0.087 A 
ATOM     14  C   UNL d   1     -40.473  14.403  20.223  0.00  0.00     0.049 A 
ATOM     15  C   UNL d   1     -40.996  14.629  20.807  0.00  0.00     0.142 A 
ATOM     16  F   UNL d   1     -41.218  14.097  21.406  0.00  0.00    -0.204 F 
ATOM     17  C   UNL d   1     -41.306  15.386  20.807  0.00  0.00     0.030 A 
ATOM     18  C   UNL d   1     -41.093  15.922  20.220  0.00  0.00     0.004 A 
ATOM     19  C   UNL d   1     -40.563  15.696  19.625  0.00  0.00     0.019 A 
ENDBRANCH   2  13
TORSDOF 2
ENDMDL
MODEL 6
REMARK VINA RESULT:      -6.1      8.457      9.324
REMARK  2 active torsions:
REMARK  status: ('A' for Active; 'I' for Inactive)
REMARK       I    between atoms: N_3  and  C_1 
REMARK    1  A    between atoms: C_4  and  C_1 
REMARK    2  A    between atoms: C_10  and  N_3 
ROOT
ATOM      1  C   UNL d   1     -40.233  14.622  19.015  0.00  0.00     0.279 C 
ATOM      2  N   UNL d   1     -40.222  15.410  18.765  0.00  0.00    -0.208 NA
ATOM      3  O   UNL d   1     -40.402  14.018  18.475  0.00  0.00    -0.265 OA
ENDROOT
BRANCH   1   4
ATOM      4  C   UNL d   1     -40.073  14.447  19.804  0.00  0.00     0.059 A 
ATOM      5  C   UNL d   1     -39.316  14.211  20.023  0.00  0.00     0.013 A 
ATOM      6  C   UNL d   1     -39.145  14.034  20.803  0.00  0.00     0.049 A 
ATOM      7  S   UNL d   1     -38.446  13.787  21.179  0.00  0.00    -0.064 SA
ATOM      8  C   UNL d   1     -39.747  14.094  21.387  0.00  0.00     0.088 A 
ATOM      9  C   UNL d   1     -38.625  13.698  21.985  0.00  0.00     0.135 A 
ATOM     10  N   UNL d   1     -39.413  13.882  22.123  0.00  0.00    -0.236 NA
ATOM     11  C   UNL d   1     -40.514  14.331  21.179  0.00  0.00     0.020 A 
ATOM     12  C   UNL d   1     -40.674  14.506  20.388  0.00  0.00     0.006 A 
ENDBRANCH   1   4
BRANCH   2  13
ATOM     13  C   UNL d   1     -40.389  15.584  17.945  0.00  0.00     0.087 A 
ATOM     14  C   UNL d   1     -41.165  15.669  17.685  0.00  0.00     0.049 A 
ATOM     15  C   UNL d   1     -41.317  15.835  16.900  0.00  0.00     0.142 A 
ATOM     16  F   UNL d   1     -42.098  15.922  16.629  0.00  0.00    -0.204 F 
ATOM     17  C   UNL d   1     -40.697  15.916  16.373  0.00  0.00     0.030 A 
ATOM     18  C   UNL d   1     -39.920  15.832  16.629  0.00  0.00     0.004 A 
ATOM     19  C   UNL d   1     -39.762  15.664  17.425  0.00  0.00     0.019 A 
ENDBRANCH   2  13
TORSDOF 2
ENDMDL
MODEL 7
REMARK VINA RESULT:      -5.9      9.311      9.869
REMARK  2 active torsions:
REMARK  status: ('A' for Active; 'I' for Inactive)
REMARK       I    between atoms: N_3  and  C_1 
REMARK    1  A    between atoms: C_4  and  C_1 
REMARK    2  A    between atoms: C_10  and  N_3 
ROOT
ATOM      1  C   UNL d   1     -39.388  14.670  19.849  0.00  0.00     0.279 C 
ATOM      2  N   UNL d   1     -39.853  14.453  20.497  0.00  0.00    -0.208 NA
ATOM      3  O   UNL d   1     -38.596  14.884  19.961  0.00  0.00    -0.265 OA
ENDROOT
BRANCH   1   4
ATOM      4  C   UNL d   1     -39.721  14.671  19.095  0.00  0.00     0.059 A 
ATOM      5  C   UNL d   1     -40.137  15.331  18.837  0.00  0.00     0.013 A 
ATOM      6  C   UNL d   1     -40.473  15.345  18.090  0.00  0.00     0.049 A 
ATOM      7  S   UNL d   1     -40.916  15.922  17.687  0.00  0.00    -0.064 SA
ATOM      8  C   UNL d   1     -40.392  14.679  17.584  0.00  0.00     0.088 A 
ATOM      9  C   UNL d   1     -41.100  15.606  16.942  0.00  0.00     0.135 A 
ATOM     10  N   UNL d   1     -40.786  14.851  16.868  0.00  0.00    -0.236 NA
ATOM     11  C   UNL d   1     -39.973  14.007  17.834  0.00  0.00     0.020 A 
ATOM     12  C   UNL d   1     -39.640  14.007  18.588  0.00  0.00     0.006 A 
ENDBRANCH   1   4
BRANCH   2  13
ATOM     13  C   UNL d   1     -39.501  14.454  21.276  0.00  0.00     0.087 A 
ATOM     14  C   UNL d   1     -39.502  15.138  21.734  0.00  0.00     0.049 A 
ATOM     15  C   UNL d   1     -39.164  15.133  22.477  0.00  0.00     0.142 A 
ATOM     16  F   UNL d   1     -39.161  15.819  22.946  0.00  0.00    -0.204 F 
ATOM     17  C   UNL d   1     -38.824  14.447  22.765  0.00  0.00     0.030 A 
ATOM     18  C   UNL d   1     -38.821  13.762  22.310  0.00  0.00     0.004 A 
ATOM     19  C   UNL d   1     -39.163  13.764  21.556  0.00  0.00     0.019 A 
ENDBRANCH   2  13
TORSDOF 2
ENDMDL
MODEL 8
REMARK VINA RESULT:      -5.7      8.870     10.591
REMARK  2 active torsions:
REMARK  status: ('A' for Active; 'I' for Inactive)
REMARK       I    between atoms: N_3  and  C_1 
REMARK    1  A    between atoms: C_4  and  C_1 
REMARK    2  A    between atoms: C_10  and  N_3 
ROOT
ATOM      1  C   UNL d   1     -39.657  14.229  18.322  0.00  0.00     0.279 C 
ATOM      2  N   UNL d   1     -38.904  14.405  18.029  0.00  0.00    -0.208 NA
ATOM      3  O   UNL d   1     -40.096  13.609  17.994  0.00  0.00    -0.265 OA
ENDROOT
BRANCH   1   4
ATOM      4  C   UNL d   1     -39.964  14.678  18.943  0.00  0.00     0.059 A 
ATOM      5  C   UNL d   1     -39.722  14.524  19.713  0.00  0.00     0.013 A 
ATOM      6  C   UNL d   1     -40.019  14.962  20.338  0.00  0.00     0.049 A 
ATOM      7  S   UNL d   1     -39.880  14.932  21.156  0.00  0.00    -0.064 SA
ATOM      8  C   UNL d   1     -40.574  15.575  20.191  0.00  0.00     0.088 A 
ATOM      9  C   UNL d   1     -40.349  15.524  21.502  0.00  0.00     0.135 A 
ATOM     10  N   UNL d   1     -40.775  15.921  20.924  0.00  0.00    -0.236 NA
ATOM     11  C   UNL d   1     -40.826  15.741  19.417  0.00  0.00     0.020 A 
ATOM     12  C   UNL d   1     -40.519  15.291  18.797  0.00  0.00     0.006 A 
ENDBRANCH   1   4
BRANCH   2  13
ATOM     13  C   UNL d   1     -38.593  13.935  17.386  0.00  0.00     0.087 A 
ATOM     14  C   UNL d   1     -38.643  14.205  16.610  0.00  0.00     0.049 A 
ATOM     15  C   UNL d   1     -38.344  13.751  16.001  0.00  0.00     0.142 A 
ATOM     16  F   UNL d   1     -38.390  14.016  15.214  0.00  0.00    -0.204 F 
ATOM     17  C   UNL d   1     -37.995  13.029  16.163  0.00  0.00     0.030 A 
ATOM     18  C   UNL d   1     -37.944  12.757  16.937  0.00  0.00     0.004 A 
ATOM     19  C   UNL d   1     -38.247  13.215  17.558  0.00  0.00     0.019 A 
ENDBRANCH   2  13
TORSDOF 2
ENDMDL
