MODEL 1
REMARK VINA RESULT:      -3.3      0.000      0.000
REMARK  5 active torsions:
REMARK  status: ('A' for Active; 'I' for Inactive)
REMARK    1  A    between atoms: C_2  and  C_1 
REMARK       I    between atoms: N_3  and  C_1 
REMARK       I    between atoms: N_4  and  C_2 
REMARK    2  A    between atoms: C_5  and  N_3 
REMARK    3  A    between atoms: C_10  and  N_4 
REMARK    4  A    between atoms: C_12  and  C_10 
REMARK    5  A    between atoms: O_13  and  C_11 
ROOT
ATOM      1  C   UNL d   1      32.722  20.842 -21.449  0.00  0.00     0.337 C 
ATOM      2  N   UNL d   1      33.229  21.482 -21.484  0.00  0.00    -0.204 NA
ATOM      3  O   UNL d   1      31.962  20.938 -21.142  0.00  0.00    -0.260 OA
ENDROOT
BRANCH   1   4
ATOM      4  C   UNL d   1      32.967  20.102 -21.720  0.00  0.00     0.337 C 
ATOM      5  N   UNL d   1      32.942  19.928 -22.522  0.00  0.00    -0.202 NA
ATOM      6  O   UNL d   1      33.237  19.536 -21.184  0.00  0.00    -0.260 OA
BRANCH   5   7
ATOM      7  C   UNL d   1      33.186  19.193 -22.790  0.00  0.00     0.102 C 
BRANCH   7   8
ATOM      8  C   UNL d   1      32.984  18.943 -23.551  0.00  0.00     0.022 A 
ATOM      9  C   UNL d   1      33.176  19.411 -24.194  0.00  0.00     0.022 A 
ATOM     10  C   UNL d   1      32.974  19.162 -24.955  0.00  0.00     0.099 A 
ATOM     11  N   UNL d   1      32.582  18.445 -25.063  0.00  0.00    -0.242 NA
ATOM     12  C   UNL d   1      32.390  17.976 -24.411  0.00  0.00     0.099 A 
ATOM     13  C   UNL d   1      32.592  18.227 -23.660  0.00  0.00     0.022 A 
ENDBRANCH   7   8
ENDBRANCH   5   7
ENDBRANCH   1   4
BRANCH   2  14
ATOM     14  C   UNL d   1      32.984  22.222 -21.214  0.00  0.00     0.087 A 
ATOM     15  C   UNL d   1      33.213  22.485 -20.465  0.00  0.00     0.043 A 
ATOM     16  C   UNL d   1      32.969  23.224 -20.195  0.00  0.00     0.096 A 
ATOM     17  C   UNL d   1      32.494  23.702 -20.673  0.00  0.00     0.024 A 
ATOM     18  C   UNL d   1      32.265  23.439 -21.422  0.00  0.00     0.004 A 
ATOM     19  C   UNL d   1      32.510  22.700 -21.692  0.00  0.00     0.019 A 
BRANCH  16  20
ATOM     20  O   UNL d   1      33.193  23.498 -19.443  0.00  0.00    -0.328 OA
ATOM     21  C   UNL d   1      32.606  23.702 -18.888  0.00  0.00     0.181 C 
ENDBRANCH  16  20
ENDBRANCH   2  14
TORSDOF 5
ENDMDL
MODEL 2
REMARK VINA RESULT:      -3.0      2.900      5.855
REMARK  5 active torsions:
REMARK  status: ('A' for Active; 'I' for Inactive)
REMARK    1  A    between atoms: C_2  and  C_1 
REMARK       I    between atoms: N_3  and  C_1 
REMARK       I    between atoms: N_4  and  C_2 
REMARK    2  A    between atoms: C_5  and  N_3 
REMARK    3  A    between atoms: C_10  and  N_4 
REMARK    4  A    between atoms: C_12  and  C_10 
REMARK    5  A    between atoms: O_13  and  C_11 
ROOT
ATOM      1  C   UNL d   1      31.796  17.303 -24.059  0.00  0.00     0.337 C 
ATOM      2  N   UNL d   1      31.184  17.520 -24.556  0.00  0.00    -0.204 NA
ATOM      3  O   UNL d   1      31.741  16.605 -23.622  0.00  0.00    -0.260 OA
ENDROOT
BRANCH   1   4
ATOM      4  C   UNL d   1      32.466  17.779 -23.994  0.00  0.00     0.337 C 
ATOM      5  N   UNL d   1      32.501  18.365 -23.419  0.00  0.00    -0.202 NA
ATOM      6  O   UNL d   1      33.103  17.667 -24.506  0.00  0.00    -0.260 OA
BRANCH   5   7
ATOM      7  C   UNL d   1      33.168  18.838 -23.354  0.00  0.00     0.102 C 
BRANCH   7   8
ATOM      8  C   UNL d   1      33.192  19.442 -22.791  0.00  0.00     0.022 A 
ATOM      9  C   UNL d   1      33.205  19.253 -21.996  0.00  0.00     0.022 A 
ATOM     10  C   UNL d   1      33.230  19.856 -21.434  0.00  0.00     0.099 A 
ATOM     11  N   UNL d   1      33.241  20.644 -21.675  0.00  0.00    -0.242 NA
ATOM     12  C   UNL d   1      33.227  20.830 -22.479  0.00  0.00     0.099 A 
ATOM     13  C   UNL d   1      33.203  20.229 -23.032  0.00  0.00     0.022 A 
ENDBRANCH   7   8
ENDBRANCH   5   7
ENDBRANCH   1   4
BRANCH   2  14
ATOM     14  C   UNL d   1      30.513  17.043 -24.622  0.00  0.00     0.087 A 
ATOM     15  C   UNL d   1      29.801  17.283 -24.278  0.00  0.00     0.043 A 
ATOM     16  C   UNL d   1      29.132  16.807 -24.343  0.00  0.00     0.096 A 
ATOM     17  C   UNL d   1      29.172  16.091 -24.753  0.00  0.00     0.024 A 
ATOM     18  C   UNL d   1      29.883  15.852 -25.097  0.00  0.00     0.004 A 
ATOM     19  C   UNL d   1      30.553  16.328 -25.031  0.00  0.00     0.019 A 
BRANCH  16  20
ATOM     20  O   UNL d   1      28.410  17.038 -24.001  0.00  0.00    -0.328 OA
ATOM     21  C   UNL d   1      28.142  16.655 -23.311  0.00  0.00     0.181 C 
ENDBRANCH  16  20
ENDBRANCH   2  14
TORSDOF 5
ENDMDL
MODEL 3
REMARK VINA RESULT:      -2.2      1.150      1.630
REMARK  5 active torsions:
REMARK  status: ('A' for Active; 'I' for Inactive)
REMARK    1  A    between atoms: C_2  and  C_1 
REMARK       I    between atoms: N_3  and  C_1 
REMARK       I    between atoms: N_4  and  C_2 
REMARK    2  A    between atoms: C_5  and  N_3 
REMARK    3  A    between atoms: C_10  and  N_4 
REMARK    4  A    between atoms: C_12  and  C_10 
REMARK    5  A    between atoms: O_13  and  C_11 
ROOT
ATOM      1  C   UNL d   1      32.671  20.298 -21.912  0.00  0.00     0.337 C 
ATOM      2  N   UNL d   1      33.236  20.888 -21.893  0.00  0.00    -0.204 NA
ATOM      3  O   UNL d   1      31.879  20.484 -21.775  0.00  0.00    -0.260 OA
ENDROOT
BRANCH   1   4
ATOM      4  C   UNL d   1      32.890  19.518 -22.068  0.00  0.00     0.337 C 
ATOM      5  N   UNL d   1      32.761  19.194 -22.812  0.00  0.00    -0.202 NA
ATOM      6  O   UNL d   1      33.239  19.062 -21.476  0.00  0.00    -0.260 OA
BRANCH   5   7
ATOM      7  C   UNL d   1      32.978  18.419 -22.966  0.00  0.00     0.102 C 
BRANCH   7   8
ATOM      8  C   UNL d   1      32.762  18.064 -23.680  0.00  0.00     0.022 A 
ATOM      9  C   UNL d   1      33.165  18.255 -24.364  0.00  0.00     0.022 A 
ATOM     10  C   UNL d   1      32.949  17.900 -25.078  0.00  0.00     0.099 A 
ATOM     11  N   UNL d   1      32.329  17.357 -25.097  0.00  0.00    -0.242 NA
ATOM     12  C   UNL d   1      31.925  17.168 -24.403  0.00  0.00     0.099 A 
ATOM     13  C   UNL d   1      32.142  17.521 -23.699  0.00  0.00     0.022 A 
ENDBRANCH   7   8
ENDBRANCH   5   7
ENDBRANCH   1   4
BRANCH   2  14
ATOM     14  C   UNL d   1      33.018  21.668 -21.738  0.00  0.00     0.087 A 
ATOM     15  C   UNL d   1      32.787  22.164 -22.356  0.00  0.00     0.043 A 
ATOM     16  C   UNL d   1      32.568  22.943 -22.201  0.00  0.00     0.096 A 
ATOM     17  C   UNL d   1      32.580  23.229 -21.426  0.00  0.00     0.024 A 
ATOM     18  C   UNL d   1      32.811  22.733 -20.807  0.00  0.00     0.004 A 
ATOM     19  C   UNL d   1      33.030  21.954 -20.963  0.00  0.00     0.019 A 
BRANCH  16  20
ATOM     20  O   UNL d   1      32.334  23.451 -22.816  0.00  0.00    -0.328 OA
ATOM     21  C   UNL d   1      32.819  23.532 -23.489  0.00  0.00     0.181 C 
ENDBRANCH  16  20
ENDBRANCH   2  14
TORSDOF 5
ENDMDL
MODEL 4
REMARK VINA RESULT:      -2.2      2.364      3.627
REMARK  5 active torsions:
REMARK  status: ('A' for Active; 'I' for Inactive)
REMARK    1  A    between atoms: C_2  and  C_1 
REMARK       I    between atoms: N_3  and  C_1 
REMARK       I    between atoms: N_4  and  C_2 
REMARK    2  A    between atoms: C_5  and  N_3 
REMARK    3  A    between atoms: C_10  and  N_4 
REMARK    4  A    between atoms: C_12  and  C_10 
REMARK    5  A    between atoms: O_13  and  C_11 
ROOT
ATOM      1  C   UNL d   1      32.191  18.255 -23.303  0.00  0.00     0.337 C 
ATOM      2  N   UNL d   1      32.905  18.535 -23.019  0.00  0.00    -0.204 NA
ATOM      3  O   UNL d   1      31.556  18.773 -23.399  0.00  0.00    -0.260 OA
ENDROOT
BRANCH   1   4
ATOM      4  C   UNL d   1      32.104  17.457 -23.495  0.00  0.00     0.337 C 
ATOM      5  N   UNL d   1      31.380  17.174 -23.760  0.00  0.00    -0.202 NA
ATOM      6  O   UNL d   1      32.745  16.943 -23.420  0.00  0.00    -0.260 OA
BRANCH   5   7
ATOM      7  C   UNL d   1      31.294  16.381 -23.950  0.00  0.00     0.102 C 
BRANCH   7   8
ATOM      8  C   UNL d   1      30.542  16.071 -24.094  0.00  0.00     0.022 A 
ATOM      9  C   UNL d   1      30.301  15.935 -24.862  0.00  0.00     0.022 A 
ATOM     10  C   UNL d   1      29.549  15.624 -25.005  0.00  0.00     0.099 A 
ATOM     11  N   UNL d   1      29.047  15.453 -24.375  0.00  0.00    -0.242 NA
ATOM     12  C   UNL d   1      29.295  15.592 -23.600  0.00  0.00     0.099 A 
ATOM     13  C   UNL d   1      30.040  15.900 -23.463  0.00  0.00     0.022 A 
ENDBRANCH   7   8
ENDBRANCH   5   7
ENDBRANCH   1   4
BRANCH   2  14
ATOM     14  C   UNL d   1      32.992  19.332 -22.828  0.00  0.00     0.087 A 
ATOM     15  C   UNL d   1      32.917  19.579 -22.043  0.00  0.00     0.043 A 
ATOM     16  C   UNL d   1      33.005  20.376 -21.852  0.00  0.00     0.096 A 
ATOM     17  C   UNL d   1      33.166  20.928 -22.445  0.00  0.00     0.024 A 
ATOM     18  C   UNL d   1      33.241  20.681 -23.229  0.00  0.00     0.004 A 
ATOM     19  C   UNL d   1      33.154  19.884 -23.420  0.00  0.00     0.019 A 
BRANCH  16  20
ATOM     20  O   UNL d   1      32.932  20.636 -21.066  0.00  0.00    -0.328 OA
ATOM     21  C   UNL d   1      32.437  21.283 -20.891  0.00  0.00     0.181 C 
ENDBRANCH  16  20
ENDBRANCH   2  14
TORSDOF 5
ENDMDL
MODEL 5
REMARK VINA RESULT:      -0.8      1.585      5.358
REMARK  5 active torsions:
REMARK  status: ('A' for Active; 'I' for Inactive)
REMARK    1  A    between atoms: C_2  and  C_1 
REMARK       I    between atoms: N_3  and  C_1 
REMARK       I    between atoms: N_4  and  C_2 
REMARK    2  A    between atoms: C_5  and  N_3 
REMARK    3  A    between atoms: C_10  and  N_4 
REMARK    4  A    between atoms: C_12  and  C_10 
REMARK    5  A    between atoms: O_13  and  C_11 
ROOT
ATOM      1  C   UNL d   1      32.820  19.148 -22.863  0.00  0.00     0.337 C 
ATOM      2  N   UNL d   1      32.814  18.331 -22.893  0.00  0.00    -0.204 NA
ATOM      3  O   UNL d   1      32.667  19.584 -23.547  0.00  0.00    -0.260 OA
ENDROOT
BRANCH   1   4
ATOM      4  C   UNL d   1      32.977  19.537 -22.153  0.00  0.00     0.337 C 
ATOM      5  N   UNL d   1      32.872  20.349 -22.096  0.00  0.00    -0.202 NA
ATOM      6  O   UNL d   1      33.241  19.109 -21.498  0.00  0.00    -0.260 OA
BRANCH   5   7
ATOM      7  C   UNL d   1      33.029  20.736 -21.390  0.00  0.00     0.102 C 
BRANCH   7   8
ATOM      8  C   UNL d   1      32.846  21.537 -21.309  0.00  0.00     0.022 A 
ATOM      9  C   UNL d   1      32.285  21.770 -20.762  0.00  0.00     0.022 A 
ATOM     10  C   UNL d   1      32.103  22.571 -20.680  0.00  0.00     0.099 A 
ATOM     11  N   UNL d   1      32.485  23.131 -21.149  0.00  0.00    -0.242 NA
ATOM     12  C   UNL d   1      33.051  22.891 -21.701  0.00  0.00     0.099 A 
ATOM     13  C   UNL d   1      33.228  22.097 -21.778  0.00  0.00     0.022 A 
ENDBRANCH   7   8
ENDBRANCH   5   7
ENDBRANCH   1   4
BRANCH   2  14
ATOM     14  C   UNL d   1      32.657  17.942 -23.603  0.00  0.00     0.087 A 
ATOM     15  C   UNL d   1      31.916  17.601 -23.732  0.00  0.00     0.043 A 
ATOM     16  C   UNL d   1      31.759  17.213 -24.441  0.00  0.00     0.096 A 
ATOM     17  C   UNL d   1      32.342  17.164 -25.023  0.00  0.00     0.024 A 
ATOM     18  C   UNL d   1      33.083  17.504 -24.894  0.00  0.00     0.004 A 
ATOM     19  C   UNL d   1      33.240  17.893 -24.185  0.00  0.00     0.019 A 
BRANCH  16  20
ATOM     20  O   UNL d   1      31.016  16.866 -24.581  0.00  0.00    -0.328 OA
ATOM     21  C   UNL d   1      30.925  16.042 -24.498  0.00  0.00     0.181 C 
ENDBRANCH  16  20
ENDBRANCH   2  14
TORSDOF 5
ENDMDL
MODEL 6
REMARK VINA RESULT:      -0.3      3.093      4.740
REMARK  5 active torsions:
REMARK  status: ('A' for Active; 'I' for Inactive)
REMARK    1  A    between atoms: C_2  and  C_1 
REMARK       I    between atoms: N_3  and  C_1 
REMARK       I    between atoms: N_4  and  C_2 
REMARK    2  A    between atoms: C_5  and  N_3 
REMARK    3  A    between atoms: C_10  and  N_4 
REMARK    4  A    between atoms: C_12  and  C_10 
REMARK    5  A    between atoms: O_13  and  C_11 
ROOT
ATOM      1  C   UNL d   1      31.334  17.674 -23.583  0.00  0.00     0.337 C 
ATOM      2  N   UNL d   1      32.140  17.802 -23.545  0.00  0.00    -0.204 NA
ATOM      3  O   UNL d   1      30.827  18.299 -23.767  0.00  0.00    -0.260 OA
ENDROOT
BRANCH   1   4
ATOM      4  C   UNL d   1      31.025  16.922 -23.439  0.00  0.00     0.337 C 
ATOM      5  N   UNL d   1      30.324  16.689 -23.798  0.00  0.00    -0.202 NA
ATOM      6  O   UNL d   1      31.420  16.405 -22.932  0.00  0.00    -0.260 OA
BRANCH   5   7
ATOM      7  C   UNL d   1      30.017  15.942 -23.654  0.00  0.00     0.102 C 
BRANCH   7   8
ATOM      8  C   UNL d   1      29.228  15.778 -23.834  0.00  0.00     0.022 A 
ATOM      9  C   UNL d   1      28.985  15.774 -24.614  0.00  0.00     0.022 A 
ATOM     10  C   UNL d   1      28.196  15.610 -24.794  0.00  0.00     0.099 A 
ATOM     11  N   UNL d   1      27.659  15.453 -24.189  0.00  0.00    -0.242 NA
ATOM     12  C   UNL d   1      27.910  15.458 -23.402  0.00  0.00     0.099 A 
ATOM     13  C   UNL d   1      28.692  15.621 -23.229  0.00  0.00     0.022 A 
ENDBRANCH   7   8
ENDBRANCH   5   7
ENDBRANCH   1   4
BRANCH   2  14
ATOM     14  C   UNL d   1      32.449  18.553 -23.689  0.00  0.00     0.087 A 
ATOM     15  C   UNL d   1      32.688  19.030 -23.059  0.00  0.00     0.043 A 
ATOM     16  C   UNL d   1      32.997  19.780 -23.203  0.00  0.00     0.096 A 
ATOM     17  C   UNL d   1      33.067  20.056 -23.978  0.00  0.00     0.024 A 
ATOM     18  C   UNL d   1      32.827  19.579 -24.609  0.00  0.00     0.004 A 
ATOM     19  C   UNL d   1      32.519  18.829 -24.464  0.00  0.00     0.019 A 
BRANCH  16  20
ATOM     20  O   UNL d   1      33.241  20.268 -22.576  0.00  0.00    -0.328 OA
ATOM     21  C   UNL d   1      32.857  20.212 -21.839  0.00  0.00     0.181 C 
ENDBRANCH  16  20
ENDBRANCH   2  14
TORSDOF 5
ENDMDL
