MODEL 1
REMARK VINA RESULT:      -4.5      0.000      0.000
REMARK  8 active torsions:
REMARK  status: ('A' for Active; 'I' for Inactive)
REMARK    1  A    between atoms: C_4  and  C_1 
REMARK    2  A    between atoms: C_2  and  C_15 
REMARK    3  A    between atoms: C_3  and  C_2 
REMARK    4  A    between atoms: C_16  and  C_4 
REMARK    5  A    between atoms: O_14  and  C_9 
REMARK    6  A    between atoms: S_13  and  C_16 
REMARK    7  A    between atoms: C_15  and  S_13 
REMARK    8  A    between atoms: C_17  and  O_14 
ROOT
ATOM      1  C   UNL d   1     -41.610-122.697 -50.444  0.00  0.00     0.040 A 
ATOM      2  C   UNL d   1     -41.123-123.251 -50.078  0.00  0.00     0.005 A 
ATOM      3  C   UNL d   1     -42.324-122.473 -50.084  0.00  0.00     0.005 A 
ATOM      4  C   UNL d   1     -42.055-123.361 -48.997  0.00  0.00     0.100 A 
ATOM      5  C   UNL d   1     -41.341-123.585 -49.357  0.00  0.00     0.025 A 
ATOM      6  C   UNL d   1     -42.542-122.806 -49.364  0.00  0.00     0.025 A 
ENDROOT
BRANCH   1   7
ATOM      7  C   UNL d   1     -41.378-122.369 -51.172  0.00  0.00     0.202 C 
ATOM      8  O   UNL d   1     -41.123-121.588 -51.221  0.00  0.00    -0.286 OA
BRANCH   7   9
ATOM      9  C   UNL d   1     -41.404-122.840 -51.863  0.00  0.00     0.077 C 
BRANCH   9  10
ATOM     10  S   UNL d   1     -41.174-122.508 -52.603  0.00  0.00    -0.082 SA
BRANCH  10  11
ATOM     11  C   UNL d   1     -41.546-122.753 -53.296  0.00  0.00     0.042 C 
BRANCH  11  12
ATOM     12  C   UNL d   1     -41.157-122.681 -54.017  0.00  0.00     0.077 C 
BRANCH  12  13
ATOM     13  C   UNL d   1     -41.589-122.583 -54.715  0.00  0.00     0.211 C 
ATOM     14  O   UNL d   1     -42.302-122.990 -54.813  0.00  0.00    -0.644 OA
ATOM     15  O   UNL d   1     -41.312-122.084 -55.308  0.00  0.00    -0.644 OA
ENDBRANCH  12  13
ENDBRANCH  11  12
ENDBRANCH  10  11
ENDBRANCH   9  10
ENDBRANCH   7   9
ENDBRANCH   1   7
BRANCH   4  16
ATOM     16  O   UNL d   1     -42.283-123.700 -48.257  0.00  0.00    -0.305 OA
BRANCH  16  17
ATOM     17  C   UNL d   1     -42.312-123.226 -47.583  0.00  0.00     0.123 C 
ATOM     18  C   UNL d   1     -42.385-123.574 -46.839  0.00  0.00     0.029 C 
ENDBRANCH  16  17
ENDBRANCH   4  16
TORSDOF 8
ENDMDL
MODEL 2
REMARK VINA RESULT:      -3.6      1.151      5.125
REMARK  8 active torsions:
REMARK  status: ('A' for Active; 'I' for Inactive)
REMARK    1  A    between atoms: C_4  and  C_1 
REMARK    2  A    between atoms: C_2  and  C_15 
REMARK    3  A    between atoms: C_3  and  C_2 
REMARK    4  A    between atoms: C_16  and  C_4 
REMARK    5  A    between atoms: O_14  and  C_9 
REMARK    6  A    between atoms: S_13  and  C_16 
REMARK    7  A    between atoms: C_15  and  S_13 
REMARK    8  A    between atoms: C_17  and  O_14 
ROOT
ATOM      1  C   UNL d   1     -41.434-122.743 -52.470  0.00  0.00     0.040 A 
ATOM      2  C   UNL d   1     -41.295-123.242 -53.110  0.00  0.00     0.005 A 
ATOM      3  C   UNL d   1     -41.615-121.944 -52.601  0.00  0.00     0.005 A 
ATOM      4  C   UNL d   1     -41.516-122.152 -54.011  0.00  0.00     0.100 A 
ATOM      5  C   UNL d   1     -41.335-122.952 -53.880  0.00  0.00     0.025 A 
ATOM      6  C   UNL d   1     -41.655-121.653 -53.370  0.00  0.00     0.025 A 
ENDROOT
BRANCH   1   7
ATOM      7  C   UNL d   1     -41.390-123.051 -51.698  0.00  0.00     0.202 C 
ATOM      8  O   UNL d   1     -41.123-123.817 -51.563  0.00  0.00    -0.286 OA
BRANCH   7   9
ATOM      9  C   UNL d   1     -41.621-122.573 -51.051  0.00  0.00     0.077 C 
BRANCH   9  10
ATOM     10  S   UNL d   1     -41.661-122.908 -50.279  0.00  0.00    -0.082 SA
BRANCH  10  11
ATOM     11  C   UNL d   1     -42.264-122.683 -49.765  0.00  0.00     0.042 C 
BRANCH  11  12
ATOM     12  C   UNL d   1     -42.157-122.753 -48.952  0.00  0.00     0.077 C 
BRANCH  12  13
ATOM     13  C   UNL d   1     -42.793-122.956 -48.465  0.00  0.00     0.211 C 
ATOM     14  O   UNL d   1     -43.112-123.717 -48.507  0.00  0.00    -0.644 OA
ATOM     15  O   UNL d   1     -43.107-122.404 -47.942  0.00  0.00    -0.644 OA
ENDBRANCH  12  13
ENDBRANCH  11  12
ENDBRANCH  10  11
ENDBRANCH   9  10
ENDBRANCH   7   9
ENDBRANCH   1   7
BRANCH   4  16
ATOM     16  O   UNL d   1     -41.559-121.848 -54.798  0.00  0.00    -0.305 OA
BRANCH  16  17
ATOM     17  C   UNL d   1     -42.227-121.997 -55.258  0.00  0.00     0.123 C 
ATOM     18  C   UNL d   1     -42.273-121.700 -56.026  0.00  0.00     0.029 C 
ENDBRANCH  16  17
ENDBRANCH   4  16
TORSDOF 8
ENDMDL
MODEL 3
REMARK VINA RESULT:      -2.0      1.185      1.708
REMARK  8 active torsions:
REMARK  status: ('A' for Active; 'I' for Inactive)
REMARK    1  A    between atoms: C_4  and  C_1 
REMARK    2  A    between atoms: C_2  and  C_15 
REMARK    3  A    between atoms: C_3  and  C_2 
REMARK    4  A    between atoms: C_16  and  C_4 
REMARK    5  A    between atoms: O_14  and  C_9 
REMARK    6  A    between atoms: S_13  and  C_16 
REMARK    7  A    between atoms: C_15  and  S_13 
REMARK    8  A    between atoms: C_17  and  O_14 
ROOT
ATOM      1  C   UNL d   1     -41.595-122.723 -51.855  0.00  0.00     0.040 A 
ATOM      2  C   UNL d   1     -42.240-123.090 -51.498  0.00  0.00     0.005 A 
ATOM      3  C   UNL d   1     -41.123-122.199 -51.417  0.00  0.00     0.005 A 
ATOM      4  C   UNL d   1     -41.946-122.417 -50.270  0.00  0.00     0.100 A 
ATOM      5  C   UNL d   1     -42.418-122.940 -50.708  0.00  0.00     0.025 A 
ATOM      6  C   UNL d   1     -41.301-122.049 -50.627  0.00  0.00     0.025 A 
ENDROOT
BRANCH   1   7
ATOM      7  C   UNL d   1     -41.426-122.883 -52.654  0.00  0.00     0.202 C 
ATOM      8  O   UNL d   1     -41.157-123.625 -52.888  0.00  0.00    -0.286 OA
BRANCH   7   9
ATOM      9  C   UNL d   1     -41.532-122.282 -53.226  0.00  0.00     0.077 C 
BRANCH   9  10
ATOM     10  S   UNL d   1     -41.437-122.463 -54.044  0.00  0.00    -0.082 SA
BRANCH  10  11
ATOM     11  C   UNL d   1     -41.593-121.887 -54.612  0.00  0.00     0.042 C 
BRANCH  11  12
ATOM     12  C   UNL d   1     -42.297-121.913 -55.038  0.00  0.00     0.077 C 
BRANCH  12  13
ATOM     13  C   UNL d   1     -42.282-122.000 -55.860  0.00  0.00     0.211 C 
ATOM     14  O   UNL d   1     -42.874-122.439 -56.234  0.00  0.00    -0.644 OA
ATOM     15  O   UNL d   1     -41.682-121.652 -56.303  0.00  0.00    -0.644 OA
ENDBRANCH  12  13
ENDBRANCH  11  12
ENDBRANCH  10  11
ENDBRANCH   9  10
ENDBRANCH   7   9
ENDBRANCH   1   7
BRANCH   4  16
ATOM     16  O   UNL d   1     -42.125-122.259 -49.459  0.00  0.00    -0.305 OA
BRANCH  16  17
ATOM     17  C   UNL d   1     -42.676-122.728 -49.063  0.00  0.00     0.123 C 
ATOM     18  C   UNL d   1     -42.762-122.661 -48.246  0.00  0.00     0.029 C 
ENDBRANCH  16  17
ENDBRANCH   4  16
TORSDOF 8
ENDMDL
MODEL 4
REMARK VINA RESULT:      -1.6      1.249      5.123
REMARK  8 active torsions:
REMARK  status: ('A' for Active; 'I' for Inactive)
REMARK    1  A    between atoms: C_4  and  C_1 
REMARK    2  A    between atoms: C_2  and  C_15 
REMARK    3  A    between atoms: C_3  and  C_2 
REMARK    4  A    between atoms: C_16  and  C_4 
REMARK    5  A    between atoms: O_14  and  C_9 
REMARK    6  A    between atoms: S_13  and  C_16 
REMARK    7  A    between atoms: C_15  and  S_13 
REMARK    8  A    between atoms: C_17  and  O_14 
ROOT
ATOM      1  C   UNL d   1     -41.478-122.610 -51.718  0.00  0.00     0.040 A 
ATOM      2  C   UNL d   1     -41.664-121.816 -51.831  0.00  0.00     0.005 A 
ATOM      3  C   UNL d   1     -41.340-123.099 -52.375  0.00  0.00     0.005 A 
ATOM      4  C   UNL d   1     -41.577-121.994 -53.249  0.00  0.00     0.100 A 
ATOM      5  C   UNL d   1     -41.715-121.505 -52.592  0.00  0.00     0.025 A 
ATOM      6  C   UNL d   1     -41.390-122.789 -53.135  0.00  0.00     0.025 A 
ENDROOT
BRANCH   1   7
ATOM      7  C   UNL d   1     -41.430-122.911 -50.944  0.00  0.00     0.202 C 
ATOM      8  O   UNL d   1     -41.181-123.683 -50.805  0.00  0.00    -0.286 OA
BRANCH   7   9
ATOM      9  C   UNL d   1     -41.638-122.420 -50.299  0.00  0.00     0.077 C 
BRANCH   9  10
ATOM     10  S   UNL d   1     -41.597-122.724 -49.514  0.00  0.00    -0.082 SA
BRANCH  10  11
ATOM     11  C   UNL d   1     -42.269-122.726 -49.038  0.00  0.00     0.042 C 
BRANCH  11  12
ATOM     12  C   UNL d   1     -42.309-123.227 -48.387  0.00  0.00     0.077 C 
BRANCH  12  13
ATOM     13  C   UNL d   1     -42.218-122.925 -47.623  0.00  0.00     0.211 C 
ATOM     14  O   UNL d   1     -42.741-122.346 -47.349  0.00  0.00    -0.644 OA
ATOM     15  O   UNL d   1     -41.611-123.197 -47.139  0.00  0.00    -0.644 OA
ENDBRANCH  12  13
ENDBRANCH  11  12
ENDBRANCH  10  11
ENDBRANCH   9  10
ENDBRANCH   7   9
ENDBRANCH   1   7
BRANCH   4  16
ATOM     16  O   UNL d   1     -41.627-121.680 -54.032  0.00  0.00    -0.305 OA
BRANCH  16  17
ATOM     17  C   UNL d   1     -41.991-122.122 -54.626  0.00  0.00     0.123 C 
ATOM     18  C   UNL d   1     -42.310-121.741 -55.285  0.00  0.00     0.029 C 
ENDBRANCH  16  17
ENDBRANCH   4  16
TORSDOF 8
ENDMDL
