MODEL 1
REMARK VINA RESULT:      -1.4      0.000      0.000
REMARK  5 active torsions:
REMARK  status: ('A' for Active; 'I' for Inactive)
REMARK    1  A    between atoms: N_3  and  C_1 
REMARK    2  A    between atoms: C_12  and  N_2 
REMARK       I    between atoms: C_6  and  N_3 
REMARK    3  A    between atoms: C_8  and  C_6 
REMARK    4  A    between atoms: C_16  and  C_12 
REMARK    5  A    between atoms: O_22  and  C_16 
ROOT
ATOM      1  C   UNL d   1      31.062  17.445 -24.574  0.00  0.00     0.183 A 
ATOM      2  N   UNL d   1      31.875  17.326 -24.586  0.00  0.00    -0.280 N 
ATOM      3  S   UNL d   1      30.921  18.250 -24.689  0.00  0.00    -0.048 SA
ATOM      4  C   UNL d   1      31.653  18.630 -24.773  0.00  0.00     0.051 A 
ATOM      5  C   UNL d   1      32.245  18.056 -24.709  0.00  0.00     0.072 A 
ATOM      6  C   UNL d   1      31.855  19.419 -24.898  0.00  0.00     0.038 A 
ATOM      7  C   UNL d   1      33.039  18.272 -24.770  0.00  0.00     0.020 A 
ATOM      8  C   UNL d   1      32.649  19.636 -24.959  0.00  0.00     0.141 A 
ATOM      9  C   UNL d   1      33.241  19.062 -24.896  0.00  0.00     0.031 A 
ATOM     10  F   UNL d   1      32.845  20.420 -25.084  0.00  0.00    -0.204 F 
ENDROOT
BRANCH   1  11
ATOM     11  N   UNL d   1      30.491  16.857 -24.465  0.00  0.00    -0.183 NA
ATOM     12  C   UNL d   1      29.712  17.072 -24.300  0.00  0.00     0.287 C 
ATOM     13  O   UNL d   1      29.509  17.870 -24.245  0.00  0.00    -0.265 OA
BRANCH  12  14
ATOM     14  C   UNL d   1      29.145  16.499 -24.192  0.00  0.00     0.088 A 
ATOM     15  S   UNL d   1      28.646  16.417 -23.533  0.00  0.00    -0.071 SA
ATOM     16  C   UNL d   1      28.166  15.771 -23.656  0.00  0.00     0.087 A 
ATOM     17 CL   UNL d   1      27.587  15.479 -23.155  0.00  0.00    -0.075 Cl
ATOM     18  C   UNL d   1      28.362  15.453 -24.380  0.00  0.00     0.019 A 
ATOM     19  C   UNL d   1      28.962  15.901 -24.705  0.00  0.00     0.013 A 
ENDBRANCH  12  14
ENDBRANCH   1  11
BRANCH   2  20
ATOM     20  C   UNL d   1      32.539  16.843 -24.539  0.00  0.00     0.151 C 
BRANCH  20  21
ATOM     21  C   UNL d   1      32.491  16.124 -24.154  0.00  0.00     0.314 C 
ATOM     22  O   UNL d   1      32.291  15.454 -24.577  0.00  0.00    -0.257 OA
BRANCH  21  23
ATOM     23  O   UNL d   1      32.640  16.074 -23.357  0.00  0.00    -0.295 OA
ATOM     24  C   UNL d   1      33.103  15.472 -23.065  0.00  0.00     0.185 C 
ENDBRANCH  21  23
ENDBRANCH  20  21
ENDBRANCH   2  20
TORSDOF 5
ENDMDL
MODEL 2
REMARK VINA RESULT:      -1.0      5.647      6.795
REMARK  5 active torsions:
REMARK  status: ('A' for Active; 'I' for Inactive)
REMARK    1  A    between atoms: N_3  and  C_1 
REMARK    2  A    between atoms: C_12  and  N_2 
REMARK       I    between atoms: C_6  and  N_3 
REMARK    3  A    between atoms: C_8  and  C_6 
REMARK    4  A    between atoms: C_16  and  C_12 
REMARK    5  A    between atoms: O_22  and  C_16 
ROOT
ATOM      1  C   UNL d   1      33.004  21.581 -20.484  0.00  0.00     0.183 A 
ATOM      2  N   UNL d   1      32.908  22.397 -20.477  0.00  0.00    -0.280 N 
ATOM      3  S   UNL d   1      33.129  21.332 -19.708  0.00  0.00    -0.048 SA
ATOM      4  C   UNL d   1      33.109  22.000 -19.217  0.00  0.00     0.051 A 
ATOM      5  C   UNL d   1      32.972  22.661 -19.694  0.00  0.00     0.072 A 
ATOM      6  C   UNL d   1      33.198  22.090 -18.402  0.00  0.00     0.038 A 
ATOM      7  C   UNL d   1      32.924  23.412 -19.356  0.00  0.00     0.020 A 
ATOM      8  C   UNL d   1      33.150  22.841 -18.064  0.00  0.00     0.141 A 
ATOM      9  C   UNL d   1      33.013  23.502 -18.541  0.00  0.00     0.031 A 
ATOM     10  F   UNL d   1      33.239  22.926 -17.255  0.00  0.00    -0.204 F 
ENDROOT
BRANCH   1  11
ATOM     11  N   UNL d   1      32.979  21.100 -21.157  0.00  0.00    -0.183 NA
ATOM     12  C   UNL d   1      33.024  20.281 -21.072  0.00  0.00     0.287 C 
ATOM     13  O   UNL d   1      33.093  19.948 -20.321  0.00  0.00    -0.265 OA
BRANCH  12  14
ATOM     14  C   UNL d   1      33.000  19.802 -21.730  0.00  0.00     0.088 A 
ATOM     15  S   UNL d   1      32.846  20.041 -22.509  0.00  0.00    -0.071 SA
ATOM     16  C   UNL d   1      32.876  19.384 -22.989  0.00  0.00     0.087 A 
ATOM     17 CL   UNL d   1      32.760  19.354 -23.799  0.00  0.00    -0.075 Cl
ATOM     18  C   UNL d   1      33.047  18.743 -22.516  0.00  0.00     0.019 A 
ATOM     19  C   UNL d   1      33.122  19.002 -21.745  0.00  0.00     0.013 A 
ENDBRANCH  12  14
ENDBRANCH   1  11
BRANCH   2  20
ATOM     20  C   UNL d   1      32.776  23.117 -20.852  0.00  0.00     0.151 C 
BRANCH  20  21
ATOM     21  C   UNL d   1      32.580  23.130 -21.645  0.00  0.00     0.314 C 
ATOM     22  O   UNL d   1      31.792  23.114 -21.865  0.00  0.00    -0.257 OA
BRANCH  21  23
ATOM     23  O   UNL d   1      33.161  23.159 -22.211  0.00  0.00    -0.295 OA
ATOM     24  C   UNL d   1      33.004  23.481 -22.942  0.00  0.00     0.185 C 
ENDBRANCH  21  23
ENDBRANCH  20  21
ENDBRANCH   2  20
TORSDOF 5
ENDMDL
MODEL 3
REMARK VINA RESULT:      -0.1      2.329      4.071
REMARK  5 active torsions:
REMARK  status: ('A' for Active; 'I' for Inactive)
REMARK    1  A    between atoms: N_3  and  C_1 
REMARK    2  A    between atoms: C_12  and  N_2 
REMARK       I    between atoms: C_6  and  N_3 
REMARK    3  A    between atoms: C_8  and  C_6 
REMARK    4  A    between atoms: C_16  and  C_12 
REMARK    5  A    between atoms: O_22  and  C_16 
ROOT
ATOM      1  C   UNL d   1      30.570  17.101 -24.162  0.00  0.00     0.183 A 
ATOM      2  N   UNL d   1      30.489  16.312 -23.948  0.00  0.00    -0.280 N 
ATOM      3  S   UNL d   1      29.819  17.443 -24.165  0.00  0.00    -0.048 SA
ATOM      4  C   UNL d   1      29.271  16.860 -23.951  0.00  0.00     0.051 A 
ATOM      5  C   UNL d   1      29.687  16.158 -23.816  0.00  0.00     0.072 A 
ATOM      6  C   UNL d   1      28.451  16.878 -23.862  0.00  0.00     0.038 A 
ATOM      7  C   UNL d   1      29.282  15.474 -23.593  0.00  0.00     0.020 A 
ATOM      8  C   UNL d   1      28.046  16.194 -23.639  0.00  0.00     0.141 A 
ATOM      9  C   UNL d   1      28.462  15.492 -23.504  0.00  0.00     0.031 A 
ATOM     10  F   UNL d   1      27.233  16.216 -23.552  0.00  0.00    -0.204 F 
ENDROOT
BRANCH   1  11
ATOM     11  N   UNL d   1      31.283  17.480 -24.341  0.00  0.00    -0.183 NA
ATOM     12  C   UNL d   1      31.276  18.270 -24.577  0.00  0.00     0.287 C 
ATOM     13  O   UNL d   1      30.559  18.676 -24.631  0.00  0.00    -0.265 OA
BRANCH  12  14
ATOM     14  C   UNL d   1      31.973  18.650 -24.755  0.00  0.00     0.088 A 
ATOM     15  S   UNL d   1      32.092  19.470 -24.796  0.00  0.00    -0.071 SA
ATOM     16  C   UNL d   1      32.870  19.606 -24.990  0.00  0.00     0.087 A 
ATOM     17 CL   UNL d   1      33.239  20.330 -25.092  0.00  0.00    -0.075 Cl
ATOM     18  C   UNL d   1      33.234  18.880 -25.070  0.00  0.00     0.019 A 
ATOM     19  C   UNL d   1      32.681  18.297 -24.925  0.00  0.00     0.013 A 
ENDBRANCH  12  14
ENDBRANCH   1  11
BRANCH   2  20
ATOM     20  C   UNL d   1      30.798  15.567 -23.790  0.00  0.00     0.151 C 
BRANCH  20  21
ATOM     21  C   UNL d   1      31.580  15.492 -23.564  0.00  0.00     0.314 C 
ATOM     22  O   UNL d   1      32.163  15.456 -24.136  0.00  0.00    -0.257 OA
BRANCH  21  23
ATOM     23  O   UNL d   1      31.778  15.453 -22.777  0.00  0.00    -0.295 OA
ATOM     24  C   UNL d   1      32.560  15.459 -22.551  0.00  0.00     0.185 C 
ENDBRANCH  21  23
ENDBRANCH  20  21
ENDBRANCH   2  20
TORSDOF 5
ENDMDL
MODEL 4
REMARK VINA RESULT:       0.3      4.161      5.450
REMARK  5 active torsions:
REMARK  status: ('A' for Active; 'I' for Inactive)
REMARK    1  A    between atoms: N_3  and  C_1 
REMARK    2  A    between atoms: C_12  and  N_2 
REMARK       I    between atoms: C_6  and  N_3 
REMARK    3  A    between atoms: C_8  and  C_6 
REMARK    4  A    between atoms: C_16  and  C_12 
REMARK    5  A    between atoms: O_22  and  C_16 
ROOT
ATOM      1  C   UNL d   1      33.071  20.714 -22.077  0.00  0.00     0.183 A 
ATOM      2  N   UNL d   1      33.124  21.525 -22.199  0.00  0.00    -0.280 N 
ATOM      3  S   UNL d   1      32.914  20.586 -21.278  0.00  0.00    -0.048 SA
ATOM      4  C   UNL d   1      32.869  21.324 -20.903  0.00  0.00     0.051 A 
ATOM      5  C   UNL d   1      32.999  21.907 -21.475  0.00  0.00     0.072 A 
ATOM      6  C   UNL d   1      32.727  21.539 -20.119  0.00  0.00     0.038 A 
ATOM      7  C   UNL d   1      32.988  22.704 -21.262  0.00  0.00     0.020 A 
ATOM      8  C   UNL d   1      32.715  22.336 -19.907  0.00  0.00     0.141 A 
ATOM      9  C   UNL d   1      32.846  22.919 -20.479  0.00  0.00     0.031 A 
ATOM     10  F   UNL d   1      32.574  22.545 -19.129  0.00  0.00    -0.204 F 
ENDROOT
BRANCH   1  11
ATOM     11  N   UNL d   1      33.162  20.134 -22.660  0.00  0.00    -0.183 NA
ATOM     12  C   UNL d   1      32.792  19.403 -22.565  0.00  0.00     0.287 C 
ATOM     13  O   UNL d   1      32.336  19.256 -21.894  0.00  0.00    -0.265 OA
BRANCH  12  14
ATOM     14  C   UNL d   1      32.876  18.827 -23.134  0.00  0.00     0.088 A 
ATOM     15  S   UNL d   1      32.631  18.876 -23.926  0.00  0.00    -0.071 SA
ATOM     16  C   UNL d   1      32.823  18.178 -24.296  0.00  0.00     0.087 A 
ATOM     17 CL   UNL d   1      32.688  17.976 -25.079  0.00  0.00    -0.075 Cl
ATOM     18  C   UNL d   1      33.184  17.699 -23.745  0.00  0.00     0.019 A 
ATOM     19  C   UNL d   1      33.215  18.099 -23.034  0.00  0.00     0.013 A 
ENDBRANCH  12  14
ENDBRANCH   1  11
BRANCH   2  20
ATOM     20  C   UNL d   1      33.240  22.182 -22.680  0.00  0.00     0.151 C 
BRANCH  20  21
ATOM     21  C   UNL d   1      32.779  22.281 -23.347  0.00  0.00     0.314 C 
ATOM     22  O   UNL d   1      32.014  22.562 -23.271  0.00  0.00    -0.257 OA
BRANCH  21  23
ATOM     23  O   UNL d   1      33.076  22.104 -24.082  0.00  0.00    -0.295 OA
ATOM     24  C   UNL d   1      32.878  22.560 -24.725  0.00  0.00     0.185 C 
ENDBRANCH  21  23
ENDBRANCH  20  21
ENDBRANCH   2  20
TORSDOF 5
ENDMDL
MODEL 5
REMARK VINA RESULT:       1.2      3.957      5.434
REMARK  5 active torsions:
REMARK  status: ('A' for Active; 'I' for Inactive)
REMARK    1  A    between atoms: N_3  and  C_1 
REMARK    2  A    between atoms: C_12  and  N_2 
REMARK       I    between atoms: C_6  and  N_3 
REMARK    3  A    between atoms: C_8  and  C_6 
REMARK    4  A    between atoms: C_16  and  C_12 
REMARK    5  A    between atoms: O_22  and  C_16 
ROOT
ATOM      1  C   UNL d   1      33.184  19.645 -22.391  0.00  0.00     0.183 A 
ATOM      2  N   UNL d   1      33.207  19.425 -23.183  0.00  0.00    -0.280 N 
ATOM      3  S   UNL d   1      33.178  18.957 -21.936  0.00  0.00    -0.048 SA
ATOM      4  C   UNL d   1      33.197  18.308 -22.450  0.00  0.00     0.051 A 
ATOM      5  C   UNL d   1      33.216  18.598 -23.224  0.00  0.00     0.072 A 
ATOM      6  C   UNL d   1      33.200  17.494 -22.314  0.00  0.00     0.038 A 
ATOM      7  C   UNL d   1      33.237  18.075 -23.862  0.00  0.00     0.020 A 
ATOM      8  C   UNL d   1      33.222  16.971 -22.951  0.00  0.00     0.141 A 
ATOM      9  C   UNL d   1      33.240  17.261 -23.726  0.00  0.00     0.031 A 
ATOM     10  F   UNL d   1      33.225  16.165 -22.813  0.00  0.00    -0.204 F 
ENDROOT
BRANCH   1  11
ATOM     11  N   UNL d   1      33.170  20.422 -22.108  0.00  0.00    -0.183 NA
ATOM     12  C   UNL d   1      32.805  20.585 -21.387  0.00  0.00     0.287 C 
ATOM     13  O   UNL d   1      32.458  19.975 -20.954  0.00  0.00    -0.265 OA
BRANCH  12  14
ATOM     14  C   UNL d   1      32.787  21.348 -21.102  0.00  0.00     0.088 A 
ATOM     15  S   UNL d   1      32.478  22.012 -21.492  0.00  0.00    -0.071 SA
ATOM     16  C   UNL d   1      32.574  22.659 -21.008  0.00  0.00     0.087 A 
ATOM     17 CL   UNL d   1      32.352  23.433 -21.161  0.00  0.00    -0.075 Cl
ATOM     18  C   UNL d   1      32.939  22.403 -20.325  0.00  0.00     0.019 A 
ATOM     19  C   UNL d   1      33.067  21.600 -20.387  0.00  0.00     0.013 A 
ENDBRANCH  12  14
ENDBRANCH   1  11
BRANCH   2  20
ATOM     20  C   UNL d   1      33.228  19.602 -23.985  0.00  0.00     0.151 C 
BRANCH  20  21
ATOM     21  C   UNL d   1      32.861  20.278 -24.261  0.00  0.00     0.314 C 
ATOM     22  O   UNL d   1      32.113  20.468 -23.992  0.00  0.00    -0.257 OA
BRANCH  21  23
ATOM     23  O   UNL d   1      33.236  20.758 -24.798  0.00  0.00    -0.295 OA
ATOM     24  C   UNL d   1      32.947  21.503 -24.951  0.00  0.00     0.185 C 
ENDBRANCH  21  23
ENDBRANCH  20  21
ENDBRANCH   2  20
TORSDOF 5
ENDMDL
