MODEL 1
REMARK VINA RESULT:      -5.5      0.000      0.000
REMARK  6 active torsions:
REMARK  status: ('A' for Active; 'I' for Inactive)
REMARK    1  A    between atoms: C_6  and  C_1 
REMARK    2  A    between atoms: C_8  and  C_6 
REMARK    3  A    between atoms: O_14  and  C_10 
REMARK    4  A    between atoms: C_12  and  C_20 
REMARK    5  A    between atoms: O_21  and  C_12 
REMARK    6  A    between atoms: C_20  and  O_14 
ROOT
ATOM      1  C   UNL d   1     -41.242-122.354 -53.276  0.00  0.00     0.141 A 
ATOM      2  C   UNL d   1     -41.468-122.346 -51.955  0.00  0.00     0.105 A 
ATOM      3  O   UNL d   1     -41.382-121.858 -52.629  0.00  0.00    -0.304 OA
ATOM      4  C   UNL d   1     -41.382-123.128 -52.187  0.00  0.00     0.064 A 
ATOM      5  C   UNL d   1     -41.241-123.147 -53.011  0.00  0.00     0.220 A 
ATOM      6  C   UNL d   1     -41.613-122.163 -51.159  0.00  0.00     0.046 A 
ATOM      7  C   UNL d   1     -41.442-123.736 -51.626  0.00  0.00     0.007 A 
ATOM      8  C   UNL d   1     -41.672-122.768 -50.608  0.00  0.00     0.102 A 
ATOM      9  O   UNL d   1     -41.123-123.817 -53.474  0.00  0.00    -0.284 OA
ATOM     10  C   UNL d   1     -41.586-123.550 -50.840  0.00  0.00     0.025 A 
ATOM     11  C   UNL d   1     -41.699-121.376 -50.926  0.00  0.00     0.004 C 
ENDROOT
BRANCH   1  12
ATOM     12  C   UNL d   1     -41.124-122.108 -54.060  0.00  0.00     0.053 C 
BRANCH  12  13
ATOM     13  C   UNL d   1     -41.766-121.969 -54.548  0.00  0.00     0.102 A 
ATOM     14  O   UNL d   1     -42.474-121.618 -54.324  0.00  0.00    -0.305 OA
ATOM     15  C   UNL d   1     -42.965-121.587 -54.986  0.00  0.00     0.123 A 
ATOM     16  C   UNL d   1     -42.554-121.922 -55.623  0.00  0.00     0.029 A 
ATOM     17  C   UNL d   1     -41.820-122.154 -55.350  0.00  0.00     0.027 A 
ENDBRANCH  12  13
ENDBRANCH   1  12
BRANCH   8  18
ATOM     18  O   UNL d   1     -41.816-122.589 -49.818  0.00  0.00    -0.300 OA
BRANCH  18  19
ATOM     19  C   UNL d   1     -41.999-123.188 -49.279  0.00  0.00     0.191 C 
BRANCH  19  20
ATOM     20  C   UNL d   1     -42.149-123.005 -48.483  0.00  0.00     0.321 C 
ATOM     21  O   UNL d   1     -42.838-122.599 -48.277  0.00  0.00    -0.257 OA
BRANCH  20  22
ATOM     22  O   UNL d   1     -41.619-123.223 -47.904  0.00  0.00    -0.294 OA
ATOM     23  C   UNL d   1     -41.827-123.185 -47.111  0.00  0.00     0.185 C 
ENDBRANCH  20  22
ENDBRANCH  19  20
ENDBRANCH  18  19
ENDBRANCH   8  18
TORSDOF 6
ENDMDL
MODEL 2
REMARK VINA RESULT:      -4.0      0.958      5.035
REMARK  6 active torsions:
REMARK  status: ('A' for Active; 'I' for Inactive)
REMARK    1  A    between atoms: C_6  and  C_1 
REMARK    2  A    between atoms: C_8  and  C_6 
REMARK    3  A    between atoms: O_14  and  C_10 
REMARK    4  A    between atoms: C_12  and  C_20 
REMARK    5  A    between atoms: O_21  and  C_12 
REMARK    6  A    between atoms: C_20  and  O_14 
ROOT
ATOM      1  C   UNL d   1     -41.276-123.098 -50.333  0.00  0.00     0.141 A 
ATOM      2  C   UNL d   1     -41.300-122.941 -51.665  0.00  0.00     0.105 A 
ATOM      3  O   UNL d   1     -41.338-123.507 -51.050  0.00  0.00    -0.304 OA
ATOM      4  C   UNL d   1     -41.216-122.197 -51.329  0.00  0.00     0.064 A 
ATOM      5  C   UNL d   1     -41.200-122.281 -50.497  0.00  0.00     0.220 A 
ATOM      6  C   UNL d   1     -41.332-123.023 -52.489  0.00  0.00     0.046 A 
ATOM      7  C   UNL d   1     -41.163-121.527 -51.814  0.00  0.00     0.007 A 
ATOM      8  C   UNL d   1     -41.279-122.356 -52.965  0.00  0.00     0.102 A 
ATOM      9  O   UNL d   1     -41.123-121.676 -49.943  0.00  0.00    -0.284 OA
ATOM     10  C   UNL d   1     -41.195-121.613 -52.630  0.00  0.00     0.025 A 
ATOM     11  C   UNL d   1     -41.417-123.771 -52.827  0.00  0.00     0.004 C 
ENDROOT
BRANCH   1  12
ATOM     12  C   UNL d   1     -41.288-123.438 -49.576  0.00  0.00     0.053 C 
BRANCH  12  13
ATOM     13  C   UNL d   1     -41.997-123.524 -49.177  0.00  0.00     0.102 A 
ATOM     14  O   UNL d   1     -42.696-123.816 -49.495  0.00  0.00    -0.305 OA
ATOM     15  C   UNL d   1     -43.270-123.808 -48.901  0.00  0.00     0.123 A 
ATOM     16  C   UNL d   1     -42.919-123.508 -48.212  0.00  0.00     0.029 A 
ATOM     17  C   UNL d   1     -42.140-123.336 -48.386  0.00  0.00     0.027 A 
ENDBRANCH  12  13
ENDBRANCH   1  12
BRANCH   8  18
ATOM     18  O   UNL d   1     -41.311-122.434 -53.784  0.00  0.00    -0.300 OA
BRANCH  18  19
ATOM     19  C   UNL d   1     -41.608-121.822 -54.252  0.00  0.00     0.191 C 
BRANCH  19  20
ATOM     20  C   UNL d   1     -41.830-121.966 -55.039  0.00  0.00     0.321 C 
ATOM     21  O   UNL d   1     -41.255-122.140 -55.605  0.00  0.00    -0.257 OA
BRANCH  20  22
ATOM     22  O   UNL d   1     -42.615-121.937 -55.256  0.00  0.00    -0.294 OA
ATOM     23  C   UNL d   1     -42.847-122.146 -56.015  0.00  0.00     0.185 C 
ENDBRANCH  20  22
ENDBRANCH  19  20
ENDBRANCH  18  19
ENDBRANCH   8  18
TORSDOF 6
ENDMDL
