MODEL 1
REMARK VINA RESULT:      43.1      0.000      0.000
REMARK  9 active torsions:
REMARK  status: ('A' for Active; 'I' for Inactive)
REMARK    1  A    between atoms: N_3  and  C_1 
REMARK    2  A    between atoms: C_20  and  N_2 
REMARK       I    between atoms: C_7  and  N_3 
REMARK    3  A    between atoms: C_10  and  C_7 
REMARK    4  A    between atoms: C_9  and  C_10 
REMARK    5  A    between atoms: C_15  and  C_9 
REMARK       I    between atoms: C_12  and  N_13 
REMARK    6  A    between atoms: N_13  and  C_14 
REMARK    7  A    between atoms: C_26  and  C_20 
REMARK    8  A    between atoms: O_22  and  C_26 
REMARK    9  A    between atoms: C_27  and  O_22 
ROOT
ATOM      1  C   UNL d   1      45.628 -16.460  38.420  0.00  0.00     0.182 A 
ATOM      2  N   UNL d   1      45.774 -15.972  37.777  0.00  0.00    -0.283 N 
ATOM      3  S   UNL d   1      44.841 -16.699  38.383  0.00  0.00    -0.048 SA
ATOM      4  C   UNL d   1      44.499 -16.355  37.712  0.00  0.00     0.050 A 
ATOM      5  C   UNL d   1      45.078 -15.903  37.335  0.00  0.00     0.072 A 
ATOM      6  C   UNL d   1      43.739 -16.395  37.397  0.00  0.00     0.027 A 
ATOM      7  C   UNL d   1      44.898 -15.491  36.645  0.00  0.00     0.020 A 
ATOM      8  C   UNL d   1      43.557 -15.984  36.707  0.00  0.00     0.085 A 
ATOM      9  C   UNL d   1      44.137 -15.532  36.331  0.00  0.00     0.021 A 
ENDROOT
BRANCH   1  10
ATOM     10  N   UNL d   1      46.179 -16.671  38.997  0.00  0.00    -0.184 NA
ATOM     11  C   UNL d   1      46.064 -17.359  39.436  0.00  0.00     0.281 C 
ATOM     12  O   UNL d   1      45.402 -17.828  39.295  0.00  0.00    -0.265 OA
BRANCH  11  13
ATOM     13  C   UNL d   1      46.610 -17.576  40.016  0.00  0.00     0.063 C 
BRANCH  13  14
ATOM     14  C   UNL d   1      46.635 -18.347  40.291  0.00  0.00     0.006 C 
BRANCH  14  15
ATOM     15  C   UNL d   1      46.620 -18.511  41.092  0.00  0.00     0.011 A 
ATOM     16  C   UNL d   1      46.625 -19.299  41.354  0.00  0.00     0.058 A 
ATOM     17 CL   UNL d   1      46.646 -19.918  40.794  0.00  0.00    -0.082 Cl
ATOM     18  C   UNL d   1      46.610 -19.468  42.175  0.00  0.00     0.011 A 
ATOM     19  C   UNL d   1      46.590 -18.867  42.725  0.00  0.00     0.001 A 
ATOM     20  C   UNL d   1      46.585 -18.080  42.467  0.00  0.00     0.000 A 
ATOM     21  C   UNL d   1      46.599 -17.909  41.656  0.00  0.00     0.001 A 
ENDBRANCH  14  15
ENDBRANCH  13  14
ENDBRANCH  11  13
ENDBRANCH   1  10
BRANCH   2  22
ATOM     22  C   UNL d   1      46.493 -15.605  37.594  0.00  0.00     0.109 C 
BRANCH  22  23
ATOM     23  C   UNL d   1      46.584 -14.793  37.690  0.00  0.00     0.142 C 
BRANCH  23  24
ATOM     24  O   UNL d   1      46.430 -14.285  37.068  0.00  0.00    -0.302 OA
BRANCH  24  25
ATOM     25  C   UNL d   1      46.598 -13.475  37.119  0.00  0.00     0.123 C 
ATOM     26  C   UNL d   1      46.643 -13.006  36.440  0.00  0.00     0.029 C 
ENDBRANCH  24  25
ENDBRANCH  23  24
ENDBRANCH  22  23
ENDBRANCH   2  22
BRANCH   8  27
ATOM     27  N   UNL d   1      42.786 -16.023  36.387  0.00  0.00    -0.208 NA
ATOM     28  C   UNL d   1      42.190 -15.564  36.707  0.00  0.00     0.279 C 
ATOM     29  O   UNL d   1      41.431 -15.605  36.389  0.00  0.00    -0.265 OA
ATOM     30  C   UNL d   1      42.338 -15.061  37.345  0.00  0.00     0.068 C 
ENDBRANCH   8  27
TORSDOF 9
ENDMDL
