MODEL 1
REMARK VINA RESULT:      54.3      0.000      0.000
REMARK  2 active torsions:
REMARK  status: ('A' for Active; 'I' for Inactive)
REMARK    1  A    between atoms: C_8  and  C_2 
REMARK    2  A    between atoms: C_9  and  C_4 
ROOT
ATOM      1  N   UNL d   1     -59.275 -98.831 -45.321  0.00  0.00    -0.246 NA
ATOM      2  C   UNL d   1     -57.665 -98.896 -44.966  0.00  0.00     0.003 A 
ATOM      3  C   UNL d   1     -58.219 -98.849 -44.358  0.00  0.00     0.018 A 
ATOM      4  C   UNL d   1     -58.720 -98.878 -45.930  0.00  0.00     0.081 A 
ATOM      5  C   UNL d   1     -57.914 -98.910 -45.753  0.00  0.00     0.019 A 
ATOM      6  C   UNL d   1     -59.025 -98.817 -44.536  0.00  0.00     0.081 A 
ATOM      7  C   UNL d   1     -57.969 -98.835 -43.573  0.00  0.00     0.002 A 
ATOM      8  C   UNL d   1     -59.579 -98.770 -43.927  0.00  0.00     0.019 A 
ATOM      9  C   UNL d   1     -58.524 -98.788 -42.963  0.00  0.00     0.000 A 
ATOM     10  C   UNL d   1     -59.330 -98.756 -43.141  0.00  0.00     0.002 A 
ATOM     11  C   UNL d   1     -58.262 -98.776 -42.232  0.00  0.00     0.000 C 
ENDROOT
BRANCH   2  12
ATOM     12  C   UNL d   1     -56.864 -98.928 -44.790  0.00  0.00     0.000 A 
ATOM     13  C   UNL d   1     -56.307 -98.755 -45.373  0.00  0.00     0.000 A 
ATOM     14  C   UNL d   1     -55.501 -98.788 -45.196  0.00  0.00     0.000 A 
ATOM     15  C   UNL d   1     -55.254 -98.992 -44.436  0.00  0.00     0.000 A 
ATOM     16  C   UNL d   1     -55.812 -99.165 -43.853  0.00  0.00     0.000 A 
ATOM     17  C   UNL d   1     -56.618 -99.132 -44.031  0.00  0.00     0.000 A 
ENDBRANCH   2  12
BRANCH   4  18
ATOM     18  C   UNL d   1     -58.970 -98.892 -46.716  0.00  0.00     0.021 A 
ATOM     19  C   UNL d   1     -58.429 -98.756 -47.324  0.00  0.00     0.022 A 
ATOM     20  C   UNL d   1     -58.679 -98.770 -48.110  0.00  0.00     0.099 A 
ATOM     21  N   UNL d   1     -59.470 -98.921 -48.288  0.00  0.00    -0.242 NA
ATOM     22  C   UNL d   1     -59.959 -99.047 -47.669  0.00  0.00     0.099 A 
ATOM     23  C   UNL d   1     -59.761 -99.042 -46.894  0.00  0.00     0.022 A 
ENDBRANCH   4  18
TORSDOF 2
ENDMDL
