MODEL 1
REMARK VINA RESULT:      56.3      0.000      0.000
REMARK  4 active torsions:
REMARK  status: ('A' for Active; 'I' for Inactive)
REMARK    1  A    between atoms: C_10  and  C_1 
REMARK    2  A    between atoms: N_7  and  C_4 
REMARK    3  A    between atoms: N_16  and  C_9 
REMARK    4  A    between atoms: C_15  and  C_10 
ROOT
ATOM      1  C   UNL d   1     -47.266  32.393  34.154  0.00  0.00     0.143 A 
ATOM      2  C   UNL d   1     -48.092  32.458  34.123  0.00  0.00     0.086 A 
ATOM      3  C   UNL d   1     -46.912  31.822  34.633  0.00  0.00     0.025 A 
ATOM      4  C   UNL d   1     -48.558  31.945  34.576  0.00  0.00     0.019 A 
ATOM      5  C   UNL d   1     -47.386  31.317  35.079  0.00  0.00     0.002 A 
ATOM      6  C   UNL d   1     -48.212  31.382  35.047  0.00  0.00     0.002 A 
ENDROOT
BRANCH   5   7
ATOM      7  C   UNL d   1     -47.032  30.747  35.556  0.00  0.00     0.010 C 
BRANCH   7   8
ATOM      8  C   UNL d   1     -47.449  30.038  35.714  0.00  0.00     0.116 A 
ATOM      9  C   UNL d   1     -47.663  29.877  36.486  0.00  0.00     0.288 A 
ATOM     10  N   UNL d   1     -48.073  29.181  36.650  0.00  0.00    -0.152 NA
ATOM     11  O   UNL d   1     -47.473  30.397  37.090  0.00  0.00    -0.265 OA
ATOM     12  C   UNL d   1     -48.265  28.656  36.040  0.00  0.00     0.374 A 
ATOM     13  N   UNL d   1     -48.044  28.831  35.274  0.00  0.00    -0.152 NA
ATOM     14  O   UNL d   1     -48.677  27.955  36.197  0.00  0.00    -0.242 OA
ATOM     15  C   UNL d   1     -47.640  29.513  35.105  0.00  0.00     0.288 A 
ATOM     16  O   UNL d   1     -47.422  29.678  34.317  0.00  0.00    -0.265 OA
ENDBRANCH   7   8
ENDBRANCH   5   7
BRANCH   1  17
ATOM     17  N   UNL d   1     -46.801  32.897  33.710  0.00  0.00    -0.112 N 
ATOM     18  O   UNL d   1     -46.156  32.592  33.306  0.00  0.00    -0.532 OA
ATOM     19  O   UNL d   1     -46.993  33.687  33.683  0.00  0.00    -0.532 OA
ENDBRANCH   1  17
BRANCH   2  20
ATOM     20  N   UNL d   1     -48.437  33.025  33.648  0.00  0.00    -0.300 N 
ATOM     21  C   UNL d   1     -47.970  33.619  33.306  0.00  0.00     0.100 C 
ATOM     22  C   UNL d   1     -49.233  32.996  33.520  0.00  0.00     0.100 C 
ENDBRANCH   2  20
TORSDOF 4
ENDMDL
MODEL 2
REMARK VINA RESULT:      56.4      1.027      4.106
REMARK  4 active torsions:
REMARK  status: ('A' for Active; 'I' for Inactive)
REMARK    1  A    between atoms: C_10  and  C_1 
REMARK    2  A    between atoms: N_7  and  C_4 
REMARK    3  A    between atoms: N_16  and  C_9 
REMARK    4  A    between atoms: C_15  and  C_10 
ROOT
ATOM      1  C   UNL d   1     -47.414  29.922  36.021  0.00  0.00     0.143 A 
ATOM      2  C   UNL d   1     -47.416  29.379  35.395  0.00  0.00     0.086 A 
ATOM      3  C   UNL d   1     -47.197  30.707  35.889  0.00  0.00     0.025 A 
ATOM      4  C   UNL d   1     -47.198  29.630  34.637  0.00  0.00     0.019 A 
ATOM      5  C   UNL d   1     -46.982  30.946  35.131  0.00  0.00     0.002 A 
ATOM      6  C   UNL d   1     -46.984  30.403  34.505  0.00  0.00     0.002 A 
ENDROOT
BRANCH   5   7
ATOM      7  C   UNL d   1     -46.765  31.729  35.000  0.00  0.00     0.010 C 
BRANCH   7   8
ATOM      8  C   UNL d   1     -47.287  32.227  34.574  0.00  0.00     0.116 A 
ATOM      9  C   UNL d   1     -47.168  32.318  33.771  0.00  0.00     0.288 A 
ATOM     10  N   UNL d   1     -47.678  32.806  33.345  0.00  0.00    -0.152 NA
ATOM     11  O   UNL d   1     -46.552  31.932  33.393  0.00  0.00    -0.265 OA
ATOM     12  C   UNL d   1     -48.299  33.196  33.727  0.00  0.00     0.374 A 
ATOM     13  N   UNL d   1     -48.405  33.094  34.530  0.00  0.00    -0.152 NA
ATOM     14  O   UNL d   1     -48.815  33.688  33.306  0.00  0.00    -0.242 OA
ATOM     15  C   UNL d   1     -47.908  32.616  34.956  0.00  0.00     0.288 A 
ATOM     16  O   UNL d   1     -48.029  32.522  35.776  0.00  0.00    -0.265 OA
ENDBRANCH   7   8
ENDBRANCH   5   7
BRANCH   1  17
ATOM     17  N   UNL d   1     -47.628  29.680  36.771  0.00  0.00    -0.112 N 
ATOM     18  O   UNL d   1     -48.411  29.486  36.920  0.00  0.00    -0.532 OA
ATOM     19  O   UNL d   1     -47.056  29.638  37.348  0.00  0.00    -0.532 OA
ENDBRANCH   1  17
BRANCH   2  20
ATOM     20  N   UNL d   1     -47.632  28.603  35.530  0.00  0.00    -0.300 N 
ATOM     21  C   UNL d   1     -48.434  28.397  35.562  0.00  0.00     0.100 C 
ATOM     22  C   UNL d   1     -47.055  28.049  35.631  0.00  0.00     0.100 C 
ENDBRANCH   2  20
TORSDOF 4
ENDMDL
MODEL 3
REMARK VINA RESULT:      57.1      4.653      7.172
REMARK  4 active torsions:
REMARK  status: ('A' for Active; 'I' for Inactive)
REMARK    1  A    between atoms: C_10  and  C_1 
REMARK    2  A    between atoms: N_7  and  C_4 
REMARK    3  A    between atoms: N_16  and  C_9 
REMARK    4  A    between atoms: C_15  and  C_10 
ROOT
ATOM      1  C   UNL d   1     -52.040  25.245  33.724  0.00  0.00     0.143 A 
ATOM      2  C   UNL d   1     -51.564  24.566  33.712  0.00  0.00     0.086 A 
ATOM      3  C   UNL d   1     -51.707  25.987  33.589  0.00  0.00     0.025 A 
ATOM      4  C   UNL d   1     -50.753  24.640  33.564  0.00  0.00     0.019 A 
ATOM      5  C   UNL d   1     -50.899  26.050  33.442  0.00  0.00     0.002 A 
ATOM      6  C   UNL d   1     -50.423  25.371  33.431  0.00  0.00     0.002 A 
ENDROOT
BRANCH   5   7
ATOM      7  C   UNL d   1     -50.568  26.791  33.307  0.00  0.00     0.010 C 
BRANCH   7   8
ATOM      8  C   UNL d   1     -50.012  27.090  33.857  0.00  0.00     0.116 A 
ATOM      9  C   UNL d   1     -49.334  26.657  33.998  0.00  0.00     0.288 A 
ATOM     10  N   UNL d   1     -48.782  26.945  34.538  0.00  0.00    -0.152 NA
ATOM     11  O   UNL d   1     -49.203  25.947  33.611  0.00  0.00    -0.265 OA
ATOM     12  C   UNL d   1     -48.914  27.662  34.929  0.00  0.00     0.374 A 
ATOM     13  N   UNL d   1     -49.596  28.084  34.776  0.00  0.00    -0.152 NA
ATOM     14  O   UNL d   1     -48.364  27.958  35.472  0.00  0.00    -0.242 OA
ATOM     15  C   UNL d   1     -50.144  27.807  34.247  0.00  0.00     0.288 A 
ATOM     16  O   UNL d   1     -50.837  28.249  34.102  0.00  0.00    -0.265 OA
ENDBRANCH   7   8
ENDBRANCH   5   7
BRANCH   1  17
ATOM     17  N   UNL d   1     -52.841  25.178  33.869  0.00  0.00    -0.112 N 
ATOM     18  O   UNL d   1     -53.157  25.539  34.534  0.00  0.00    -0.532 OA
ATOM     19  O   UNL d   1     -53.300  24.754  33.348  0.00  0.00    -0.532 OA
ENDBRANCH   1  17
BRANCH   2  20
ATOM     20  N   UNL d   1     -51.897  23.833  33.846  0.00  0.00    -0.300 N 
ATOM     21  C   UNL d   1     -52.352  23.704  34.527  0.00  0.00     0.100 C 
ATOM     22  C   UNL d   1     -51.776  23.244  33.309  0.00  0.00     0.100 C 
ENDBRANCH   2  20
TORSDOF 4
ENDMDL
MODEL 4
REMARK VINA RESULT:      58.4      5.156      7.579
REMARK  4 active torsions:
REMARK  status: ('A' for Active; 'I' for Inactive)
REMARK    1  A    between atoms: C_10  and  C_1 
REMARK    2  A    between atoms: N_7  and  C_4 
REMARK    3  A    between atoms: N_16  and  C_9 
REMARK    4  A    between atoms: C_15  and  C_10 
ROOT
ATOM      1  C   UNL d   1     -52.245  24.506  33.726  0.00  0.00     0.143 A 
ATOM      2  C   UNL d   1     -52.852  25.039  33.539  0.00  0.00     0.086 A 
ATOM      3  C   UNL d   1     -51.458  24.752  33.712  0.00  0.00     0.025 A 
ATOM      4  C   UNL d   1     -52.661  25.819  33.337  0.00  0.00     0.019 A 
ATOM      5  C   UNL d   1     -51.280  25.530  33.510  0.00  0.00     0.002 A 
ATOM      6  C   UNL d   1     -51.887  26.063  33.322  0.00  0.00     0.002 A 
ENDROOT
BRANCH   5   7
ATOM      7  C   UNL d   1     -50.494  25.775  33.496  0.00  0.00     0.010 C 
BRANCH   7   8
ATOM      8  C   UNL d   1     -50.218  26.280  34.103  0.00  0.00     0.116 A 
ATOM      9  C   UNL d   1     -49.495  26.650  34.003  0.00  0.00     0.288 A 
ATOM     10  N   UNL d   1     -49.217  27.149  34.597  0.00  0.00    -0.152 NA
ATOM     11  O   UNL d   1     -49.053  26.527  33.325  0.00  0.00    -0.265 OA
ATOM     12  C   UNL d   1     -49.663  27.273  35.283  0.00  0.00     0.374 A 
ATOM     13  N   UNL d   1     -50.383  26.896  35.367  0.00  0.00    -0.152 NA
ATOM     14  O   UNL d   1     -49.390  27.772  35.883  0.00  0.00    -0.242 OA
ATOM     15  C   UNL d   1     -50.664  26.404  34.788  0.00  0.00     0.288 A 
ATOM     16  O   UNL d   1     -51.401  26.027  34.890  0.00  0.00    -0.265 OA
ENDBRANCH   7   8
ENDBRANCH   5   7
BRANCH   1  17
ATOM     17  N   UNL d   1     -52.427  23.736  33.926  0.00  0.00    -0.112 N 
ATOM     18  O   UNL d   1     -52.494  23.534  34.718  0.00  0.00    -0.532 OA
ATOM     19  O   UNL d   1     -52.537  23.191  33.331  0.00  0.00    -0.532 OA
ENDBRANCH   1  17
BRANCH   2  20
ATOM     20  N   UNL d   1     -53.630  24.792  33.554  0.00  0.00    -0.300 N 
ATOM     21  C   UNL d   1     -53.815  24.026  33.812  0.00  0.00     0.100 C 
ATOM     22  C   UNL d   1     -54.207  25.302  33.316  0.00  0.00     0.100 C 
ENDBRANCH   2  20
TORSDOF 4
ENDMDL
