MODEL 1
REMARK VINA RESULT:      -7.5      0.000      0.000
REMARK  7 active torsions:
REMARK  status: ('A' for Active; 'I' for Inactive)
REMARK    1  A    between atoms: C_8  and  N_1 
REMARK       I    between atoms: C_3  and  N_5 
REMARK       I    between atoms: N_9  and  C_3 
REMARK    2  A    between atoms: N_5  and  C_6 
REMARK    3  A    between atoms: C_18  and  N_9 
REMARK    4  A    between atoms: C_19  and  N_9 
REMARK    5  A    between atoms: O_17  and  C_14 
REMARK    6  A    between atoms: C_21  and  C_18 
REMARK    7  A    between atoms: C_22  and  C_19 
ROOT
ATOM      1  N   UNL d   1      50.727  34.266  52.516  0.00  0.00    -0.272 N 
ATOM      2  C   UNL d   1      51.272  34.273  51.893  0.00  0.00     0.266 A 
ATOM      3  C   UNL d   1      51.968  33.919  52.177  0.00  0.00     0.082 A 
ATOM      4  C   UNL d   1      51.847  33.699  52.963  0.00  0.00     0.108 A 
ATOM      5  C   UNL d   1      51.076  33.917  53.167  0.00  0.00     0.102 A 
ATOM      6  O   UNL d   1      51.150  34.572  51.140  0.00  0.00    -0.267 OA
ENDROOT
BRANCH   4   7
ATOM      7  N   UNL d   1      52.400  33.328  53.453  0.00  0.00    -0.190 NA
ATOM      8  C   UNL d   1      52.711  32.600  53.236  0.00  0.00     0.354 C 
ATOM      9  N   UNL d   1      53.264  32.225  53.722  0.00  0.00    -0.256 N 
ATOM     10  O   UNL d   1      52.474  32.238  52.536  0.00  0.00    -0.244 OA
BRANCH   9  11
ATOM     11  C   UNL d   1      53.583  31.489  53.512  0.00  0.00     0.085 C 
BRANCH  11  12
ATOM     12  C   UNL d   1      53.262  30.793  53.798  0.00  0.00     0.019 C 
ATOM     13  C   UNL d   1      53.531  30.058  53.537  0.00  0.00     0.002 C 
ENDBRANCH  11  12
ENDBRANCH   9  11
BRANCH   9  14
ATOM     14  C   UNL d   1      53.503  32.587  54.425  0.00  0.00     0.085 C 
BRANCH  14  15
ATOM     15  C   UNL d   1      54.301  32.745  54.550  0.00  0.00     0.019 C 
ATOM     16  C   UNL d   1      54.537  33.178  55.221  0.00  0.00     0.002 C 
ENDBRANCH  14  15
ENDBRANCH   9  14
ENDBRANCH   4   7
BRANCH   1  17
ATOM     17  C   UNL d   1      49.958  34.563  52.480  0.00  0.00     0.067 A 
ATOM     18  C   UNL d   1      49.682  35.063  53.078  0.00  0.00     0.020 A 
ATOM     19  C   UNL d   1      48.913  35.360  53.043  0.00  0.00     0.026 A 
ATOM     20  C   UNL d   1      48.421  35.160  52.412  0.00  0.00     0.094 A 
ATOM     21  C   UNL d   1      48.692  34.664  51.815  0.00  0.00     0.026 A 
ATOM     22  C   UNL d   1      49.468  34.364  51.850  0.00  0.00     0.020 A 
BRANCH  20  23
ATOM     23  O   UNL d   1      47.654  35.462  52.384  0.00  0.00    -0.328 OA
ATOM     24  C   UNL d   1      47.503  36.141  51.944  0.00  0.00     0.181 C 
ENDBRANCH  20  23
ENDBRANCH   1  17
TORSDOF 7
ENDMDL
MODEL 2
REMARK VINA RESULT:      -7.2      0.577      1.431
REMARK  7 active torsions:
REMARK  status: ('A' for Active; 'I' for Inactive)
REMARK    1  A    between atoms: C_8  and  N_1 
REMARK       I    between atoms: C_3  and  N_5 
REMARK       I    between atoms: N_9  and  C_3 
REMARK    2  A    between atoms: N_5  and  C_6 
REMARK    3  A    between atoms: C_18  and  N_9 
REMARK    4  A    between atoms: C_19  and  N_9 
REMARK    5  A    between atoms: O_17  and  C_14 
REMARK    6  A    between atoms: C_21  and  C_18 
REMARK    7  A    between atoms: C_22  and  C_19 
ROOT
ATOM      1  N   UNL d   1      50.655  34.160  52.584  0.00  0.00    -0.272 N 
ATOM      2  C   UNL d   1      51.157  34.180  51.925  0.00  0.00     0.266 A 
ATOM      3  C   UNL d   1      51.806  33.692  52.100  0.00  0.00     0.082 A 
ATOM      4  C   UNL d   1      51.700  33.380  52.856  0.00  0.00     0.108 A 
ATOM      5  C   UNL d   1      50.985  33.673  53.151  0.00  0.00     0.102 A 
ATOM      6  O   UNL d   1      51.036  34.600  51.232  0.00  0.00    -0.267 OA
ENDROOT
BRANCH   4   7
ATOM      7  N   UNL d   1      52.219  32.866  53.244  0.00  0.00    -0.190 NA
ATOM      8  C   UNL d   1      52.928  33.153  53.542  0.00  0.00     0.354 C 
ATOM      9  N   UNL d   1      53.451  32.644  53.930  0.00  0.00    -0.256 N 
ATOM     10  O   UNL d   1      53.124  33.947  53.457  0.00  0.00    -0.244 OA
BRANCH   9  11
ATOM     11  C   UNL d   1      54.169  32.925  54.234  0.00  0.00     0.085 C 
BRANCH  11  12
ATOM     12  C   UNL d   1      54.244  33.122  55.025  0.00  0.00     0.019 C 
ATOM     13  C   UNL d   1      54.920  33.497  55.310  0.00  0.00     0.002 C 
ENDBRANCH  11  12
ENDBRANCH   9  11
BRANCH   9  14
ATOM     14  C   UNL d   1      53.255  31.846  54.017  0.00  0.00     0.085 C 
BRANCH  14  15
ATOM     15  C   UNL d   1      53.747  31.270  53.693  0.00  0.00     0.019 C 
ATOM     16  C   UNL d   1      53.501  30.474  53.684  0.00  0.00     0.002 C 
ENDBRANCH  14  15
ENDBRANCH   9  14
ENDBRANCH   4   7
BRANCH   1  17
ATOM     17  C   UNL d   1      49.941  34.566  52.652  0.00  0.00     0.067 A 
ATOM     18  C   UNL d   1      49.798  35.042  53.314  0.00  0.00     0.020 A 
ATOM     19  C   UNL d   1      49.084  35.448  53.382  0.00  0.00     0.026 A 
ATOM     20  C   UNL d   1      48.512  35.381  52.792  0.00  0.00     0.094 A 
ATOM     21  C   UNL d   1      48.649  34.909  52.132  0.00  0.00     0.026 A 
ATOM     22  C   UNL d   1      49.370  34.499  52.063  0.00  0.00     0.020 A 
BRANCH  20  23
ATOM     23  O   UNL d   1      47.800  35.790  52.868  0.00  0.00    -0.328 OA
ATOM     24  C   UNL d   1      47.411  36.054  52.192  0.00  0.00     0.181 C 
ENDBRANCH  20  23
ENDBRANCH   1  17
TORSDOF 7
ENDMDL
MODEL 3
REMARK VINA RESULT:      -7.0      1.180      5.177
REMARK  7 active torsions:
REMARK  status: ('A' for Active; 'I' for Inactive)
REMARK    1  A    between atoms: C_8  and  N_1 
REMARK       I    between atoms: C_3  and  N_5 
REMARK       I    between atoms: N_9  and  C_3 
REMARK    2  A    between atoms: N_5  and  C_6 
REMARK    3  A    between atoms: C_18  and  N_9 
REMARK    4  A    between atoms: C_19  and  N_9 
REMARK    5  A    between atoms: O_17  and  C_14 
REMARK    6  A    between atoms: C_21  and  C_18 
REMARK    7  A    between atoms: C_22  and  C_19 
ROOT
ATOM      1  N   UNL d   1      52.124  33.147  53.207  0.00  0.00    -0.272 N 
ATOM      2  C   UNL d   1      52.478  33.883  53.070  0.00  0.00     0.266 A 
ATOM      3  C   UNL d   1      51.866  34.444  53.039  0.00  0.00     0.082 A 
ATOM      4  C   UNL d   1      51.149  34.054  53.156  0.00  0.00     0.108 A 
ATOM      5  C   UNL d   1      51.315  33.251  53.259  0.00  0.00     0.102 A 
ATOM      6  O   UNL d   1      53.279  34.030  52.981  0.00  0.00    -0.267 OA
ENDROOT
BRANCH   4   7
ATOM      7  N   UNL d   1      50.401  34.409  53.167  0.00  0.00    -0.190 NA
ATOM      8  C   UNL d   1      50.027  34.588  52.459  0.00  0.00     0.354 C 
ATOM      9  N   UNL d   1      49.280  34.942  52.464  0.00  0.00    -0.256 N 
ATOM     10  O   UNL d   1      50.390  34.417  51.741  0.00  0.00    -0.244 OA
BRANCH   9  11
ATOM     11  C   UNL d   1      48.894  35.127  51.755  0.00  0.00     0.085 C 
BRANCH  11  12
ATOM     12  C   UNL d   1      48.438  34.570  51.365  0.00  0.00     0.019 C 
ATOM     13  C   UNL d   1      48.033  34.757  50.672  0.00  0.00     0.002 C 
ENDBRANCH  11  12
ENDBRANCH   9  11
BRANCH   9  14
ATOM     14  C   UNL d   1      48.914  35.115  53.185  0.00  0.00     0.085 C 
BRANCH  14  15
ATOM     15  C   UNL d   1      48.479  35.809  53.263  0.00  0.00     0.019 C 
ATOM     16  C   UNL d   1      48.088  35.974  53.981  0.00  0.00     0.002 C 
ENDBRANCH  14  15
ENDBRANCH   9  14
ENDBRANCH   4   7
BRANCH   1  17
ATOM     17  C   UNL d   1      52.525  32.430  53.278  0.00  0.00     0.067 A 
ATOM     18  C   UNL d   1      52.212  31.747  52.933  0.00  0.00     0.020 A 
ATOM     19  C   UNL d   1      52.613  31.030  53.004  0.00  0.00     0.026 A 
ATOM     20  C   UNL d   1      53.325  30.994  53.418  0.00  0.00     0.094 A 
ATOM     21  C   UNL d   1      53.641  31.670  53.763  0.00  0.00     0.026 A 
ATOM     22  C   UNL d   1      53.235  32.395  53.691  0.00  0.00     0.020 A 
BRANCH  20  23
ATOM     23  O   UNL d   1      53.720  30.272  53.484  0.00  0.00    -0.328 OA
ATOM     24  C   UNL d   1      53.323  29.622  53.796  0.00  0.00     0.181 C 
ENDBRANCH  20  23
ENDBRANCH   1  17
TORSDOF 7
ENDMDL
MODEL 4
REMARK VINA RESULT:      -6.4      1.421      5.452
REMARK  7 active torsions:
REMARK  status: ('A' for Active; 'I' for Inactive)
REMARK    1  A    between atoms: C_8  and  N_1 
REMARK       I    between atoms: C_3  and  N_5 
REMARK       I    between atoms: N_9  and  C_3 
REMARK    2  A    between atoms: N_5  and  C_6 
REMARK    3  A    between atoms: C_18  and  N_9 
REMARK    4  A    between atoms: C_19  and  N_9 
REMARK    5  A    between atoms: O_17  and  C_14 
REMARK    6  A    between atoms: C_21  and  C_18 
REMARK    7  A    between atoms: C_22  and  C_19 
ROOT
ATOM      1  N   UNL d   1      51.012  34.160  52.688  0.00  0.00    -0.272 N 
ATOM      2  C   UNL d   1      50.998  34.237  51.864  0.00  0.00     0.266 A 
ATOM      3  C   UNL d   1      50.245  34.521  51.659  0.00  0.00     0.082 A 
ATOM      4  C   UNL d   1      49.805  34.614  52.352  0.00  0.00     0.108 A 
ATOM      5  C   UNL d   1      50.286  34.388  52.985  0.00  0.00     0.102 A 
ATOM      6  O   UNL d   1      51.611  34.068  51.347  0.00  0.00    -0.267 OA
ENDROOT
BRANCH   4   7
ATOM      7  N   UNL d   1      49.025  34.884  52.397  0.00  0.00    -0.190 NA
ATOM      8  C   UNL d   1      48.829  35.472  52.935  0.00  0.00     0.354 C 
ATOM      9  N   UNL d   1      48.051  35.746  52.984  0.00  0.00    -0.256 N 
ATOM     10  O   UNL d   1      49.404  35.792  53.429  0.00  0.00    -0.244 OA
BRANCH   9  11
ATOM     11  C   UNL d   1      47.844  36.339  53.525  0.00  0.00     0.085 C 
BRANCH  11  12
ATOM     12  C   UNL d   1      47.382  36.171  54.179  0.00  0.00     0.019 C 
ATOM     13  C   UNL d   1      47.305  36.709  54.799  0.00  0.00     0.002 C 
ENDBRANCH  11  12
ENDBRANCH   9  11
BRANCH   9  14
ATOM     14  C   UNL d   1      47.473  35.425  52.489  0.00  0.00     0.085 C 
BRANCH  14  15
ATOM     15  C   UNL d   1      47.061  35.917  51.973  0.00  0.00     0.019 C 
ATOM     16  C   UNL d   1      46.502  35.592  51.448  0.00  0.00     0.002 C 
ENDBRANCH  14  15
ENDBRANCH   9  14
ENDBRANCH   4   7
BRANCH   1  17
ATOM     17  C   UNL d   1      51.655  33.894  53.131  0.00  0.00     0.067 A 
ATOM     18  C   UNL d   1      51.736  33.088  53.298  0.00  0.00     0.020 A 
ATOM     19  C   UNL d   1      52.379  32.823  53.742  0.00  0.00     0.026 A 
ATOM     20  C   UNL d   1      52.939  33.360  54.019  0.00  0.00     0.094 A 
ATOM     21  C   UNL d   1      52.863  34.162  53.856  0.00  0.00     0.026 A 
ATOM     22  C   UNL d   1      52.214  34.430  53.408  0.00  0.00     0.020 A 
BRANCH  20  23
ATOM     23  O   UNL d   1      53.579  33.086  54.462  0.00  0.00    -0.328 OA
ATOM     24  C   UNL d   1      54.302  32.956  54.090  0.00  0.00     0.181 C 
ENDBRANCH  20  23
ENDBRANCH   1  17
TORSDOF 7
ENDMDL
MODEL 5
REMARK VINA RESULT:      -6.1      1.041      1.403
REMARK  7 active torsions:
REMARK  status: ('A' for Active; 'I' for Inactive)
REMARK    1  A    between atoms: C_8  and  N_1 
REMARK       I    between atoms: C_3  and  N_5 
REMARK       I    between atoms: N_9  and  C_3 
REMARK    2  A    between atoms: N_5  and  C_6 
REMARK    3  A    between atoms: C_18  and  N_9 
REMARK    4  A    between atoms: C_19  and  N_9 
REMARK    5  A    between atoms: O_17  and  C_14 
REMARK    6  A    between atoms: C_21  and  C_18 
REMARK    7  A    between atoms: C_22  and  C_19 
ROOT
ATOM      1  N   UNL d   1      49.600  34.871  52.590  0.00  0.00    -0.272 N 
ATOM      2  C   UNL d   1      49.787  34.499  51.875  0.00  0.00     0.266 A 
ATOM      3  C   UNL d   1      50.534  34.149  51.971  0.00  0.00     0.082 A 
ATOM      4  C   UNL d   1      50.798  34.306  52.737  0.00  0.00     0.108 A 
ATOM      5  C   UNL d   1      50.215  34.754  53.115  0.00  0.00     0.102 A 
ATOM      6  O   UNL d   1      49.324  34.479  51.199  0.00  0.00    -0.267 OA
ENDROOT
BRANCH   4   7
ATOM      7  N   UNL d   1      51.517  34.058  53.061  0.00  0.00    -0.190 NA
ATOM      8  C   UNL d   1      51.659  33.257  53.171  0.00  0.00     0.354 C 
ATOM      9  N   UNL d   1      52.376  33.004  53.494  0.00  0.00    -0.256 N 
ATOM     10  O   UNL d   1      51.090  32.701  52.960  0.00  0.00    -0.244 OA
BRANCH   9  11
ATOM     11  C   UNL d   1      52.527  32.197  53.609  0.00  0.00     0.085 C 
BRANCH  11  12
ATOM     12  C   UNL d   1      52.944  31.763  53.054  0.00  0.00     0.019 C 
ATOM     13  C   UNL d   1      53.059  30.952  53.143  0.00  0.00     0.002 C 
ENDBRANCH  11  12
ENDBRANCH   9  11
BRANCH   9  14
ATOM     14  C   UNL d   1      52.948  33.561  53.707  0.00  0.00     0.085 C 
BRANCH  14  15
ATOM     15  C   UNL d   1      53.276  33.537  54.461  0.00  0.00     0.019 C 
ATOM     16  C   UNL d   1      53.810  34.132  54.698  0.00  0.00     0.002 C 
ENDBRANCH  14  15
ENDBRANCH   9  14
ENDBRANCH   4   7
BRANCH   1  17
ATOM     17  C   UNL d   1      48.906  35.290  52.743  0.00  0.00     0.067 A 
ATOM     18  C   UNL d   1      48.817  35.691  53.461  0.00  0.00     0.020 A 
ATOM     19  C   UNL d   1      48.123  36.110  53.614  0.00  0.00     0.026 A 
ATOM     20  C   UNL d   1      47.519  36.129  53.053  0.00  0.00     0.094 A 
ATOM     21  C   UNL d   1      47.603  35.732  52.337  0.00  0.00     0.026 A 
ATOM     22  C   UNL d   1      48.304  35.309  52.183  0.00  0.00     0.020 A 
BRANCH  20  23
ATOM     23  O   UNL d   1      46.829  36.550  53.214  0.00  0.00    -0.328 OA
ATOM     24  C   UNL d   1      46.200  36.169  53.586  0.00  0.00     0.181 C 
ENDBRANCH  20  23
ENDBRANCH   1  17
TORSDOF 7
ENDMDL
MODEL 6
REMARK VINA RESULT:      -4.8     10.122     11.163
REMARK  7 active torsions:
REMARK  status: ('A' for Active; 'I' for Inactive)
REMARK    1  A    between atoms: C_8  and  N_1 
REMARK       I    between atoms: C_3  and  N_5 
REMARK       I    between atoms: N_9  and  C_3 
REMARK    2  A    between atoms: N_5  and  C_6 
REMARK    3  A    between atoms: C_18  and  N_9 
REMARK    4  A    between atoms: C_19  and  N_9 
REMARK    5  A    between atoms: O_17  and  C_14 
REMARK    6  A    between atoms: C_21  and  C_18 
REMARK    7  A    between atoms: C_22  and  C_19 
ROOT
ATOM      1  N   UNL d   1      44.879  26.700  57.767  0.00  0.00    -0.272 N 
ATOM      2  C   UNL d   1      45.068  26.606  58.567  0.00  0.00     0.266 A 
ATOM      3  C   UNL d   1      45.161  27.367  58.886  0.00  0.00     0.082 A 
ATOM      4  C   UNL d   1      45.029  27.918  58.287  0.00  0.00     0.108 A 
ATOM      5  C   UNL d   1      44.855  27.499  57.596  0.00  0.00     0.102 A 
ATOM      6  O   UNL d   1      45.150  25.896  58.969  0.00  0.00    -0.267 OA
ENDROOT
BRANCH   4   7
ATOM      7  N   UNL d   1      45.066  28.740  58.369  0.00  0.00    -0.190 NA
ATOM      8  C   UNL d   1      44.758  29.095  59.042  0.00  0.00     0.354 C 
ATOM      9  N   UNL d   1      44.793  29.917  59.129  0.00  0.00    -0.256 N 
ATOM     10  O   UNL d   1      44.415  28.639  59.634  0.00  0.00    -0.244 OA
BRANCH   9  11
ATOM     11  C   UNL d   1      44.485  30.284  59.805  0.00  0.00     0.085 C 
BRANCH  11  12
ATOM     12  C   UNL d   1      44.969  30.480  60.435  0.00  0.00     0.019 C 
ATOM     13  C   UNL d   1      44.662  30.825  61.119  0.00  0.00     0.002 C 
ENDBRANCH  11  12
ENDBRANCH   9  11
BRANCH   9  14
ATOM     14  C   UNL d   1      45.137  30.377  58.535  0.00  0.00     0.085 C 
BRANCH  14  15
ATOM     15  C   UNL d   1      44.709  30.995  58.201  0.00  0.00     0.019 C 
ATOM     16  C   UNL d   1      45.058  31.468  57.610  0.00  0.00     0.002 C 
ENDBRANCH  14  15
ENDBRANCH   9  14
ENDBRANCH   4   7
BRANCH   1  17
ATOM     17  C   UNL d   1      44.739  26.086  57.234  0.00  0.00     0.067 A 
ATOM     18  C   UNL d   1      44.455  25.360  57.508  0.00  0.00     0.020 A 
ATOM     19  C   UNL d   1      44.314  24.746  56.974  0.00  0.00     0.026 A 
ATOM     20  C   UNL d   1      44.457  24.857  56.170  0.00  0.00     0.094 A 
ATOM     21  C   UNL d   1      44.740  25.578  55.893  0.00  0.00     0.026 A 
ATOM     22  C   UNL d   1      44.881  26.197  56.431  0.00  0.00     0.020 A 
BRANCH  20  23
ATOM     23  O   UNL d   1      44.314  24.238  55.644  0.00  0.00    -0.328 OA
ATOM     24  C   UNL d   1      44.725  23.530  55.731  0.00  0.00     0.181 C 
ENDBRANCH  20  23
ENDBRANCH   1  17
TORSDOF 7
ENDMDL
MODEL 7
REMARK VINA RESULT:      -4.7      9.660     10.315
REMARK  7 active torsions:
REMARK  status: ('A' for Active; 'I' for Inactive)
REMARK    1  A    between atoms: C_8  and  N_1 
REMARK       I    between atoms: C_3  and  N_5 
REMARK       I    between atoms: N_9  and  C_3 
REMARK    2  A    between atoms: N_5  and  C_6 
REMARK    3  A    between atoms: C_18  and  N_9 
REMARK    4  A    between atoms: C_19  and  N_9 
REMARK    5  A    between atoms: O_17  and  C_14 
REMARK    6  A    between atoms: C_21  and  C_18 
REMARK    7  A    between atoms: C_22  and  C_19 
ROOT
ATOM      1  N   UNL d   1      45.112  28.160  57.015  0.00  0.00    -0.272 N 
ATOM      2  C   UNL d   1      45.488  27.808  57.663  0.00  0.00     0.266 A 
ATOM      3  C   UNL d   1      45.531  26.994  57.506  0.00  0.00     0.082 A 
ATOM      4  C   UNL d   1      45.187  26.852  56.770  0.00  0.00     0.108 A 
ATOM      5  C   UNL d   1      44.929  27.579  56.470  0.00  0.00     0.102 A 
ATOM      6  O   UNL d   1      45.764  28.190  58.334  0.00  0.00    -0.267 OA
ENDROOT
BRANCH   4   7
ATOM      7  N   UNL d   1      45.115  26.114  56.403  0.00  0.00    -0.190 NA
ATOM      8  C   UNL d   1      44.753  25.496  56.802  0.00  0.00     0.354 C 
ATOM      9  N   UNL d   1      44.679  24.756  56.440  0.00  0.00    -0.256 N 
ATOM     10  O   UNL d   1      44.462  25.605  57.564  0.00  0.00    -0.244 OA
BRANCH   9  11
ATOM     11  C   UNL d   1      44.315  24.126  56.836  0.00  0.00     0.085 C 
BRANCH  11  12
ATOM     12  C   UNL d   1      44.760  23.534  57.187  0.00  0.00     0.019 C 
ATOM     13  C   UNL d   1      44.434  23.034  57.755  0.00  0.00     0.002 C 
ENDBRANCH  11  12
ENDBRANCH   9  11
BRANCH   9  14
ATOM     14  C   UNL d   1      44.971  24.645  55.675  0.00  0.00     0.085 C 
BRANCH  14  15
ATOM     15  C   UNL d   1      44.507  24.256  55.117  0.00  0.00     0.019 C 
ATOM     16  C   UNL d   1      44.666  24.357  54.305  0.00  0.00     0.002 C 
ENDBRANCH  14  15
ENDBRANCH   9  14
ENDBRANCH   4   7
BRANCH   1  17
ATOM     17  C   UNL d   1      44.952  28.965  56.935  0.00  0.00     0.067 A 
ATOM     18  C   UNL d   1      44.944  29.452  57.603  0.00  0.00     0.020 A 
ATOM     19  C   UNL d   1      44.783  30.257  57.524  0.00  0.00     0.026 A 
ATOM     20  C   UNL d   1      44.631  30.576  56.779  0.00  0.00     0.094 A 
ATOM     21  C   UNL d   1      44.638  30.096  56.111  0.00  0.00     0.026 A 
ATOM     22  C   UNL d   1      44.800  29.283  56.192  0.00  0.00     0.020 A 
BRANCH  20  23
ATOM     23  O   UNL d   1      44.471  31.383  56.708  0.00  0.00    -0.328 OA
ATOM     24  C   UNL d   1      44.551  31.870  57.368  0.00  0.00     0.181 C 
ENDBRANCH  20  23
ENDBRANCH   1  17
TORSDOF 7
ENDMDL
