MODEL 1
REMARK VINA RESULT:      -6.9      0.000      0.000
REMARK  3 active torsions:
REMARK  status: ('A' for Active; 'I' for Inactive)
REMARK    1  A    between atoms: C_8  and  N_2 
REMARK    2  A    between atoms: C_12  and  C_8 
REMARK    3  A    between atoms: N_11  and  C_12 
ROOT
ATOM      1  C   UNL d   1     -48.143  12.769  23.232  0.00  0.00     0.166 A 
ATOM      2  N   UNL d   1     -47.320  12.827  23.170  0.00  0.00    -0.288 N 
ATOM      3  C   UNL d   1     -48.472  13.508  23.065  0.00  0.00     0.117 A 
ATOM      4  N   UNL d   1     -48.624  12.128  23.422  0.00  0.00    -0.225 NA
ATOM      5  N   UNL d   1     -49.287  13.604  23.088  0.00  0.00    -0.241 NA
ATOM      6  C   UNL d   1     -47.850  14.026  22.898  0.00  0.00     0.037 A 
ATOM      7  C   UNL d   1     -47.156  13.604  22.964  0.00  0.00     0.067 A 
ATOM      8  C   UNL d   1     -49.436  12.219  23.446  0.00  0.00     0.101 A 
ATOM      9  C   UNL d   1     -49.767  12.957  23.279  0.00  0.00     0.099 A 
ATOM     10  C   UNL d   1     -47.865  14.842  22.693  0.00  0.00     0.003 A 
ATOM     11  C   UNL d   1     -46.429  13.994  22.824  0.00  0.00     0.018 A 
ATOM     12  C   UNL d   1     -49.916  11.572  23.637  0.00  0.00     0.021 A 
ATOM     13  C   UNL d   1     -50.523  12.988  23.315  0.00  0.00     0.021 A 
ATOM     14  C   UNL d   1     -47.156  15.215  22.558  0.00  0.00     0.000 A 
ATOM     15  C   UNL d   1     -46.503  14.756  22.636  0.00  0.00     0.002 A 
ATOM     16  C   UNL d   1     -51.058  12.405  23.493  0.00  0.00     0.002 A 
ATOM     17  C   UNL d   1     -50.723  11.666  23.660  0.00  0.00     0.002 A 
ENDROOT
BRANCH   2  18
ATOM     18  C   UNL d   1     -46.551  12.531  23.200  0.00  0.00     0.101 C 
BRANCH  18  19
ATOM     19  C   UNL d   1     -46.639  11.735  23.332  0.00  0.00     0.100 C 
BRANCH  19  20
ATOM     20  N   UNL d   1     -45.871  11.433  23.328  0.00  0.00    -0.298 N 
ATOM     21  C   UNL d   1     -45.266  11.850  22.953  0.00  0.00     0.107 A 
ATOM     22  C   UNL d   1     -44.498  11.547  22.949  0.00  0.00     0.142 A 
ATOM     23  O   UNL d   1     -44.333  10.824  23.320  0.00  0.00    -0.300 OA
ATOM     24  C   UNL d   1     -44.939  10.407  23.694  0.00  0.00     0.142 A 
ATOM     25  C   UNL d   1     -45.709  10.713  23.698  0.00  0.00     0.107 A 
ENDBRANCH  19  20
ENDBRANCH  18  19
ENDBRANCH   2  18
TORSDOF 3
ENDMDL
MODEL 2
REMARK VINA RESULT:      -6.8      1.351      2.749
REMARK  3 active torsions:
REMARK  status: ('A' for Active; 'I' for Inactive)
REMARK    1  A    between atoms: C_8  and  N_2 
REMARK    2  A    between atoms: C_12  and  C_8 
REMARK    3  A    between atoms: N_11  and  C_12 
ROOT
ATOM      1  C   UNL d   1     -48.964  13.458  23.317  0.00  0.00     0.166 A 
ATOM      2  N   UNL d   1     -48.345  12.917  23.225  0.00  0.00    -0.288 N 
ATOM      3  C   UNL d   1     -49.652  13.042  23.506  0.00  0.00     0.117 A 
ATOM      4  N   UNL d   1     -48.974  14.279  23.248  0.00  0.00    -0.225 NA
ATOM      5  N   UNL d   1     -50.353  13.450  23.628  0.00  0.00    -0.241 NA
ATOM      6  C   UNL d   1     -49.458  12.240  23.532  0.00  0.00     0.037 A 
ATOM      7  C   UNL d   1     -48.664  12.173  23.360  0.00  0.00     0.067 A 
ATOM      8  C   UNL d   1     -49.671  14.690  23.369  0.00  0.00     0.101 A 
ATOM      9  C   UNL d   1     -50.359  14.276  23.559  0.00  0.00     0.099 A 
ATOM     10  C   UNL d   1     -49.941  11.570  23.698  0.00  0.00     0.003 A 
ATOM     11  C   UNL d   1     -48.313  11.414  23.347  0.00  0.00     0.018 A 
ATOM     12  C   UNL d   1     -49.678  15.515  23.300  0.00  0.00     0.021 A 
ATOM     13  C   UNL d   1     -50.976  14.703  23.660  0.00  0.00     0.021 A 
ATOM     14  C   UNL d   1     -49.595  10.836  23.683  0.00  0.00     0.000 A 
ATOM     15  C   UNL d   1     -48.811  10.825  23.509  0.00  0.00     0.002 A 
ATOM     16  C   UNL d   1     -51.064  15.508  23.610  0.00  0.00     0.002 A 
ATOM     17  C   UNL d   1     -50.371  15.921  23.420  0.00  0.00     0.002 A 
ENDROOT
BRANCH   2  18
ATOM     18  C   UNL d   1     -47.564  12.702  23.068  0.00  0.00     0.101 C 
BRANCH  18  19
ATOM     19  C   UNL d   1     -47.165  13.405  22.994  0.00  0.00     0.100 C 
BRANCH  19  20
ATOM     20  N   UNL d   1     -46.404  13.192  22.759  0.00  0.00    -0.298 N 
ATOM     21  C   UNL d   1     -45.988  12.615  23.177  0.00  0.00     0.107 A 
ATOM     22  C   UNL d   1     -45.227  12.403  22.941  0.00  0.00     0.142 A 
ATOM     23  O   UNL d   1     -44.876  12.768  22.285  0.00  0.00    -0.300 OA
ATOM     24  C   UNL d   1     -45.291  13.346  21.867  0.00  0.00     0.142 A 
ATOM     25  C   UNL d   1     -46.057  13.558  22.105  0.00  0.00     0.107 A 
ENDBRANCH  19  20
ENDBRANCH  18  19
ENDBRANCH   2  18
TORSDOF 3
ENDMDL
MODEL 3
REMARK VINA RESULT:      -6.2      8.055      9.676
REMARK  3 active torsions:
REMARK  status: ('A' for Active; 'I' for Inactive)
REMARK    1  A    between atoms: C_8  and  N_2 
REMARK    2  A    between atoms: C_12  and  C_8 
REMARK    3  A    between atoms: N_11  and  C_12 
ROOT
ATOM      1  C   UNL d   1     -39.261  14.361  20.481  0.00  0.00     0.166 A 
ATOM      2  N   UNL d   1     -39.432  14.673  19.734  0.00  0.00    -0.288 N 
ATOM      3  C   UNL d   1     -39.839  14.617  21.012  0.00  0.00     0.117 A 
ATOM      4  N   UNL d   1     -38.644  13.876  20.732  0.00  0.00    -0.225 NA
ATOM      5  N   UNL d   1     -39.799  14.385  21.798  0.00  0.00    -0.241 NA
ATOM      6  C   UNL d   1     -40.371  15.089  20.592  0.00  0.00     0.037 A 
ATOM      7  C   UNL d   1     -40.117  15.118  19.819  0.00  0.00     0.067 A 
ATOM      8  C   UNL d   1     -38.601  13.642  21.514  0.00  0.00     0.101 A 
ATOM      9  C   UNL d   1     -39.178  13.897  22.047  0.00  0.00     0.099 A 
ATOM     10  C   UNL d   1     -41.062  15.492  20.855  0.00  0.00     0.003 A 
ATOM     11  C   UNL d   1     -40.556  15.562  19.262  0.00  0.00     0.018 A 
ATOM     12  C   UNL d   1     -37.980  13.154  21.763  0.00  0.00     0.021 A 
ATOM     13  C   UNL d   1     -39.092  13.652  22.758  0.00  0.00     0.021 A 
ATOM     14  C   UNL d   1     -41.485  15.922  20.311  0.00  0.00     0.000 A 
ATOM     15  C   UNL d   1     -41.192  15.917  19.563  0.00  0.00     0.002 A 
ATOM     16  C   UNL d   1     -38.517  13.177  23.078  0.00  0.00     0.002 A 
ATOM     17  C   UNL d   1     -37.940  12.923  22.541  0.00  0.00     0.002 A 
ENDROOT
BRANCH   2  18
ATOM     18  C   UNL d   1     -39.295  14.790  18.929  0.00  0.00     0.101 C 
BRANCH  18  19
ATOM     19  C   UNL d   1     -38.613  14.379  18.772  0.00  0.00     0.100 C 
BRANCH  19  20
ATOM     20  N   UNL d   1     -38.496  14.465  17.960  0.00  0.00    -0.298 N 
ATOM     21  C   UNL d   1     -38.802  13.905  17.437  0.00  0.00     0.107 A 
ATOM     22  C   UNL d   1     -38.684  13.992  16.625  0.00  0.00     0.142 A 
ATOM     23  O   UNL d   1     -38.259  14.641  16.332  0.00  0.00    -0.300 OA
ATOM     24  C   UNL d   1     -37.953  15.201  16.855  0.00  0.00     0.142 A 
ATOM     25  C   UNL d   1     -38.072  15.112  17.671  0.00  0.00     0.107 A 
ENDBRANCH  19  20
ENDBRANCH  18  19
ENDBRANCH   2  18
TORSDOF 3
ENDMDL
MODEL 4
REMARK VINA RESULT:      -6.1      0.818      1.193
REMARK  3 active torsions:
REMARK  status: ('A' for Active; 'I' for Inactive)
REMARK    1  A    between atoms: C_8  and  N_2 
REMARK    2  A    between atoms: C_12  and  C_8 
REMARK    3  A    between atoms: N_11  and  C_12 
ROOT
ATOM      1  C   UNL d   1     -48.444  13.156  23.014  0.00  0.00     0.166 A 
ATOM      2  N   UNL d   1     -47.692  13.452  22.838  0.00  0.00    -0.288 N 
ATOM      3  C   UNL d   1     -48.987  13.777  22.974  0.00  0.00     0.117 A 
ATOM      4  N   UNL d   1     -48.691  12.393  23.204  0.00  0.00    -0.225 NA
ATOM      5  N   UNL d   1     -49.781  13.633  23.126  0.00  0.00    -0.241 NA
ATOM      6  C   UNL d   1     -48.569  14.460  22.773  0.00  0.00     0.037 A 
ATOM      7  C   UNL d   1     -47.785  14.254  22.693  0.00  0.00     0.067 A 
ATOM      8  C   UNL d   1     -49.481  12.245  23.356  0.00  0.00     0.101 A 
ATOM      9  C   UNL d   1     -50.025  12.865  23.317  0.00  0.00     0.099 A 
ATOM     10  C   UNL d   1     -48.842  15.249  22.659  0.00  0.00     0.003 A 
ATOM     11  C   UNL d   1     -47.228  14.844  22.489  0.00  0.00     0.018 A 
ATOM     12  C   UNL d   1     -49.725  11.477  23.547  0.00  0.00     0.021 A 
ATOM     13  C   UNL d   1     -50.743  12.674  23.466  0.00  0.00     0.021 A 
ATOM     14  C   UNL d   1     -48.297  15.817  22.461  0.00  0.00     0.000 A 
ATOM     15  C   UNL d   1     -47.539  15.562  22.394  0.00  0.00     0.002 A 
ATOM     16  C   UNL d   1     -51.059  11.953  23.659  0.00  0.00     0.002 A 
ATOM     17  C   UNL d   1     -50.510  11.333  23.697  0.00  0.00     0.002 A 
ENDROOT
BRANCH   2  18
ATOM     18  C   UNL d   1     -46.877  13.388  22.724  0.00  0.00     0.101 C 
BRANCH  18  19
ATOM     19  C   UNL d   1     -46.769  12.651  22.404  0.00  0.00     0.100 C 
BRANCH  19  20
ATOM     20  N   UNL d   1     -45.952  12.533  22.416  0.00  0.00    -0.298 N 
ATOM     21  C   UNL d   1     -45.617  12.023  22.970  0.00  0.00     0.107 A 
ATOM     22  C   UNL d   1     -44.800  11.906  22.981  0.00  0.00     0.142 A 
ATOM     23  O   UNL d   1     -44.315  12.299  22.437  0.00  0.00    -0.300 OA
ATOM     24  C   UNL d   1     -44.650  12.809  21.882  0.00  0.00     0.142 A 
ATOM     25  C   UNL d   1     -45.471  12.926  21.872  0.00  0.00     0.107 A 
ENDBRANCH  19  20
ENDBRANCH  18  19
ENDBRANCH   2  18
TORSDOF 3
ENDMDL
MODEL 5
REMARK VINA RESULT:      -5.8      8.244      9.671
REMARK  3 active torsions:
REMARK  status: ('A' for Active; 'I' for Inactive)
REMARK    1  A    between atoms: C_8  and  N_2 
REMARK    2  A    between atoms: C_12  and  C_8 
REMARK    3  A    between atoms: N_11  and  C_12 
ROOT
ATOM      1  C   UNL d   1     -39.273  14.198  19.273  0.00  0.00     0.166 A 
ATOM      2  N   UNL d   1     -39.461  14.357  20.063  0.00  0.00    -0.288 N 
ATOM      3  C   UNL d   1     -39.788  14.626  18.789  0.00  0.00     0.117 A 
ATOM      4  N   UNL d   1     -38.693  13.713  18.946  0.00  0.00    -0.225 NA
ATOM      5  N   UNL d   1     -39.721  14.566  17.973  0.00  0.00    -0.241 NA
ATOM      6  C   UNL d   1     -40.296  15.051  19.281  0.00  0.00     0.037 A 
ATOM      7  C   UNL d   1     -40.091  14.883  20.051  0.00  0.00     0.067 A 
ATOM      8  C   UNL d   1     -38.623  13.651  18.133  0.00  0.00     0.101 A 
ATOM      9  C   UNL d   1     -39.137  14.078  17.647  0.00  0.00     0.099 A 
ATOM     10  C   UNL d   1     -40.925  15.576  19.086  0.00  0.00     0.003 A 
ATOM     11  C   UNL d   1     -40.518  15.242  20.674  0.00  0.00     0.018 A 
ATOM     12  C   UNL d   1     -38.039  13.162  17.808  0.00  0.00     0.021 A 
ATOM     13  C   UNL d   1     -39.029  13.985  16.903  0.00  0.00     0.021 A 
ATOM     14  C   UNL d   1     -41.337  15.922  19.695  0.00  0.00     0.000 A 
ATOM     15  C   UNL d   1     -41.095  15.723  20.434  0.00  0.00     0.002 A 
ATOM     16  C   UNL d   1     -38.485  13.530  16.510  0.00  0.00     0.002 A 
ATOM     17  C   UNL d   1     -37.972  13.103  17.000  0.00  0.00     0.002 A 
ENDROOT
BRANCH   2  18
ATOM     18  C   UNL d   1     -39.365  14.280  20.878  0.00  0.00     0.101 C 
BRANCH  18  19
ATOM     19  C   UNL d   1     -38.655  13.898  20.970  0.00  0.00     0.100 C 
BRANCH  19  20
ATOM     20  N   UNL d   1     -38.513  13.906  21.782  0.00  0.00    -0.298 N 
ATOM     21  C   UNL d   1     -38.084  14.524  22.121  0.00  0.00     0.107 A 
ATOM     22  C   UNL d   1     -37.943  14.531  22.934  0.00  0.00     0.142 A 
ATOM     23  O   UNL d   1     -38.231  13.918  23.412  0.00  0.00    -0.300 OA
ATOM     24  C   UNL d   1     -38.659  13.300  23.074  0.00  0.00     0.142 A 
ATOM     25  C   UNL d   1     -38.801  13.294  22.257  0.00  0.00     0.107 A 
ENDBRANCH  19  20
ENDBRANCH  18  19
ENDBRANCH   2  18
TORSDOF 3
ENDMDL
MODEL 6
REMARK VINA RESULT:      -4.4      2.126      4.929
REMARK  3 active torsions:
REMARK  status: ('A' for Active; 'I' for Inactive)
REMARK    1  A    between atoms: C_8  and  N_2 
REMARK    2  A    between atoms: C_12  and  C_8 
REMARK    3  A    between atoms: N_11  and  C_12 
ROOT
ATOM      1  C   UNL d   1     -45.670  12.923  22.365  0.00  0.00     0.166 A 
ATOM      2  N   UNL d   1     -46.463  12.992  22.590  0.00  0.00    -0.288 N 
ATOM      3  C   UNL d   1     -45.388  12.188  22.617  0.00  0.00     0.117 A 
ATOM      4  N   UNL d   1     -45.178  13.447  21.962  0.00  0.00    -0.225 NA
ATOM      5  N   UNL d   1     -44.610  11.977  22.463  0.00  0.00    -0.241 NA
ATOM      6  C   UNL d   1     -46.009  11.801  22.998  0.00  0.00     0.037 A 
ATOM      7  C   UNL d   1     -46.657  12.295  22.977  0.00  0.00     0.067 A 
ATOM      8  C   UNL d   1     -44.401  13.240  21.807  0.00  0.00     0.101 A 
ATOM      9  C   UNL d   1     -44.118  12.506  22.057  0.00  0.00     0.099 A 
ATOM     10  C   UNL d   1     -46.034  11.041  23.360  0.00  0.00     0.003 A 
ATOM     11  C   UNL d   1     -47.373  12.042  23.327  0.00  0.00     0.018 A 
ATOM     12  C   UNL d   1     -43.910  13.769  21.402  0.00  0.00     0.021 A 
ATOM     13  C   UNL d   1     -43.394  12.365  21.888  0.00  0.00     0.021 A 
ATOM     14  C   UNL d   1     -46.732  10.800  23.698  0.00  0.00     0.000 A 
ATOM     15  C   UNL d   1     -47.338  11.324  23.650  0.00  0.00     0.002 A 
ATOM     16  C   UNL d   1     -42.852  12.826  21.498  0.00  0.00     0.002 A 
ATOM     17  C   UNL d   1     -43.140  13.562  21.249  0.00  0.00     0.002 A 
ENDROOT
BRANCH   2  18
ATOM     18  C   UNL d   1     -47.188  13.382  22.643  0.00  0.00     0.101 C 
BRANCH  18  19
ATOM     19  C   UNL d   1     -47.138  13.989  22.107  0.00  0.00     0.100 C 
BRANCH  19  20
ATOM     20  N   UNL d   1     -47.852  14.396  22.181  0.00  0.00    -0.298 N 
ATOM     21  C   UNL d   1     -47.894  15.074  22.649  0.00  0.00     0.107 A 
ATOM     22  C   UNL d   1     -48.609  15.480  22.722  0.00  0.00     0.142 A 
ATOM     23  O   UNL d   1     -49.285  15.209  22.326  0.00  0.00    -0.300 OA
ATOM     24  C   UNL d   1     -49.242  14.531  21.858  0.00  0.00     0.142 A 
ATOM     25  C   UNL d   1     -48.524  14.124  21.786  0.00  0.00     0.107 A 
ENDBRANCH  19  20
ENDBRANCH  18  19
ENDBRANCH   2  18
TORSDOF 3
ENDMDL
