MODEL 1
REMARK VINA RESULT:      18.8      0.000      0.000
REMARK  1 active torsions:
REMARK  status: ('A' for Active; 'I' for Inactive)
REMARK    1  A    between atoms: C_14  and  C_6 
ROOT
ATOM      1  C   UNL d   1      46.345 -18.221  42.950  0.00  0.00     0.174 A 
ATOM      2  N   UNL d   1      46.391 -18.994  43.237  0.00  0.00    -0.250 N 
ATOM      3  C   UNL d   1      46.176 -17.583  43.452  0.00  0.00     0.061 A 
ATOM      4  C   UNL d   1      46.050 -17.725  44.255  0.00  0.00     0.115 A 
ATOM      5  N   UNL d   1      46.098 -18.499  44.525  0.00  0.00    -0.221 NA
ATOM      6  C   UNL d   1      46.265 -19.135  44.040  0.00  0.00     0.151 A 
ATOM      7  N   UNL d   1      46.504 -18.257  42.089  0.00  0.00    -0.128 NA
ATOM      8  C   UNL d   1      46.578 -19.545  42.578  0.00  0.00     0.228 A 
ATOM      9  S   UNL d   1      45.884 -17.094  44.740  0.00  0.00    -0.068 SA
ATOM     10  C   UNL d   1      45.965 -16.200  43.663  0.00  0.00     0.011 A 
ATOM     11  C   UNL d   1      45.839 -16.341  44.466  0.00  0.00     0.031 A 
ATOM     12  N   UNL d   1      46.641 -19.054  41.881  0.00  0.00    -0.117 NA
ATOM     13  S   UNL d   1      46.647 -20.272  42.701  0.00  0.00    -0.036 SA
ATOM     14  C   UNL d   1      45.917 -15.412  43.378  0.00  0.00     0.001 A 
ATOM     15  C   UNL d   1      45.669 -15.690  44.954  0.00  0.00     0.006 A 
ATOM     16  C   UNL d   1      45.749 -14.789  43.878  0.00  0.00     0.000 A 
ATOM     17  C   UNL d   1      45.623 -14.931  44.681  0.00  0.00     0.001 A 
ENDROOT
BRANCH   6  18
ATOM     18  C   UNL d   1      46.294 -19.743  44.304  0.00  0.00     0.037 C 
ATOM     19  C   UNL d   1      46.281 -19.967  44.925  0.00  0.00     0.003 C 
ENDBRANCH   6  18
TORSDOF 1
ENDMDL
