MODEL 1
REMARK VINA RESULT:      -5.4      0.000      0.000
REMARK  6 active torsions:
REMARK  status: ('A' for Active; 'I' for Inactive)
REMARK    1  A    between atoms: C_2  and  C_1 
REMARK       I    between atoms: N_5  and  C_1 
REMARK    2  A    between atoms: C_4  and  C_2 
REMARK    3  A    between atoms: O_13  and  C_3 
REMARK    4  A    between atoms: C_9  and  C_4 
REMARK    5  A    between atoms: C_11  and  N_5 
REMARK    6  A    between atoms: O_14  and  C_6 
ROOT
ATOM      1  C   UNL d   1     -41.643-122.262 -51.572  0.00  0.00     0.005 C 
ENDROOT
BRANCH   1   2
ATOM      2  C   UNL d   1     -41.330-122.667 -52.222  0.00  0.00     0.062 C 
BRANCH   2   3
ATOM      3  C   UNL d   1     -41.413-122.357 -52.983  0.00  0.00     0.279 C 
ATOM      4  N   UNL d   1     -41.776-122.761 -53.531  0.00  0.00    -0.208 NA
ATOM      5  O   UNL d   1     -41.125-121.656 -53.147  0.00  0.00    -0.265 OA
BRANCH   4   6
ATOM      6  C   UNL d   1     -41.854-122.472 -54.244  0.00  0.00     0.085 A 
ATOM      7  C   UNL d   1     -42.425-121.954 -54.372  0.00  0.00     0.019 A 
ATOM      8  C   UNL d   1     -42.510-121.659 -55.081  0.00  0.00     0.002 A 
ATOM      9  C   UNL d   1     -42.020-121.883 -55.669  0.00  0.00     0.000 A 
ATOM     10  C   UNL d   1     -41.449-122.404 -55.532  0.00  0.00     0.002 A 
ATOM     11  C   UNL d   1     -41.361-122.703 -54.818  0.00  0.00     0.019 A 
ENDBRANCH   4   6
ENDBRANCH   2   3
ENDBRANCH   1   2
BRANCH   1  12
ATOM     12  C   UNL d   1     -41.703-122.637 -50.840  0.00  0.00     0.002 A 
ATOM     13  C   UNL d   1     -42.348-122.475 -50.340  0.00  0.00     0.026 A 
ATOM     14  C   UNL d   1     -42.408-122.850 -49.607  0.00  0.00     0.116 A 
ATOM     15  C   UNL d   1     -41.824-123.386 -49.375  0.00  0.00     0.116 A 
ATOM     16  C   UNL d   1     -41.180-123.548 -49.871  0.00  0.00     0.026 A 
ATOM     17  C   UNL d   1     -41.123-123.171 -50.605  0.00  0.00     0.002 A 
BRANCH  14  18
ATOM     18  O   UNL d   1     -43.040-122.692 -49.119  0.00  0.00    -0.326 OA
ATOM     19  C   UNL d   1     -43.791-122.574 -49.442  0.00  0.00     0.181 C 
ENDBRANCH  14  18
BRANCH  15  20
ATOM     20  O   UNL d   1     -41.878-123.766 -48.640  0.00  0.00    -0.326 OA
ATOM     21  C   UNL d   1     -41.243-123.745 -48.111  0.00  0.00     0.181 C 
ENDBRANCH  15  20
ENDBRANCH   1  12
TORSDOF 6
ENDMDL
MODEL 2
REMARK VINA RESULT:      -4.0      1.473      5.074
REMARK  6 active torsions:
REMARK  status: ('A' for Active; 'I' for Inactive)
REMARK    1  A    between atoms: C_2  and  C_1 
REMARK       I    between atoms: N_5  and  C_1 
REMARK    2  A    between atoms: C_4  and  C_2 
REMARK    3  A    between atoms: O_13  and  C_3 
REMARK    4  A    between atoms: C_9  and  C_4 
REMARK    5  A    between atoms: C_11  and  N_5 
REMARK    6  A    between atoms: O_14  and  C_6 
ROOT
ATOM      1  C   UNL d   1     -41.360-122.627 -51.306  0.00  0.00     0.005 C 
ENDROOT
BRANCH   1   2
ATOM      2  C   UNL d   1     -41.475-123.258 -50.784  0.00  0.00     0.062 C 
BRANCH   2   3
ATOM      3  C   UNL d   1     -41.531-123.119 -49.972  0.00  0.00     0.279 C 
ATOM      4  N   UNL d   1     -41.873-123.634 -49.511  0.00  0.00    -0.208 NA
ATOM      5  O   UNL d   1     -41.237-122.467 -49.671  0.00  0.00    -0.265 OA
BRANCH   4   6
ATOM      6  C   UNL d   1     -41.926-123.505 -48.750  0.00  0.00     0.085 A 
ATOM      7  C   UNL d   1     -41.314-123.690 -48.300  0.00  0.00     0.019 A 
ATOM      8  C   UNL d   1     -41.358-123.564 -47.539  0.00  0.00     0.002 A 
ATOM      9  C   UNL d   1     -42.019-123.249 -47.223  0.00  0.00     0.000 A 
ATOM     10  C   UNL d   1     -42.629-123.065 -47.682  0.00  0.00     0.002 A 
ATOM     11  C   UNL d   1     -42.587-123.191 -48.450  0.00  0.00     0.019 A 
ENDBRANCH   4   6
ENDBRANCH   2   3
ENDBRANCH   1   2
BRANCH   1  12
ATOM     12  C   UNL d   1     -41.404-122.750 -52.121  0.00  0.00     0.002 A 
ATOM     13  C   UNL d   1     -41.731-122.165 -52.614  0.00  0.00     0.026 A 
ATOM     14  C   UNL d   1     -41.774-122.288 -53.429  0.00  0.00     0.116 A 
ATOM     15  C   UNL d   1     -41.491-122.995 -53.750  0.00  0.00     0.116 A 
ATOM     16  C   UNL d   1     -41.164-123.578 -53.260  0.00  0.00     0.026 A 
ATOM     17  C   UNL d   1     -41.123-123.452 -52.444  0.00  0.00     0.002 A 
BRANCH  14  18
ATOM     18  O   UNL d   1     -42.094-121.716 -53.911  0.00  0.00    -0.326 OA
ATOM     19  C   UNL d   1     -42.327-120.990 -53.591  0.00  0.00     0.181 C 
ENDBRANCH  14  18
BRANCH  15  20
ATOM     20  O   UNL d   1     -41.531-123.125 -54.568  0.00  0.00    -0.326 OA
ATOM     21  C   UNL d   1     -41.221-123.817 -54.897  0.00  0.00     0.181 C 
ENDBRANCH  15  20
ENDBRANCH   1  12
TORSDOF 6
ENDMDL
