MODEL 1
REMARK VINA RESULT:      43.2      0.000      0.000
REMARK  5 active torsions:
REMARK  status: ('A' for Active; 'I' for Inactive)
REMARK    1  A    between atoms: C_6  and  N_1 
REMARK    2  A    between atoms: C_10  and  C_6 
REMARK    3  A    between atoms: O_18  and  C_12 
REMARK    4  A    between atoms: C_20  and  O_18 
REMARK    5  A    between atoms: C_21  and  C_20 
ROOT
ATOM      1  N   UNL d   1      58.499  49.700  50.239  0.00  0.00    -0.251 N 
ATOM      2  C   UNL d   1      58.595  49.695  49.409  0.00  0.00     0.378 A 
ATOM      3  C   UNL d   1      57.688  49.700  50.401  0.00  0.00     0.092 A 
ATOM      4  O   UNL d   1      57.842  49.692  49.064  0.00  0.00    -0.258 OA
ATOM      5  C   UNL d   1      57.282  49.695  49.676  0.00  0.00     0.121 A 
ATOM      6  O   UNL d   1      59.314  49.694  49.011  0.00  0.00    -0.237 OA
ATOM      7  C   UNL d   1      57.275  49.704  51.110  0.00  0.00     0.020 A 
ATOM      8  C   UNL d   1      56.455  49.694  49.676  0.00  0.00     0.026 A 
ATOM      9  C   UNL d   1      56.450  49.702  51.100  0.00  0.00     0.002 A 
ATOM     10  C   UNL d   1      56.042  49.698  50.385  0.00  0.00     0.002 A 
ATOM     11  C   UNL d   1      56.038  49.706  51.818  0.00  0.00     0.000 C 
ENDROOT
BRANCH   1  12
ATOM     12  C   UNL d   1      59.079  49.704  50.825  0.00  0.00     0.085 C 
BRANCH  12  13
ATOM     13  C   UNL d   1      59.702  49.164  50.790  0.00  0.00     0.018 A 
ATOM     14  C   UNL d   1      59.708  48.506  51.273  0.00  0.00     0.004 A 
ATOM     15  C   UNL d   1      60.326  47.972  51.237  0.00  0.00     0.025 A 
ATOM     16  C   UNL d   1      60.948  48.097  50.709  0.00  0.00     0.100 A 
ATOM     17  C   UNL d   1      60.941  48.760  50.222  0.00  0.00     0.025 A 
ATOM     18  C   UNL d   1      60.316  49.299  50.260  0.00  0.00     0.004 A 
BRANCH  16  19
ATOM     19  O   UNL d   1      61.568  47.560  50.673  0.00  0.00    -0.305 OA
BRANCH  19  20
ATOM     20  C   UNL d   1      61.549  46.953  50.124  0.00  0.00     0.123 C 
BRANCH  20  21
ATOM     21  C   UNL d   1      62.225  46.755  49.707  0.00  0.00     0.027 C 
ATOM     22  C   UNL d   1      62.258  46.048  49.281  0.00  0.00     0.002 C 
ENDBRANCH  20  21
ENDBRANCH  19  20
ENDBRANCH  16  19
ENDBRANCH  12  13
ENDBRANCH   1  12
TORSDOF 5
ENDMDL
