MODEL 1
REMARK VINA RESULT:      -9.3      0.000      0.000
REMARK  1 active torsions:
REMARK  status: ('A' for Active; 'I' for Inactive)
REMARK    1  A    between atoms: C_6  and  C_1 
ROOT
ATOM      1  C   UNL d   1      53.875  31.897  54.016  0.00  0.00     0.162 A 
ATOM      2  N   UNL d   1      54.450  32.334  53.637  0.00  0.00    -0.225 NA
ATOM      3  N   UNL d   1      53.768  32.210  54.770  0.00  0.00    -0.225 NA
ATOM      4  C   UNL d   1      54.705  32.927  54.162  0.00  0.00     0.101 A 
ATOM      5  C   UNL d   1      54.285  32.851  54.861  0.00  0.00     0.101 A 
ATOM      6  C   UNL d   1      55.271  33.519  54.073  0.00  0.00     0.021 A 
ATOM      7  C   UNL d   1      54.420  33.364  55.486  0.00  0.00     0.021 A 
ATOM      8  C   UNL d   1      54.985  33.960  55.403  0.00  0.00     0.002 A 
ATOM      9  C   UNL d   1      55.413  34.037  54.692  0.00  0.00     0.002 A 
ENDROOT
BRANCH   1  10
ATOM     10  C   UNL d   1      53.467  31.250  53.699  0.00  0.00     0.037 A 
ATOM     11  C   UNL d   1      53.577  30.490  54.007  0.00  0.00     0.024 A 
ATOM     12  C   UNL d   1      53.171  29.847  53.693  0.00  0.00     0.103 A 
ATOM     13  N   UNL d   1      53.293  29.085  54.014  0.00  0.00    -0.148 N 
ATOM     14  C   UNL d   1      52.652  29.952  53.069  0.00  0.00     0.021 A 
ATOM     15  C   UNL d   1      52.530  30.714  52.747  0.00  0.00     0.002 A 
ATOM     16  C   UNL d   1      52.943  31.369  53.068  0.00  0.00     0.003 A 
ENDBRANCH   1  10
TORSDOF 1
ENDMDL
MODEL 2
REMARK VINA RESULT:      -9.2      0.987      3.761
REMARK  1 active torsions:
REMARK  status: ('A' for Active; 'I' for Inactive)
REMARK    1  A    between atoms: C_6  and  C_1 
ROOT
ATOM      1  C   UNL d   1      53.662  32.178  54.103  0.00  0.00     0.162 A 
ATOM      2  N   UNL d   1      53.738  31.449  54.462  0.00  0.00    -0.225 NA
ATOM      3  N   UNL d   1      53.308  32.068  53.369  0.00  0.00    -0.225 NA
ATOM      4  C   UNL d   1      53.426  30.878  53.943  0.00  0.00     0.101 A 
ATOM      5  C   UNL d   1      53.161  31.260  53.269  0.00  0.00     0.101 A 
ATOM      6  C   UNL d   1      53.360  30.061  54.019  0.00  0.00     0.021 A 
ATOM      7  C   UNL d   1      52.823  30.833  52.655  0.00  0.00     0.021 A 
ATOM      8  C   UNL d   1      52.753  30.014  52.724  0.00  0.00     0.002 A 
ATOM      9  C   UNL d   1      53.024  29.626  53.411  0.00  0.00     0.002 A 
ENDROOT
BRANCH   1  10
ATOM     10  C   UNL d   1      53.900  32.904  54.421  0.00  0.00     0.037 A 
ATOM     11  C   UNL d   1      53.366  33.534  54.481  0.00  0.00     0.024 A 
ATOM     12  C   UNL d   1      53.603  34.256  54.797  0.00  0.00     0.103 A 
ATOM     13  N   UNL d   1      53.052  34.882  54.850  0.00  0.00    -0.148 N 
ATOM     14  C   UNL d   1      54.372  34.360  55.056  0.00  0.00     0.021 A 
ATOM     15  C   UNL d   1      54.922  33.734  55.003  0.00  0.00     0.002 A 
ATOM     16  C   UNL d   1      54.682  32.999  54.681  0.00  0.00     0.003 A 
ENDBRANCH   1  10
TORSDOF 1
ENDMDL
MODEL 3
REMARK VINA RESULT:      -8.8      2.721      3.361
REMARK  1 active torsions:
REMARK  status: ('A' for Active; 'I' for Inactive)
REMARK    1  A    between atoms: C_6  and  C_1 
ROOT
ATOM      1  C   UNL d   1      52.432  33.842  53.541  0.00  0.00     0.162 A 
ATOM      2  N   UNL d   1      52.897  34.380  53.939  0.00  0.00    -0.225 NA
ATOM      3  N   UNL d   1      52.695  33.085  53.729  0.00  0.00    -0.225 NA
ATOM      4  C   UNL d   1      53.458  33.953  54.380  0.00  0.00     0.101 A 
ATOM      5  C   UNL d   1      53.334  33.154  54.251  0.00  0.00     0.101 A 
ATOM      6  C   UNL d   1      54.060  34.212  54.879  0.00  0.00     0.021 A 
ATOM      7  C   UNL d   1      53.809  32.595  54.617  0.00  0.00     0.021 A 
ATOM      8  C   UNL d   1      54.414  32.846  55.118  0.00  0.00     0.002 A 
ATOM      9  C   UNL d   1      54.540  33.660  55.250  0.00  0.00     0.002 A 
ENDROOT
BRANCH   1  10
ATOM     10  C   UNL d   1      51.801  34.021  53.035  0.00  0.00     0.037 A 
ATOM     11  C   UNL d   1      51.065  34.245  53.340  0.00  0.00     0.024 A 
ATOM     12  C   UNL d   1      50.439  34.423  52.837  0.00  0.00     0.103 A 
ATOM     13  N   UNL d   1      49.702  34.647  53.161  0.00  0.00    -0.148 N 
ATOM     14  C   UNL d   1      50.537  34.382  52.026  0.00  0.00     0.021 A 
ATOM     15  C   UNL d   1      51.275  34.158  51.703  0.00  0.00     0.002 A 
ATOM     16  C   UNL d   1      51.912  33.976  52.215  0.00  0.00     0.003 A 
ENDBRANCH   1  10
TORSDOF 1
ENDMDL
MODEL 4
REMARK VINA RESULT:      -8.5      2.414      3.835
REMARK  1 active torsions:
REMARK  status: ('A' for Active; 'I' for Inactive)
REMARK    1  A    between atoms: C_6  and  C_1 
ROOT
ATOM      1  C   UNL d   1      52.784  33.547  53.516  0.00  0.00     0.162 A 
ATOM      2  N   UNL d   1      52.073  33.264  53.796  0.00  0.00    -0.225 NA
ATOM      3  N   UNL d   1      52.631  34.048  52.880  0.00  0.00    -0.225 NA
ATOM      4  C   UNL d   1      51.468  33.593  53.328  0.00  0.00     0.101 A 
ATOM      5  C   UNL d   1      51.812  34.076  52.763  0.00  0.00     0.101 A 
ATOM      6  C   UNL d   1      50.650  33.500  53.361  0.00  0.00     0.021 A 
ATOM      7  C   UNL d   1      51.348  34.477  52.219  0.00  0.00     0.021 A 
ATOM      8  C   UNL d   1      50.528  34.389  52.247  0.00  0.00     0.002 A 
ATOM      9  C   UNL d   1      50.177  33.897  52.822  0.00  0.00     0.002 A 
ENDROOT
BRANCH   1  10
ATOM     10  C   UNL d   1      53.534  33.365  53.817  0.00  0.00     0.037 A 
ATOM     11  C   UNL d   1      53.784  33.676  54.542  0.00  0.00     0.024 A 
ATOM     12  C   UNL d   1      54.529  33.495  54.842  0.00  0.00     0.103 A 
ATOM     13  N   UNL d   1      54.768  33.816  55.575  0.00  0.00    -0.148 N 
ATOM     14  C   UNL d   1      55.032  33.003  54.424  0.00  0.00     0.021 A 
ATOM     15  C   UNL d   1      54.794  32.681  53.691  0.00  0.00     0.002 A 
ATOM     16  C   UNL d   1      54.035  32.865  53.386  0.00  0.00     0.003 A 
ENDBRANCH   1  10
TORSDOF 1
ENDMDL
MODEL 5
REMARK VINA RESULT:      -8.3      2.593      3.548
REMARK  1 active torsions:
REMARK  status: ('A' for Active; 'I' for Inactive)
REMARK    1  A    between atoms: C_6  and  C_1 
ROOT
ATOM      1  C   UNL d   1      52.308  33.125  53.099  0.00  0.00     0.162 A 
ATOM      2  N   UNL d   1      51.697  33.358  53.586  0.00  0.00    -0.225 NA
ATOM      3  N   UNL d   1      52.143  33.386  52.335  0.00  0.00    -0.225 NA
ATOM      4  C   UNL d   1      51.145  33.771  53.120  0.00  0.00     0.101 A 
ATOM      5  C   UNL d   1      51.419  33.788  52.349  0.00  0.00     0.101 A 
ATOM      6  C   UNL d   1      50.430  34.127  53.322  0.00  0.00     0.021 A 
ATOM      7  C   UNL d   1      50.986  34.161  51.761  0.00  0.00     0.021 A 
ATOM      8  C   UNL d   1      50.269  34.520  51.956  0.00  0.00     0.002 A 
ATOM      9  C   UNL d   1      49.989  34.502  52.741  0.00  0.00     0.002 A 
ENDROOT
BRANCH   1  10
ATOM     10  C   UNL d   1      52.979  32.698  53.328  0.00  0.00     0.037 A 
ATOM     11  C   UNL d   1      52.976  31.870  53.319  0.00  0.00     0.024 A 
ATOM     12  C   UNL d   1      53.644  31.446  53.547  0.00  0.00     0.103 A 
ATOM     13  N   UNL d   1      53.626  30.611  53.533  0.00  0.00    -0.148 N 
ATOM     14  C   UNL d   1      54.320  31.840  53.787  0.00  0.00     0.021 A 
ATOM     15  C   UNL d   1      54.338  32.675  53.801  0.00  0.00     0.002 A 
ATOM     16  C   UNL d   1      53.659  33.107  53.569  0.00  0.00     0.003 A 
ENDBRANCH   1  10
TORSDOF 1
ENDMDL
