MODEL 1
REMARK VINA RESULT:      -1.1      0.000      0.000
REMARK  3 active torsions:
REMARK  status: ('A' for Active; 'I' for Inactive)
REMARK    1  A    between atoms: C_8  and  N_1 
REMARK    2  A    between atoms: C_2  and  C_7 
REMARK    3  A    between atoms: C_7  and  C_9 
ROOT
ATOM      1  N   UNL d   1     -42.536-122.543 -50.442  0.00  0.00    -0.242 N 
ATOM      2  C   UNL d   1     -42.775-121.798 -50.732  0.00  0.00     0.267 A 
ATOM      3  C   UNL d   1     -41.917-122.810 -50.921  0.00  0.00     0.267 A 
ATOM      4  C   UNL d   1     -41.771-122.240 -51.503  0.00  0.00     0.062 A 
ATOM      5  C   UNL d   1     -42.301-121.615 -51.386  0.00  0.00     0.066 A 
ATOM      6  O   UNL d   1     -43.376-121.334 -50.419  0.00  0.00    -0.267 OA
ATOM      7  O   UNL d   1     -41.516-123.528 -50.829  0.00  0.00    -0.267 OA
ENDROOT
BRANCH   4   8
ATOM      8  C   UNL d   1     -41.199-122.287 -52.094  0.00  0.00     0.018 C 
BRANCH   8   9
ATOM      9  C   UNL d   1     -41.515-122.368 -52.846  0.00  0.00     0.045 A 
ATOM     10  N   UNL d   1     -41.528-123.055 -53.296  0.00  0.00    -0.308 N 
ATOM     11  C   UNL d   1     -41.895-122.894 -54.011  0.00  0.00     0.060 A 
ATOM     12  C   UNL d   1     -41.222-123.788 -53.064  0.00  0.00     0.099 C 
ATOM     13  C   UNL d   1     -42.059-123.362 -54.663  0.00  0.00     0.017 A 
ATOM     14  C   UNL d   1     -42.112-122.101 -54.009  0.00  0.00    -0.002 A 
ATOM     15  C   UNL d   1     -42.445-123.038 -55.321  0.00  0.00     0.002 A 
ATOM     16  C   UNL d   1     -42.660-122.239 -55.312  0.00  0.00    -0.000 A 
ATOM     17  C   UNL d   1     -42.496-121.774 -54.662  0.00  0.00    -0.003 A 
ATOM     18  C   UNL d   1     -41.877-121.774 -53.287  0.00  0.00     0.054 A 
ATOM     19  C   UNL d   1     -42.258-121.273 -53.828  0.00  0.00     0.010 C 
ATOM     20  C   UNL d   1     -42.009-120.977 -53.094  0.00  0.00     0.010 C 
ENDBRANCH   8   9
ENDBRANCH   4   8
BRANCH   1  21
ATOM     21  C   UNL d   1     -42.855-122.939 -49.800  0.00  0.00     0.070 A 
ATOM     22  C   UNL d   1     -42.495-122.890 -49.055  0.00  0.00     0.016 A 
ATOM     23  C   UNL d   1     -42.823-123.293 -48.414  0.00  0.00     0.001 A 
ATOM     24  C   UNL d   1     -41.819-122.444 -48.954  0.00  0.00     0.001 A 
ATOM     25  C   UNL d   1     -42.467-123.244 -47.676  0.00  0.00     0.000 A 
ATOM     26  C   UNL d   1     -43.503-123.741 -48.512  0.00  0.00     0.000 A 
ATOM     27  C   UNL d   1     -41.788-122.798 -47.571  0.00  0.00     0.000 A 
ATOM     28  C   UNL d   1     -41.463-122.396 -48.216  0.00  0.00     0.000 A 
ATOM     29  C   UNL d   1     -43.863-123.791 -49.258  0.00  0.00     0.002 A 
ATOM     30  C   UNL d   1     -43.540-123.391 -49.901  0.00  0.00     0.018 A 
ENDBRANCH   1  21
TORSDOF 3
ENDMDL
