MODEL 1
REMARK VINA RESULT:      38.0      0.000      0.000
REMARK  3 active torsions:
REMARK  status: ('A' for Active; 'I' for Inactive)
REMARK    1  A    between atoms: C_10  and  C_5 
REMARK    2  A    between atoms: S_9  and  C_10 
REMARK    3  A    between atoms: C_11  and  S_9 
ROOT
ATOM      1  C   UNL d   1      57.299  49.643  51.092  0.00  0.00     0.179 A 
ATOM      2  N   UNL d   1      57.250  49.666  50.271  0.00  0.00    -0.283 N 
ATOM      3  N   UNL d   1      58.090  49.654  51.292  0.00  0.00    -0.220 NA
ATOM      4  S   UNL d   1      56.539  49.619  51.384  0.00  0.00    -0.048 SA
ATOM      5  C   UNL d   1      58.535  49.683  50.605  0.00  0.00     0.107 A 
ATOM      6  C   UNL d   1      58.011  49.690  49.971  0.00  0.00     0.102 A 
ATOM      7  C   UNL d   1      56.460  49.655  50.063  0.00  0.00     0.073 A 
ATOM      8  C   UNL d   1      56.034  49.627  50.753  0.00  0.00     0.056 A 
ATOM      9  C   UNL d   1      56.158  49.671  49.286  0.00  0.00     0.020 C 
ENDROOT
BRANCH   5  10
ATOM     10  C   UNL d   1      59.369  49.702  50.572  0.00  0.00     0.056 C 
BRANCH  10  11
ATOM     11  S   UNL d   1      59.792  49.288  51.144  0.00  0.00    -0.085 SA
BRANCH  11  12
ATOM     12  C   UNL d   1      60.389  48.773  50.911  0.00  0.00     0.030 A 
ATOM     13  C   UNL d   1      61.059  49.055  50.504  0.00  0.00     0.007 A 
ATOM     14  C   UNL d   1      61.653  48.542  50.273  0.00  0.00     0.012 A 
ATOM     15  C   UNL d   1      61.588  47.738  50.444  0.00  0.00     0.058 A 
ATOM     16  C   UNL d   1      60.929  47.443  50.848  0.00  0.00     0.012 A 
ATOM     17 CL   UNL d   1      62.171  47.216  50.220  0.00  0.00    -0.082 Cl
ATOM     18  C   UNL d   1      60.319  47.969  51.085  0.00  0.00     0.007 A 
ENDBRANCH  11  12
ENDBRANCH  10  11
ENDBRANCH   5  10
TORSDOF 3
ENDMDL
