MODEL 1
REMARK VINA RESULT:      -7.5      0.000      0.000
REMARK  5 active torsions:
REMARK  status: ('A' for Active; 'I' for Inactive)
REMARK    1  A    between atoms: C_13  and  C_4 
REMARK    2  A    between atoms: S_11  and  C_5 
REMARK    3  A    between atoms: C_10  and  C_12 
REMARK    4  A    between atoms: C_15  and  S_11 
REMARK    5  A    between atoms: C_12  and  C_15 
ROOT
ATOM      1  N   UNL d   1     -47.296  12.906  23.063  0.00  0.00    -0.206 N 
ATOM      2  C   UNL d   1     -48.041  13.265  23.001  0.00  0.00     0.166 A 
ATOM      3  N   UNL d   1     -46.689  14.092  22.641  0.00  0.00    -0.163 NA
ATOM      4  C   UNL d   1     -48.106  14.036  22.759  0.00  0.00     0.055 A 
ATOM      5  C   UNL d   1     -47.253  12.122  23.310  0.00  0.00     0.116 A 
ATOM      6  C   UNL d   1     -47.429  14.449  22.579  0.00  0.00     0.104 A 
ATOM      7  N   UNL d   1     -48.722  12.830  23.188  0.00  0.00    -0.227 NA
ATOM      8  C   UNL d   1     -47.915  11.696  23.493  0.00  0.00     0.045 A 
ATOM      9  C   UNL d   1     -48.660  12.055  23.431  0.00  0.00     0.085 A 
ATOM     10  C   UNL d   1     -47.487  15.226  22.335  0.00  0.00     0.023 C 
ATOM     11  C   UNL d   1     -49.364  11.614  23.622  0.00  0.00     0.021 C 
ENDROOT
BRANCH   5  12
ATOM     12  S   UNL d   1     -46.486  11.748  23.375  0.00  0.00    -0.064 SA
BRANCH  12  13
ATOM     13  C   UNL d   1     -45.886  11.176  23.529  0.00  0.00     0.079 C 
BRANCH  13  14
ATOM     14  C   UNL d   1     -45.104  11.288  23.247  0.00  0.00     0.208 C 
ATOM     15  O   UNL d   1     -44.900  12.003  22.851  0.00  0.00    -0.285 OA
BRANCH  14  16
ATOM     16  C   UNL d   1     -44.530  10.686  23.361  0.00  0.00     0.069 A 
ATOM     17  S   UNL d   1     -44.663   9.913  23.685  0.00  0.00    -0.083 SA
ATOM     18  C   UNL d   1     -43.920   9.500  23.693  0.00  0.00     0.035 A 
ATOM     19  C   UNL d   1     -43.334  10.013  23.377  0.00  0.00     0.008 A 
ATOM     20  C   UNL d   1     -43.706  10.745  23.172  0.00  0.00     0.010 A 
ENDBRANCH  14  16
ENDBRANCH  13  14
ENDBRANCH  12  13
ENDBRANCH   5  12
BRANCH   4  21
ATOM     21  C   UNL d   1     -48.842  14.391  22.698  0.00  0.00     0.004 A 
ATOM     22  C   UNL d   1     -49.096  14.895  23.300  0.00  0.00     0.001 A 
ATOM     23  C   UNL d   1     -49.829  15.248  23.239  0.00  0.00     0.011 A 
ATOM     24  C   UNL d   1     -50.296  15.091  22.577  0.00  0.00     0.058 A 
ATOM     25  C   UNL d   1     -50.051  14.603  21.994  0.00  0.00     0.011 A 
ATOM     26 CL   UNL d   1     -51.064  15.461  22.513  0.00  0.00    -0.082 Cl
ATOM     27  C   UNL d   1     -49.306  14.244  22.055  0.00  0.00     0.001 A 
ENDBRANCH   4  21
TORSDOF 5
ENDMDL
MODEL 2
REMARK VINA RESULT:      -6.5      0.828      1.769
REMARK  5 active torsions:
REMARK  status: ('A' for Active; 'I' for Inactive)
REMARK    1  A    between atoms: C_13  and  C_4 
REMARK    2  A    between atoms: S_11  and  C_5 
REMARK    3  A    between atoms: C_10  and  C_12 
REMARK    4  A    between atoms: C_15  and  S_11 
REMARK    5  A    between atoms: C_12  and  C_15 
ROOT
ATOM      1  N   UNL d   1     -47.340  12.487  23.006  0.00  0.00    -0.206 N 
ATOM      2  C   UNL d   1     -47.932  13.039  22.830  0.00  0.00     0.166 A 
ATOM      3  N   UNL d   1     -48.304  11.479  23.092  0.00  0.00    -0.163 NA
ATOM      4  C   UNL d   1     -48.708  12.808  22.787  0.00  0.00     0.055 A 
ATOM      5  C   UNL d   1     -46.558  12.742  23.045  0.00  0.00     0.116 A 
ATOM      6  C   UNL d   1     -48.894  12.028  22.918  0.00  0.00     0.104 A 
ATOM      7  N   UNL d   1     -47.728  13.832  22.699  0.00  0.00    -0.227 NA
ATOM      8  C   UNL d   1     -46.356  13.515  22.918  0.00  0.00     0.045 A 
ATOM      9  C   UNL d   1     -46.949  14.067  22.743  0.00  0.00     0.085 A 
ATOM     10  C   UNL d   1     -49.672  11.787  22.875  0.00  0.00     0.023 C 
ATOM     11  C   UNL d   1     -46.745  14.883  22.607  0.00  0.00     0.021 C 
ENDROOT
BRANCH   5  12
ATOM     12  S   UNL d   1     -45.944  12.176  23.226  0.00  0.00    -0.064 SA
BRANCH  12  13
ATOM     13  C   UNL d   1     -45.550  11.448  23.385  0.00  0.00     0.079 C 
BRANCH  13  14
ATOM     14  C   UNL d   1     -44.777  11.305  23.092  0.00  0.00     0.208 C 
ATOM     15  O   UNL d   1     -44.421  11.856  22.564  0.00  0.00    -0.285 OA
BRANCH  14  16
ATOM     16  C   UNL d   1     -44.363  10.612  23.326  0.00  0.00     0.069 A 
ATOM     17  S   UNL d   1     -43.528  10.541  23.457  0.00  0.00    -0.083 SA
ATOM     18  C   UNL d   1     -43.366   9.738  23.686  0.00  0.00     0.035 A 
ATOM     19  C   UNL d   1     -44.094   9.319  23.697  0.00  0.00     0.008 A 
ATOM     20  C   UNL d   1     -44.712   9.855  23.476  0.00  0.00     0.010 A 
ENDBRANCH  14  16
ENDBRANCH  13  14
ENDBRANCH  12  13
ENDBRANCH   5  12
BRANCH   4  21
ATOM     21  C   UNL d   1     -49.294  13.354  22.613  0.00  0.00     0.004 A 
ATOM     22  C   UNL d   1     -49.679  13.741  23.233  0.00  0.00     0.001 A 
ATOM     23  C   UNL d   1     -50.262  14.284  23.060  0.00  0.00     0.011 A 
ATOM     24  C   UNL d   1     -50.452  14.432  22.271  0.00  0.00     0.058 A 
ATOM     25  C   UNL d   1     -50.079  14.058  21.670  0.00  0.00     0.011 A 
ATOM     26 CL   UNL d   1     -51.063  15.002  22.090  0.00  0.00    -0.082 Cl
ATOM     27  C   UNL d   1     -49.487  13.506  21.845  0.00  0.00     0.001 A 
ENDBRANCH   4  21
TORSDOF 5
ENDMDL
