MODEL 1
REMARK VINA RESULT:      27.3      0.000      0.000
REMARK  2 active torsions:
REMARK  status: ('A' for Active; 'I' for Inactive)
REMARK       I    between atoms: C_6  and  N_8 
REMARK    1  A    between atoms: C_7  and  C_6 
REMARK    2  A    between atoms: N_8  and  C_11 
ROOT
ATOM      1  N   UNL d   1      13.560  12.184  -1.044  0.00  0.00    -0.246 NA
ATOM      2  C   UNL d   1      14.754  12.270  -1.644  0.00  0.00     0.019 A 
ATOM      3  C   UNL d   1      14.365  12.310  -0.915  0.00  0.00     0.081 A 
ATOM      4  C   UNL d   1      14.187  12.121  -2.215  0.00  0.00     0.021 A 
ATOM      5  C   UNL d   1      13.456  12.070  -1.836  0.00  0.00     0.082 A 
ATOM      6  C   UNL d   1      14.245  12.026  -3.025  0.00  0.00     0.021 A 
ATOM      7  C   UNL d   1      13.565  11.877  -3.475  0.00  0.00     0.085 A 
ATOM      8  C   UNL d   1      12.769  11.920  -2.284  0.00  0.00     0.021 A 
ATOM      9  C   UNL d   1      12.832  11.825  -3.099  0.00  0.00     0.021 A 
ATOM     10  C   UNL d   1      15.582  12.377  -1.687  0.00  0.00     0.002 A 
ATOM     11  C   UNL d   1      14.802  12.456  -0.226  0.00  0.00     0.019 A 
ATOM     12  C   UNL d   1      16.014  12.523  -1.000  0.00  0.00     0.000 A 
ATOM     13  C   UNL d   1      15.624  12.562  -0.270  0.00  0.00     0.002 A 
ENDROOT
BRANCH   7  14
ATOM     14  N   UNL d   1      13.627  11.779  -4.313  0.00  0.00    -0.206 NA
ATOM     15  C   UNL d   1      13.457  12.413  -4.819  0.00  0.00     0.302 C 
ATOM     16  O   UNL d   1      13.522  12.302  -5.623  0.00  0.00    -0.263 OA
BRANCH  15  17
ATOM     17  C   UNL d   1      13.222  13.153  -4.500  0.00  0.00     0.158 A 
ATOM     18  O   UNL d   1      12.871  13.370  -3.783  0.00  0.00    -0.300 OA
ATOM     19  C   UNL d   1      12.774  14.182  -3.789  0.00  0.00     0.123 A 
ATOM     20  C   UNL d   1      13.057  14.468  -4.492  0.00  0.00     0.029 A 
ATOM     21  C   UNL d   1      13.331  13.829  -4.926  0.00  0.00     0.032 A 
ENDBRANCH  15  17
ENDBRANCH   7  14
TORSDOF 2
ENDMDL
MODEL 2
REMARK VINA RESULT:      30.2      1.703      3.604
REMARK  2 active torsions:
REMARK  status: ('A' for Active; 'I' for Inactive)
REMARK       I    between atoms: C_6  and  N_8 
REMARK    1  A    between atoms: C_7  and  C_6 
REMARK    2  A    between atoms: N_8  and  C_11 
ROOT
ATOM      1  N   UNL d   1      12.769  12.082  -3.144  0.00  0.00    -0.246 NA
ATOM      2  C   UNL d   1      13.987  11.934  -3.679  0.00  0.00     0.019 A 
ATOM      3  C   UNL d   1      13.184  12.031  -3.854  0.00  0.00     0.081 A 
ATOM      4  C   UNL d   1      14.059  11.927  -2.864  0.00  0.00     0.021 A 
ATOM      5  C   UNL d   1      13.304  12.018  -2.544  0.00  0.00     0.082 A 
ATOM      6  C   UNL d   1      14.712  11.848  -2.378  0.00  0.00     0.021 A 
ATOM      7  C   UNL d   1      14.620  11.860  -1.554  0.00  0.00     0.085 A 
ATOM      8  C   UNL d   1      13.206  12.031  -1.716  0.00  0.00     0.021 A 
ATOM      9  C   UNL d   1      13.866  11.952  -1.231  0.00  0.00     0.021 A 
ATOM     10  C   UNL d   1      14.548  11.866  -4.295  0.00  0.00     0.002 A 
ATOM     11  C   UNL d   1      12.939  12.059  -4.646  0.00  0.00     0.019 A 
ATOM     12  C   UNL d   1      14.301  11.895  -5.081  0.00  0.00     0.000 A 
ATOM     13  C   UNL d   1      13.497  11.991  -5.256  0.00  0.00     0.002 A 
ENDROOT
BRANCH   7  14
ATOM     14  N   UNL d   1      15.297  11.779  -1.053  0.00  0.00    -0.206 NA
ATOM     15  C   UNL d   1      15.571  12.428  -0.617  0.00  0.00     0.302 C 
ATOM     16  O   UNL d   1      16.223  12.333  -0.140  0.00  0.00    -0.263 OA
BRANCH  15  17
ATOM     17  C   UNL d   1      15.176  13.167  -0.671  0.00  0.00     0.158 A 
ATOM     18  O   UNL d   1      15.129  13.737  -1.270  0.00  0.00    -0.300 OA
ATOM     19  C   UNL d   1      14.657  14.346  -0.997  0.00  0.00     0.123 A 
ATOM     20  C   UNL d   1      14.413  14.164  -0.246  0.00  0.00     0.029 A 
ATOM     21  C   UNL d   1      14.737  13.437  -0.050  0.00  0.00     0.032 A 
ENDBRANCH  15  17
ENDBRANCH   7  14
TORSDOF 2
ENDMDL
