MODEL 1
REMARK VINA RESULT:      35.5      0.000      0.000
REMARK  4 active torsions:
REMARK  status: ('A' for Active; 'I' for Inactive)
REMARK    1  A    between atoms: N_2  and  C_1 
REMARK       I    between atoms: C_3  and  N_2 
REMARK    2  A    between atoms: C_6  and  C_3 
REMARK    3  A    between atoms: C_11  and  C_7 
REMARK    4  A    between atoms: C_8  and  C_11 
ROOT
ATOM      1  C   UNL d   1      15.458  14.014  -0.607  0.00  0.00     0.197 A 
ATOM      2  N   UNL d   1      15.810  13.596  -0.015  0.00  0.00    -0.219 NA
ATOM      3  S   UNL d   1      14.951  13.499  -1.022  0.00  0.00    -0.047 SA
ATOM      4  C   UNL d   1      15.004  12.766  -0.669  0.00  0.00     0.051 A 
ATOM      5  C   UNL d   1      15.537  12.812  -0.038  0.00  0.00     0.108 A 
ENDROOT
BRANCH   4   6
ATOM      6  C   UNL d   1      14.654  12.044  -0.810  0.00  0.00     0.009 C 
BRANCH   6   7
ATOM      7  C   UNL d   1      14.112  11.975  -1.452  0.00  0.00     0.012 A 
ATOM      8  C   UNL d   1      13.314  11.853  -1.304  0.00  0.00     0.058 A 
ATOM      9  C   UNL d   1      12.769  11.784  -1.947  0.00  0.00     0.012 A 
ATOM     10 CL   UNL d   1      13.033  11.796  -0.525  0.00  0.00    -0.082 Cl
ATOM     11  C   UNL d   1      13.028  11.837  -2.711  0.00  0.00     0.012 A 
ATOM     12  C   UNL d   1      13.835  11.961  -2.876  0.00  0.00     0.058 A 
ATOM     13  C   UNL d   1      14.372  12.029  -2.233  0.00  0.00     0.012 A 
ATOM     14 CL   UNL d   1      14.074  12.013  -3.685  0.00  0.00    -0.082 Cl
ENDBRANCH   6   7
ENDBRANCH   4   6
BRANCH   1  15
ATOM     15  N   UNL d   1      15.585  14.828  -0.774  0.00  0.00    -0.182 NA
ATOM     16  C   UNL d   1      15.087  15.405  -0.478  0.00  0.00     0.287 C 
ATOM     17  O   UNL d   1      14.459  15.179  -0.015  0.00  0.00    -0.265 OA
BRANCH  16  18
ATOM     18  C   UNL d   1      15.217  16.182  -0.643  0.00  0.00     0.087 A 
ATOM     19  S   UNL d   1      15.057  16.871  -0.217  0.00  0.00    -0.082 SA
ATOM     20  C   UNL d   1      15.321  17.506  -0.680  0.00  0.00     0.036 A 
ATOM     21  C   UNL d   1      15.620  17.226  -1.339  0.00  0.00     0.008 A 
ATOM     22  C   UNL d   1      15.564  16.391  -1.335  0.00  0.00     0.012 A 
ENDBRANCH  16  18
ENDBRANCH   1  15
TORSDOF 4
ENDMDL
MODEL 2
REMARK VINA RESULT:      38.4      2.869      4.521
REMARK  4 active torsions:
REMARK  status: ('A' for Active; 'I' for Inactive)
REMARK    1  A    between atoms: N_2  and  C_1 
REMARK       I    between atoms: C_3  and  N_2 
REMARK    2  A    between atoms: C_6  and  C_3 
REMARK    3  A    between atoms: C_11  and  C_7 
REMARK    4  A    between atoms: C_8  and  C_11 
ROOT
ATOM      1  C   UNL d   1      13.373  12.276  -3.205  0.00  0.00     0.197 A 
ATOM      2  N   UNL d   1      13.185  11.779  -3.811  0.00  0.00    -0.219 NA
ATOM      3  S   UNL d   1      13.350  13.057  -3.494  0.00  0.00    -0.047 SA
ATOM      4  C   UNL d   1      13.146  13.021  -4.283  0.00  0.00     0.051 A 
ATOM      5  C   UNL d   1      13.040  12.228  -4.495  0.00  0.00     0.108 A 
ENDROOT
BRANCH   4   6
ATOM      6  C   UNL d   1      13.034  13.581  -4.864  0.00  0.00     0.009 C 
BRANCH   6   7
ATOM      7  C   UNL d   1      13.472  14.300  -4.824  0.00  0.00     0.012 A 
ATOM      8  C   UNL d   1      13.861  14.581  -5.489  0.00  0.00     0.058 A 
ATOM      9  C   UNL d   1      14.302  15.302  -5.451  0.00  0.00     0.012 A 
ATOM     10 CL   UNL d   1      13.828  14.162  -6.206  0.00  0.00    -0.082 Cl
ATOM     11  C   UNL d   1      14.343  15.720  -4.761  0.00  0.00     0.012 A 
ATOM     12  C   UNL d   1      13.952  15.447  -4.077  0.00  0.00     0.058 A 
ATOM     13  C   UNL d   1      13.516  14.729  -4.121  0.00  0.00     0.012 A 
ATOM     14 CL   UNL d   1      14.015  15.907  -3.370  0.00  0.00    -0.082 Cl
ENDBRANCH   6   7
ENDBRANCH   4   6
BRANCH   1  15
ATOM     15  N   UNL d   1      13.558  12.041  -2.420  0.00  0.00    -0.182 NA
ATOM     16  C   UNL d   1      14.171  12.390  -2.005  0.00  0.00     0.287 C 
ATOM     17  O   UNL d   1      14.604  12.974  -2.367  0.00  0.00    -0.265 OA
BRANCH  16  18
ATOM     18  C   UNL d   1      14.341  12.158  -1.253  0.00  0.00     0.087 A 
ATOM     19  S   UNL d   1      15.057  12.035  -0.862  0.00  0.00    -0.082 SA
ATOM     20  C   UNL d   1      14.872  11.799  -0.089  0.00  0.00     0.036 A 
ATOM     21  C   UNL d   1      14.100  11.779  -0.015  0.00  0.00     0.008 A 
ATOM     22  C   UNL d   1      13.746  12.003  -0.739  0.00  0.00     0.012 A 
ENDBRANCH  16  18
ENDBRANCH   1  15
TORSDOF 4
ENDMDL
