MODEL 1
REMARK VINA RESULT:      -4.3      0.000      0.000
REMARK  5 active torsions:
REMARK  status: ('A' for Active; 'I' for Inactive)
REMARK    1  A    between atoms: C_6  and  C_1 
REMARK    2  A    between atoms: C_11  and  N_3 
REMARK    3  A    between atoms: C_20  and  C_11 
REMARK    4  A    between atoms: C_13  and  O_19 
REMARK    5  A    between atoms: O_19  and  C_20 
ROOT
ATOM      1  C   UNL d   1      60.087  -1.241  29.106  0.00  0.00     0.171 A 
ATOM      2  N   UNL d   1      60.483  -1.911  28.824  0.00  0.00    -0.225 NA
ATOM      3  N   UNL d   1      59.287  -1.441  29.216  0.00  0.00    -0.286 N 
ATOM      4  C   UNL d   1      59.190  -2.234  29.003  0.00  0.00     0.083 A 
ATOM      5  C   UNL d   1      59.928  -2.526  28.760  0.00  0.00     0.099 A 
ATOM      6  C   UNL d   1      58.526  -2.742  28.994  0.00  0.00     0.019 A 
ATOM      7  C   UNL d   1      60.002  -3.316  28.510  0.00  0.00     0.021 A 
ATOM      8  C   UNL d   1      58.604  -3.524  28.746  0.00  0.00     0.002 A 
ATOM      9  C   UNL d   1      59.344  -3.811  28.503  0.00  0.00     0.002 A 
ENDROOT
BRANCH   3  10
ATOM     10  C   UNL d   1      58.819  -0.824  29.499  0.00  0.00     0.108 C 
BRANCH  10  11
ATOM     11  C   UNL d   1      58.288  -0.959  30.114  0.00  0.00     0.142 C 
BRANCH  11  12
ATOM     12  O   UNL d   1      57.685  -0.417  30.263  0.00  0.00    -0.304 OA
BRANCH  12  13
ATOM     13  C   UNL d   1      57.381  -0.341  31.025  0.00  0.00     0.100 A 
ATOM     14  C   UNL d   1      57.521   0.355  31.448  0.00  0.00     0.026 A 
ATOM     15  C   UNL d   1      57.219   0.436  32.211  0.00  0.00     0.013 A 
ATOM     16  C   UNL d   1      56.778  -0.181  32.547  0.00  0.00     0.058 A 
ATOM     17  C   UNL d   1      56.642  -0.872  32.119  0.00  0.00     0.013 A 
ATOM     18 CL   UNL d   1      56.476  -0.101  33.309  0.00  0.00    -0.082 Cl
ATOM     19  C   UNL d   1      56.945  -0.949  31.356  0.00  0.00     0.026 A 
ENDBRANCH  12  13
ENDBRANCH  11  12
ENDBRANCH  10  11
ENDBRANCH   3  10
BRANCH   1  20
ATOM     20  C   UNL d   1      60.426  -0.503  29.252  0.00  0.00     0.134 A 
ATOM     21  O   UNL d   1      60.462   0.122  28.896  0.00  0.00    -0.302 OA
ATOM     22  C   UNL d   1      60.811   0.681  29.181  0.00  0.00     0.123 A 
ATOM     23  C   UNL d   1      61.128   0.620  29.830  0.00  0.00     0.029 A 
ATOM     24  C   UNL d   1      61.091  -0.003  30.182  0.00  0.00     0.030 A 
ENDBRANCH   1  20
TORSDOF 5
ENDMDL
MODEL 2
REMARK VINA RESULT:      -3.6      0.865      2.652
REMARK  5 active torsions:
REMARK  status: ('A' for Active; 'I' for Inactive)
REMARK    1  A    between atoms: C_6  and  C_1 
REMARK    2  A    between atoms: C_11  and  N_3 
REMARK    3  A    between atoms: C_20  and  C_11 
REMARK    4  A    between atoms: C_13  and  O_19 
REMARK    5  A    between atoms: O_19  and  C_20 
ROOT
ATOM      1  C   UNL d   1      59.516  -1.741  29.026  0.00  0.00     0.171 A 
ATOM      2  N   UNL d   1      60.265  -1.518  28.755  0.00  0.00    -0.225 NA
ATOM      3  N   UNL d   1      59.228  -1.136  29.519  0.00  0.00    -0.286 N 
ATOM      4  C   UNL d   1      59.801  -0.539  29.552  0.00  0.00     0.083 A 
ATOM      5  C   UNL d   1      60.442  -0.775  29.081  0.00  0.00     0.099 A 
ATOM      6  C   UNL d   1      59.832   0.195  29.949  0.00  0.00     0.019 A 
ATOM      7  C   UNL d   1      61.108  -0.281  29.007  0.00  0.00     0.021 A 
ATOM      8  C   UNL d   1      60.494   0.680  29.873  0.00  0.00     0.002 A 
ATOM      9  C   UNL d   1      61.133   0.442  29.401  0.00  0.00     0.002 A 
ENDROOT
BRANCH   3  10
ATOM     10  C   UNL d   1      58.480  -1.281  29.833  0.00  0.00     0.108 C 
BRANCH  10  11
ATOM     11  C   UNL d   1      58.186  -0.798  30.432  0.00  0.00     0.142 C 
BRANCH  11  12
ATOM     12  O   UNL d   1      57.371  -0.734  30.546  0.00  0.00    -0.304 OA
BRANCH  12  13
ATOM     13  C   UNL d   1      57.077  -0.483  31.274  0.00  0.00     0.100 A 
ATOM     14  C   UNL d   1      56.762  -1.040  31.795  0.00  0.00     0.026 A 
ATOM     15  C   UNL d   1      56.466  -0.793  32.525  0.00  0.00     0.013 A 
ATOM     16  C   UNL d   1      56.488   0.011  32.728  0.00  0.00     0.058 A 
ATOM     17  C   UNL d   1      56.805   0.561  32.202  0.00  0.00     0.013 A 
ATOM     18 CL   UNL d   1      56.194   0.258  33.455  0.00  0.00    -0.082 Cl
ATOM     19  C   UNL d   1      57.099   0.310  31.473  0.00  0.00     0.026 A 
ENDBRANCH  12  13
ENDBRANCH  11  12
ENDBRANCH  10  11
ENDBRANCH   3  10
BRANCH   1  20
ATOM     20  C   UNL d   1      59.122  -2.442  28.839  0.00  0.00     0.134 A 
ATOM     21  O   UNL d   1      58.484  -2.608  28.549  0.00  0.00    -0.302 OA
ATOM     22  C   UNL d   1      58.296  -3.294  28.456  0.00  0.00     0.123 A 
ATOM     23  C   UNL d   1      58.747  -3.825  28.654  0.00  0.00     0.029 A 
ATOM     24  C   UNL d   1      59.382  -3.658  28.943  0.00  0.00     0.030 A 
ENDBRANCH   1  20
TORSDOF 5
ENDMDL
