MODEL 1
REMARK VINA RESULT:     107.4      0.000      0.000
REMARK  10 active torsions:
REMARK  status: ('A' for Active; 'I' for Inactive)
REMARK    1  A    between atoms: C_7  and  C_1 
REMARK    2  A    between atoms: C_8  and  C_2 
REMARK    3  A    between atoms: O_24  and  C_8 
REMARK    4  A    between atoms: O_25  and  C_12 
REMARK    5  A    between atoms: C_14  and  C_22 
REMARK    6  A    between atoms: O_26  and  C_14 
REMARK    7  A    between atoms: O_27  and  C_16 
REMARK    8  A    between atoms: O_21  and  C_20 
REMARK    9  A    between atoms: C_22  and  O_21 
REMARK   10  A    between atoms: C_28  and  O_24 
ROOT
ATOM      1  C   UNL d   1      61.531  45.604  50.782  0.00  0.00     0.067 A 
ATOM      2  C   UNL d   1      61.402  45.872  50.007  0.00  0.00     0.166 A 
ATOM      3  C   UNL d   1      61.395  46.120  51.428  0.00  0.00     0.200 A 
ATOM      4  O   UNL d   1      61.136  46.654  49.867  0.00  0.00    -0.301 OA
ATOM      5  C   UNL d   1      61.135  46.887  51.295  0.00  0.00     0.062 A 
ATOM      6  C   UNL d   1      61.004  47.157  50.514  0.00  0.00     0.105 A 
ATOM      7  C   UNL d   1      60.741  47.933  50.379  0.00  0.00     0.050 A 
ATOM      8  C   UNL d   1      60.997  47.406  51.930  0.00  0.00     0.007 A 
ATOM      9  O   UNL d   1      61.525  45.850  52.198  0.00  0.00    -0.286 OA
ATOM     10  C   UNL d   1      60.608  48.437  51.022  0.00  0.00     0.102 A 
ATOM     11  C   UNL d   1      60.735  48.175  51.794  0.00  0.00     0.025 A 
ENDROOT
BRANCH   1  12
ATOM     12  C   UNL d   1      61.792  44.835  50.918  0.00  0.00     0.007 A 
ATOM     13  C   UNL d   1      61.413  44.377  51.496  0.00  0.00     0.026 A 
ATOM     14  C   UNL d   1      61.681  43.605  51.627  0.00  0.00     0.116 A 
ATOM     15  C   UNL d   1      62.315  43.298  51.190  0.00  0.00     0.116 A 
ATOM     16  C   UNL d   1      62.685  43.762  50.618  0.00  0.00     0.026 A 
ATOM     17  C   UNL d   1      62.423  44.530  50.482  0.00  0.00     0.002 A 
BRANCH  14  18
ATOM     18  O   UNL d   1      61.312  43.142  52.199  0.00  0.00    -0.326 OA
ATOM     19  C   UNL d   1      61.616  42.399  52.390  0.00  0.00     0.181 C 
ENDBRANCH  14  18
BRANCH  15  20
ATOM     20  O   UNL d   1      62.574  42.531  51.327  0.00  0.00    -0.326 OA
ATOM     21  C   UNL d   1      62.901  42.093  50.706  0.00  0.00     0.181 C 
ENDBRANCH  15  20
ENDBRANCH   1  12
BRANCH   2  22
ATOM     22  C   UNL d   1      61.536  45.364  49.372  0.00  0.00     0.323 C 
ATOM     23  O   UNL d   1      62.144  45.514  48.839  0.00  0.00    -0.257 OA
BRANCH  22  24
ATOM     24  O   UNL d   1      61.054  44.693  49.266  0.00  0.00    -0.270 OA
BRANCH  24  25
ATOM     25  C   UNL d   1      60.359  44.749  48.829  0.00  0.00     0.126 C 
ATOM     26  C   UNL d   1      59.774  44.172  48.906  0.00  0.00     0.029 C 
ENDBRANCH  24  25
ENDBRANCH  22  24
ENDBRANCH   2  22
BRANCH  10  27
ATOM     27  O   UNL d   1      60.347  49.206  50.884  0.00  0.00    -0.300 OA
BRANCH  27  28
ATOM     28  C   UNL d   1      59.776  49.352  50.315  0.00  0.00     0.191 C 
BRANCH  28  29
ATOM     29  C   UNL d   1      58.992  49.477  50.539  0.00  0.00     0.321 C 
ATOM     30  O   UNL d   1      58.808  49.682  51.317  0.00  0.00    -0.257 OA
BRANCH  29  31
ATOM     31  O   UNL d   1      58.385  49.397  49.988  0.00  0.00    -0.294 OA
ATOM     32  C   UNL d   1      57.657  49.084  50.210  0.00  0.00     0.185 C 
ENDBRANCH  29  31
ENDBRANCH  28  29
ENDBRANCH  27  28
ENDBRANCH  10  27
TORSDOF 10
ENDMDL
MODEL 2
REMARK VINA RESULT:     107.5      1.287      2.046
REMARK  10 active torsions:
REMARK  status: ('A' for Active; 'I' for Inactive)
REMARK    1  A    between atoms: C_7  and  C_1 
REMARK    2  A    between atoms: C_8  and  C_2 
REMARK    3  A    between atoms: O_24  and  C_8 
REMARK    4  A    between atoms: O_25  and  C_12 
REMARK    5  A    between atoms: C_14  and  C_22 
REMARK    6  A    between atoms: O_26  and  C_14 
REMARK    7  A    between atoms: O_27  and  C_16 
REMARK    8  A    between atoms: O_21  and  C_20 
REMARK    9  A    between atoms: C_22  and  O_21 
REMARK   10  A    between atoms: C_28  and  O_24 
ROOT
ATOM      1  C   UNL d   1      61.645  45.073  50.092  0.00  0.00     0.067 A 
ATOM      2  C   UNL d   1      61.017  45.225  50.612  0.00  0.00     0.166 A 
ATOM      3  C   UNL d   1      62.047  45.711  49.726  0.00  0.00     0.200 A 
ATOM      4  O   UNL d   1      60.782  46.013  50.773  0.00  0.00    -0.301 OA
ATOM      5  C   UNL d   1      61.819  46.484  49.881  0.00  0.00     0.062 A 
ATOM      6  C   UNL d   1      61.185  46.638  50.406  0.00  0.00     0.105 A 
ATOM      7  C   UNL d   1      60.955  47.420  50.563  0.00  0.00     0.050 A 
ATOM      8  C   UNL d   1      62.212  47.124  49.523  0.00  0.00     0.007 A 
ATOM      9  O   UNL d   1      62.672  45.555  49.209  0.00  0.00    -0.286 OA
ATOM     10  C   UNL d   1      61.356  48.046  50.199  0.00  0.00     0.102 A 
ATOM     11  C   UNL d   1      61.981  47.899  49.681  0.00  0.00     0.025 A 
ENDROOT
BRANCH   1  12
ATOM     12  C   UNL d   1      61.876  44.299  49.934  0.00  0.00     0.007 A 
ATOM     13  C   UNL d   1      62.342  43.895  50.488  0.00  0.00     0.026 A 
ATOM     14  C   UNL d   1      62.570  43.116  50.323  0.00  0.00     0.116 A 
ATOM     15  C   UNL d   1      62.336  42.750  49.617  0.00  0.00     0.116 A 
ATOM     16  C   UNL d   1      61.873  43.160  49.072  0.00  0.00     0.026 A 
ATOM     17  C   UNL d   1      61.643  43.934  49.231  0.00  0.00     0.002 A 
BRANCH  14  18
ATOM     18  O   UNL d   1      63.032  42.707  50.867  0.00  0.00    -0.326 OA
ATOM     19  C   UNL d   1      63.122  42.997  51.634  0.00  0.00     0.181 C 
ENDBRANCH  14  18
BRANCH  15  20
ATOM     20  O   UNL d   1      62.567  41.977  49.461  0.00  0.00    -0.326 OA
ATOM     21  C   UNL d   1      62.225  41.568  48.828  0.00  0.00     0.181 C 
ENDBRANCH  15  20
ENDBRANCH   1  12
BRANCH   2  22
ATOM     22  C   UNL d   1      60.623  44.598  50.971  0.00  0.00     0.323 C 
ATOM     23  O   UNL d   1      60.927  44.247  51.649  0.00  0.00    -0.257 OA
BRANCH  22  24
ATOM     24  O   UNL d   1      59.910  44.313  50.647  0.00  0.00    -0.270 OA
BRANCH  24  25
ATOM     25  C   UNL d   1      59.212  44.359  51.082  0.00  0.00     0.126 C 
ATOM     26  C   UNL d   1      58.483  44.315  50.699  0.00  0.00     0.029 C 
ENDBRANCH  24  25
ENDBRANCH  22  24
ENDBRANCH   2  22
BRANCH  10  27
ATOM     27  O   UNL d   1      61.125  48.820  50.357  0.00  0.00    -0.300 OA
BRANCH  27  28
ATOM     28  C   UNL d   1      60.454  48.967  50.805  0.00  0.00     0.191 C 
BRANCH  28  29
ATOM     29  C   UNL d   1      60.518  49.358  51.529  0.00  0.00     0.321 C 
ATOM     30  O   UNL d   1      59.855  49.708  51.874  0.00  0.00    -0.257 OA
BRANCH  29  31
ATOM     31  O   UNL d   1      61.245  49.403  51.913  0.00  0.00    -0.294 OA
ATOM     32  C   UNL d   1      61.297  49.704  52.677  0.00  0.00     0.185 C 
ENDBRANCH  29  31
ENDBRANCH  28  29
ENDBRANCH  27  28
ENDBRANCH  10  27
TORSDOF 10
ENDMDL
