MODEL 1
REMARK VINA RESULT:      22.9      0.000      0.000
REMARK  7 active torsions:
REMARK  status: ('A' for Active; 'I' for Inactive)
REMARK    1  A    between atoms: C_6  and  N_1 
REMARK    2  A    between atoms: C_7  and  C_6 
REMARK    3  A    between atoms: O_10  and  C_7 
REMARK    4  A    between atoms: C_13  and  O_10 
REMARK    5  A    between atoms: C_14  and  C_13 
REMARK    6  A    between atoms: C_16  and  C_14 
REMARK    7  A    between atoms: C_15  and  C_16 
ROOT
ATOM      1  N   UNL d   1     -54.750-100.154 -44.142  0.00  0.00    -0.246 N 
ATOM      2  C   UNL d   1     -54.730-100.139 -43.310  0.00  0.00     0.378 A 
ATOM      3  O   UNL d   1     -54.730-100.923 -43.037  0.00  0.00    -0.258 OA
ATOM      4  C   UNL d   1     -54.761-100.947 -44.378  0.00  0.00     0.092 A 
ATOM      5  C   UNL d   1     -54.749-101.420 -43.695  0.00  0.00     0.121 A 
ATOM      6  O   UNL d   1     -54.714 -99.457 -42.849  0.00  0.00    -0.237 OA
ATOM      7  C   UNL d   1     -54.781-101.301 -45.127  0.00  0.00     0.020 A 
ATOM      8  C   UNL d   1     -54.757-102.249 -43.772  0.00  0.00     0.026 A 
ATOM      9  C   UNL d   1     -54.789-102.123 -45.190  0.00  0.00     0.002 A 
ATOM     10  C   UNL d   1     -54.777-102.594 -44.516  0.00  0.00     0.002 A 
ENDROOT
BRANCH   1  11
ATOM     11  C   UNL d   1     -54.757 -99.523 -44.674  0.00  0.00     0.154 C 
BRANCH  11  12
ATOM     12  C   UNL d   1     -55.453 -99.118 -44.816  0.00  0.00     0.318 C 
ATOM     13  O   UNL d   1     -55.632 -98.856 -45.578  0.00  0.00    -0.257 OA
BRANCH  12  14
ATOM     14  O   UNL d   1     -55.976 -98.970 -44.196  0.00  0.00    -0.270 OA
BRANCH  14  15
ATOM     15  C   UNL d   1     -56.770 -98.758 -44.139  0.00  0.00     0.126 C 
BRANCH  15  16
ATOM     16  C   UNL d   1     -57.254 -98.780 -44.803  0.00  0.00     0.027 C 
BRANCH  16  17
ATOM     17  C   UNL d   1     -58.075 -98.784 -44.724  0.00  0.00     0.002 C 
BRANCH  17  18
ATOM     18  C   UNL d   1     -58.421 -98.757 -43.979  0.00  0.00     0.000 C 
ATOM     19  C   UNL d   1     -59.076 -99.224 -43.815  0.00  0.00     0.000 C 
ENDBRANCH  17  18
ENDBRANCH  16  17
ENDBRANCH  15  16
ENDBRANCH  14  15
ENDBRANCH  12  14
ENDBRANCH  11  12
ENDBRANCH   1  11
TORSDOF 7
ENDMDL
