MODEL 1
REMARK VINA RESULT:      -6.4      0.000      0.000
REMARK  6 active torsions:
REMARK  status: ('A' for Active; 'I' for Inactive)
REMARK    1  A    between atoms: C_2  and  C_1 
REMARK    2  A    between atoms: C_4  and  C_1 
REMARK    3  A    between atoms: C_6  and  C_2 
REMARK    4  A    between atoms: O_12  and  C_3 
REMARK    5  A    between atoms: C_8  and  C_4 
REMARK    6  A    between atoms: O_13  and  C_10 
ROOT
ATOM      1  C   UNL d   1     -46.528  12.337  23.170  0.00  0.00     0.096 A 
ATOM      2  C   UNL d   1     -45.738  12.457  22.963  0.00  0.00     0.048 A 
ATOM      3  C   UNL d   1     -47.115  12.819  22.849  0.00  0.00     0.022 A 
ATOM      4  C   UNL d   1     -46.916  13.424  22.320  0.00  0.00     0.004 A 
ATOM      5  C   UNL d   1     -45.536  13.060  22.435  0.00  0.00     0.096 A 
ATOM      6  C   UNL d   1     -46.126  13.545  22.113  0.00  0.00     0.024 A 
ENDROOT
BRANCH   3   7
ATOM      7  C   UNL d   1     -47.903  12.699  23.055  0.00  0.00     0.005 C 
BRANCH   7   8
ATOM      8  C   UNL d   1     -48.492  13.176  22.728  0.00  0.00     0.042 C 
BRANCH   8   9
ATOM      9  C   UNL d   1     -49.284  13.057  22.915  0.00  0.00     0.196 C 
ATOM     10  O   UNL d   1     -49.492  12.517  23.506  0.00  0.00    -0.287 OA
BRANCH   9  11
ATOM     11  C   UNL d   1     -49.872  13.472  22.518  0.00  0.00     0.039 A 
ATOM     12  C   UNL d   1     -49.971  14.280  22.645  0.00  0.00     0.003 A 
ATOM     13  C   UNL d   1     -50.570  14.686  22.237  0.00  0.00     0.000 A 
ATOM     14  C   UNL d   1     -51.064  14.289  21.708  0.00  0.00     0.000 A 
ATOM     15  C   UNL d   1     -50.962  13.475  21.582  0.00  0.00     0.000 A 
ATOM     16  C   UNL d   1     -50.372  13.070  21.983  0.00  0.00     0.003 A 
ENDBRANCH   9  11
ENDBRANCH   8   9
ENDBRANCH   7   8
ENDBRANCH   3   7
BRANCH   1  17
ATOM     17  O   UNL d   1     -46.730  11.734  23.698  0.00  0.00    -0.328 OA
ATOM     18  C   UNL d   1     -46.352  11.002  23.654  0.00  0.00     0.181 C 
ENDBRANCH   1  17
BRANCH   5  19
ATOM     19  O   UNL d   1     -44.746  13.181  22.228  0.00  0.00    -0.328 OA
ATOM     20  C   UNL d   1     -44.458  12.896  21.509  0.00  0.00     0.181 C 
ENDBRANCH   5  19
TORSDOF 6
ENDMDL
MODEL 2
REMARK VINA RESULT:      -5.8      8.108      9.483
REMARK  6 active torsions:
REMARK  status: ('A' for Active; 'I' for Inactive)
REMARK    1  A    between atoms: C_2  and  C_1 
REMARK    2  A    between atoms: C_4  and  C_1 
REMARK    3  A    between atoms: C_6  and  C_2 
REMARK    4  A    between atoms: O_12  and  C_3 
REMARK    5  A    between atoms: C_8  and  C_4 
REMARK    6  A    between atoms: O_13  and  C_10 
ROOT
ATOM      1  C   UNL d   1     -40.404  14.863  17.489  0.00  0.00     0.096 A 
ATOM      2  C   UNL d   1     -39.992  14.836  16.775  0.00  0.00     0.048 A 
ATOM      3  C   UNL d   1     -40.136  14.425  18.135  0.00  0.00     0.022 A 
ATOM      4  C   UNL d   1     -39.456  13.959  18.070  0.00  0.00     0.004 A 
ATOM      5  C   UNL d   1     -39.312  14.372  16.707  0.00  0.00     0.096 A 
ATOM      6  C   UNL d   1     -39.043  13.932  17.356  0.00  0.00     0.024 A 
ENDROOT
BRANCH   3   7
ATOM      7  C   UNL d   1     -40.548  14.452  18.848  0.00  0.00     0.005 C 
BRANCH   7   8
ATOM      8  C   UNL d   1     -40.133  14.458  19.563  0.00  0.00     0.042 C 
BRANCH   8   9
ATOM      9  C   UNL d   1     -40.532  14.498  20.281  0.00  0.00     0.196 C 
ATOM     10  O   UNL d   1     -41.314  14.235  20.334  0.00  0.00    -0.287 OA
BRANCH   9  11
ATOM     11  C   UNL d   1     -40.157  14.797  20.949  0.00  0.00     0.039 A 
ATOM     12  C   UNL d   1     -39.711  14.303  21.433  0.00  0.00     0.003 A 
ATOM     13  C   UNL d   1     -39.338  14.620  22.106  0.00  0.00     0.000 A 
ATOM     14  C   UNL d   1     -39.410  15.422  22.289  0.00  0.00     0.000 A 
ATOM     15  C   UNL d   1     -39.860  15.918  21.798  0.00  0.00     0.000 A 
ATOM     16  C   UNL d   1     -40.230  15.608  21.134  0.00  0.00     0.003 A 
ENDBRANCH   9  11
ENDBRANCH   8   9
ENDBRANCH   7   8
ENDBRANCH   3   7
BRANCH   1  17
ATOM     17  O   UNL d   1     -41.085  15.328  17.558  0.00  0.00    -0.328 OA
ATOM     18  C   UNL d   1     -41.320  15.810  16.932  0.00  0.00     0.181 C 
ENDBRANCH   1  17
BRANCH   5  19
ATOM     19  O   UNL d   1     -38.899  14.344  15.992  0.00  0.00    -0.328 OA
ATOM     20  C   UNL d   1     -38.248  13.844  15.909  0.00  0.00     0.181 C 
ENDBRANCH   5  19
TORSDOF 6
ENDMDL
MODEL 3
REMARK VINA RESULT:      -5.6      1.080      4.370
REMARK  6 active torsions:
REMARK  status: ('A' for Active; 'I' for Inactive)
REMARK    1  A    between atoms: C_2  and  C_1 
REMARK    2  A    between atoms: C_4  and  C_1 
REMARK    3  A    between atoms: C_6  and  C_2 
REMARK    4  A    between atoms: O_12  and  C_3 
REMARK    5  A    between atoms: C_8  and  C_4 
REMARK    6  A    between atoms: O_13  and  C_10 
ROOT
ATOM      1  C   UNL d   1     -48.835  12.288  22.686  0.00  0.00     0.096 A 
ATOM      2  C   UNL d   1     -49.563  12.285  22.298  0.00  0.00     0.048 A 
ATOM      3  C   UNL d   1     -48.303  12.905  22.557  0.00  0.00     0.022 A 
ATOM      4  C   UNL d   1     -48.496  13.521  22.040  0.00  0.00     0.004 A 
ATOM      5  C   UNL d   1     -49.759  12.899  21.780  0.00  0.00     0.096 A 
ATOM      6  C   UNL d   1     -49.224  13.519  21.652  0.00  0.00     0.024 A 
ENDROOT
BRANCH   3   7
ATOM      7  C   UNL d   1     -47.576  12.908  22.944  0.00  0.00     0.005 C 
BRANCH   7   8
ATOM      8  C   UNL d   1     -46.892  13.122  22.535  0.00  0.00     0.042 C 
BRANCH   8   9
ATOM      9  C   UNL d   1     -46.176  13.211  22.928  0.00  0.00     0.196 C 
ATOM     10  O   UNL d   1     -46.160  13.531  23.690  0.00  0.00    -0.287 OA
BRANCH   9  11
ATOM     11  C   UNL d   1     -45.472  12.983  22.568  0.00  0.00     0.039 A 
ATOM     12  C   UNL d   1     -45.126  12.259  22.750  0.00  0.00     0.003 A 
ATOM     13  C   UNL d   1     -44.414  12.042  22.378  0.00  0.00     0.000 A 
ATOM     14  C   UNL d   1     -44.054  12.545  21.831  0.00  0.00     0.000 A 
ATOM     15  C   UNL d   1     -44.406  13.275  21.649  0.00  0.00     0.000 A 
ATOM     16  C   UNL d   1     -45.108  13.492  22.014  0.00  0.00     0.003 A 
ENDBRANCH   9  11
ENDBRANCH   8   9
ENDBRANCH   7   8
ENDBRANCH   3   7
BRANCH   1  17
ATOM     17  O   UNL d   1     -48.639  11.673  23.203  0.00  0.00    -0.328 OA
ATOM     18  C   UNL d   1     -49.215  11.350  23.698  0.00  0.00     0.181 C 
ENDBRANCH   1  17
BRANCH   5  19
ATOM     19  O   UNL d   1     -50.488  12.897  21.392  0.00  0.00    -0.328 OA
ATOM     20  C   UNL d   1     -51.002  13.539  21.471  0.00  0.00     0.181 C 
ENDBRANCH   5  19
TORSDOF 6
ENDMDL
MODEL 4
REMARK VINA RESULT:      -5.5      1.186      4.424
REMARK  6 active torsions:
REMARK  status: ('A' for Active; 'I' for Inactive)
REMARK    1  A    between atoms: C_2  and  C_1 
REMARK    2  A    between atoms: C_4  and  C_1 
REMARK    3  A    between atoms: C_6  and  C_2 
REMARK    4  A    between atoms: O_12  and  C_3 
REMARK    5  A    between atoms: C_8  and  C_4 
REMARK    6  A    between atoms: O_13  and  C_10 
ROOT
ATOM      1  C   UNL d   1     -50.075  13.228  23.317  0.00  0.00     0.096 A 
ATOM      2  C   UNL d   1     -50.669  13.800  23.286  0.00  0.00     0.048 A 
ATOM      3  C   UNL d   1     -49.283  13.459  23.344  0.00  0.00     0.022 A 
ATOM      4  C   UNL d   1     -49.081  14.260  23.339  0.00  0.00     0.004 A 
ATOM      5  C   UNL d   1     -50.470  14.603  23.281  0.00  0.00     0.096 A 
ATOM      6  C   UNL d   1     -49.675  14.833  23.308  0.00  0.00     0.024 A 
ENDROOT
BRANCH   3   7
ATOM      7  C   UNL d   1     -48.691  12.887  23.375  0.00  0.00     0.005 C 
BRANCH   7   8
ATOM      8  C   UNL d   1     -47.908  13.096  23.214  0.00  0.00     0.042 C 
BRANCH   8   9
ATOM      9  C   UNL d   1     -47.302  12.545  23.283  0.00  0.00     0.196 C 
ATOM     10  O   UNL d   1     -47.430  11.840  23.696  0.00  0.00    -0.287 OA
BRANCH   9  11
ATOM     11  C   UNL d   1     -46.567  12.690  22.943  0.00  0.00     0.039 A 
ATOM     12  C   UNL d   1     -45.984  12.109  22.949  0.00  0.00     0.003 A 
ATOM     13  C   UNL d   1     -45.245  12.270  22.601  0.00  0.00     0.000 A 
ATOM     14  C   UNL d   1     -45.094  13.004  22.252  0.00  0.00     0.000 A 
ATOM     15  C   UNL d   1     -45.685  13.587  22.248  0.00  0.00     0.000 A 
ATOM     16  C   UNL d   1     -46.415  13.431  22.590  0.00  0.00     0.003 A 
ENDBRANCH   9  11
ENDBRANCH   8   9
ENDBRANCH   7   8
ENDBRANCH   3   7
BRANCH   1  17
ATOM     17  O   UNL d   1     -50.273  12.426  23.322  0.00  0.00    -0.328 OA
ATOM     18  C   UNL d   1     -51.049  12.193  23.479  0.00  0.00     0.181 C 
ENDBRANCH   1  17
BRANCH   5  19
ATOM     19  O   UNL d   1     -51.064  15.176  23.250  0.00  0.00    -0.328 OA
ATOM     20  C   UNL d   1     -50.981  15.882  23.671  0.00  0.00     0.181 C 
ENDBRANCH   5  19
TORSDOF 6
ENDMDL
MODEL 5
REMARK VINA RESULT:      -5.2      8.913     10.011
REMARK  6 active torsions:
REMARK  status: ('A' for Active; 'I' for Inactive)
REMARK    1  A    between atoms: C_2  and  C_1 
REMARK    2  A    between atoms: C_4  and  C_1 
REMARK    3  A    between atoms: C_6  and  C_2 
REMARK    4  A    between atoms: O_12  and  C_3 
REMARK    5  A    between atoms: C_8  and  C_4 
REMARK    6  A    between atoms: O_13  and  C_10 
ROOT
ATOM      1  C   UNL d   1     -39.494  14.321  17.491  0.00  0.00     0.096 A 
ATOM      2  C   UNL d   1     -40.057  14.568  16.941  0.00  0.00     0.048 A 
ATOM      3  C   UNL d   1     -39.633  14.425  18.297  0.00  0.00     0.022 A 
ATOM      4  C   UNL d   1     -40.336  14.775  18.557  0.00  0.00     0.004 A 
ATOM      5  C   UNL d   1     -40.760  14.918  17.197  0.00  0.00     0.096 A 
ATOM      6  C   UNL d   1     -40.900  15.021  18.008  0.00  0.00     0.024 A 
ENDROOT
BRANCH   3   7
ATOM      7  C   UNL d   1     -39.071  14.178  18.846  0.00  0.00     0.005 C 
BRANCH   7   8
ATOM      8  C   UNL d   1     -39.190  14.322  19.650  0.00  0.00     0.042 C 
BRANCH   8   9
ATOM      9  C   UNL d   1     -38.629  14.095  20.207  0.00  0.00     0.196 C 
ATOM     10  O   UNL d   1     -37.943  13.702  19.965  0.00  0.00    -0.287 OA
BRANCH   9  11
ATOM     11  C   UNL d   1     -38.745  14.257  21.005  0.00  0.00     0.039 A 
ATOM     12  C   UNL d   1     -38.975  13.659  21.522  0.00  0.00     0.003 A 
ATOM     13  C   UNL d   1     -39.089  13.837  22.326  0.00  0.00     0.000 A 
ATOM     14  C   UNL d   1     -38.974  14.604  22.609  0.00  0.00     0.000 A 
ATOM     15  C   UNL d   1     -38.742  15.205  22.085  0.00  0.00     0.000 A 
ATOM     16  C   UNL d   1     -38.629  15.033  21.291  0.00  0.00     0.003 A 
ENDBRANCH   9  11
ENDBRANCH   8   9
ENDBRANCH   7   8
ENDBRANCH   3   7
BRANCH   1  17
ATOM     17  O   UNL d   1     -38.790  13.971  17.234  0.00  0.00    -0.328 OA
ATOM     18  C   UNL d   1     -38.556  14.042  16.446  0.00  0.00     0.181 C 
ENDBRANCH   1  17
BRANCH   5  19
ATOM     19  O   UNL d   1     -41.324  15.165  16.647  0.00  0.00    -0.328 OA
ATOM     20  C   UNL d   1     -41.650  15.922  16.700  0.00  0.00     0.181 C 
ENDBRANCH   5  19
TORSDOF 6
ENDMDL
MODEL 6
REMARK VINA RESULT:      -4.5      1.515      4.427
REMARK  6 active torsions:
REMARK  status: ('A' for Active; 'I' for Inactive)
REMARK    1  A    between atoms: C_2  and  C_1 
REMARK    2  A    between atoms: C_4  and  C_1 
REMARK    3  A    between atoms: C_6  and  C_2 
REMARK    4  A    between atoms: O_12  and  C_3 
REMARK    5  A    between atoms: C_8  and  C_4 
REMARK    6  A    between atoms: O_13  and  C_10 
ROOT
ATOM      1  C   UNL d   1     -48.490  13.202  22.277  0.00  0.00     0.096 A 
ATOM      2  C   UNL d   1     -48.806  13.961  22.212  0.00  0.00     0.048 A 
ATOM      3  C   UNL d   1     -47.771  13.088  22.665  0.00  0.00     0.022 A 
ATOM      4  C   UNL d   1     -47.365  13.731  22.989  0.00  0.00     0.004 A 
ATOM      5  C   UNL d   1     -48.403  14.607  22.535  0.00  0.00     0.096 A 
ATOM      6  C   UNL d   1     -47.681  14.491  22.925  0.00  0.00     0.024 A 
ENDROOT
BRANCH   3   7
ATOM      7  C   UNL d   1     -47.455  12.330  22.729  0.00  0.00     0.005 C 
BRANCH   7   8
ATOM      8  C   UNL d   1     -46.733  12.216  23.114  0.00  0.00     0.042 C 
BRANCH   8   9
ATOM      9  C   UNL d   1     -46.517  11.473  23.392  0.00  0.00     0.196 C 
ATOM     10  O   UNL d   1     -47.091  10.963  23.698  0.00  0.00    -0.287 OA
BRANCH   9  11
ATOM     11  C   UNL d   1     -45.731  11.233  23.368  0.00  0.00     0.039 A 
ATOM     12  C   UNL d   1     -45.505  10.513  23.698  0.00  0.00     0.003 A 
ATOM     13  C   UNL d   1     -44.706  10.283  23.667  0.00  0.00     0.000 A 
ATOM     14  C   UNL d   1     -44.141  10.768  23.309  0.00  0.00     0.000 A 
ATOM     15  C   UNL d   1     -44.372  11.494  22.978  0.00  0.00     0.000 A 
ATOM     16  C   UNL d   1     -45.159  11.723  23.007  0.00  0.00     0.003 A 
ENDBRANCH   9  11
ENDBRANCH   8   9
ENDBRANCH   7   8
ENDBRANCH   3   7
BRANCH   1  17
ATOM     17  O   UNL d   1     -48.893  12.557  21.954  0.00  0.00    -0.328 OA
ATOM     18  C   UNL d   1     -49.346  12.652  21.271  0.00  0.00     0.181 C 
ENDBRANCH   1  17
BRANCH   5  19
ATOM     19  O   UNL d   1     -48.719  15.367  22.471  0.00  0.00    -0.328 OA
ATOM     20  C   UNL d   1     -49.215  15.661  23.062  0.00  0.00     0.181 C 
ENDBRANCH   5  19
TORSDOF 6
ENDMDL
