MODEL 1
REMARK VINA RESULT:      -8.4      0.000      0.000
REMARK  9 active torsions:
REMARK  status: ('A' for Active; 'I' for Inactive)
REMARK    1  A    between atoms: C_6  and  N_1 
REMARK    2  A    between atoms: C_7  and  C_2 
REMARK    3  A    between atoms: C_3  and  C_9 
REMARK    4  A    between atoms: O_5  and  C_3 
REMARK    5  A    between atoms: C_4  and  O_5 
REMARK    6  A    between atoms: C_8  and  C_7 
REMARK    7  A    between atoms: C_12  and  C_8 
REMARK    8  A    between atoms: C_10  and  C_12 
REMARK    9  A    between atoms: O_25  and  C_23 
ROOT
ATOM      1  C   UNL d   1      53.614  33.119  53.924  0.00  0.00     0.064 A 
ATOM      2  C   UNL d   1      53.063  33.733  53.911  0.00  0.00     0.106 A 
ATOM      3  C   UNL d   1      54.223  33.124  54.489  0.00  0.00     0.029 A 
ATOM      4  C   UNL d   1      53.119  34.350  54.464  0.00  0.00     0.027 A 
ATOM      5  C   UNL d   1      54.276  33.737  55.035  0.00  0.00     0.094 A 
ATOM      6  C   UNL d   1      53.724  34.350  55.022  0.00  0.00     0.026 A 
ENDROOT
BRANCH   2   7
ATOM      7  O   UNL d   1      52.456  33.736  53.352  0.00  0.00    -0.273 OA
BRANCH   7   8
ATOM      8  C   UNL d   1      52.059  34.439  53.182  0.00  0.00     0.300 C 
ATOM      9  O   UNL d   1      52.361  35.158  53.438  0.00  0.00    -0.259 OA
BRANCH   8  10
ATOM     10  C   UNL d   1      51.357  34.414  52.752  0.00  0.00     0.065 A 
ATOM     11  C   UNL d   1      50.676  34.748  53.067  0.00  0.00     0.029 A 
ATOM     12  C   UNL d   1      49.974  34.727  52.646  0.00  0.00     0.127 A 
ATOM     13  C   UNL d   1      49.945  34.369  51.898  0.00  0.00     0.024 A 
ATOM     14  C   UNL d   1      50.632  34.035  51.586  0.00  0.00     0.002 A 
ATOM     15  C   UNL d   1      51.341  34.056  52.012  0.00  0.00     0.005 A 
BRANCH  12  16
ATOM     16  N   UNL d   1      49.280  35.064  52.961  0.00  0.00    -0.114 N 
ATOM     17  O   UNL d   1      49.299  35.447  53.685  0.00  0.00    -0.532 OA
ATOM     18  O   UNL d   1      48.575  35.006  52.530  0.00  0.00    -0.532 OA
ENDBRANCH  12  16
ENDBRANCH   8  10
ENDBRANCH   7   8
ENDBRANCH   2   7
BRANCH   1  19
ATOM     19  C   UNL d   1      53.559  32.504  53.374  0.00  0.00     0.198 C 
ATOM     20  O   UNL d   1      53.798  32.627  52.594  0.00  0.00    -0.286 OA
BRANCH  19  21
ATOM     21  C   UNL d   1      53.266  31.771  53.604  0.00  0.00     0.043 C 
BRANCH  21  22
ATOM     22  C   UNL d   1      53.429  31.103  53.151  0.00  0.00     0.010 C 
BRANCH  22  23
ATOM     23  C   UNL d   1      53.201  30.359  53.420  0.00  0.00     0.030 A 
ATOM     24  S   UNL d   1      52.537  29.931  53.181  0.00  0.00    -0.086 SA
ATOM     25  C   UNL d   1      52.523  29.216  53.591  0.00  0.00     0.035 A 
ATOM     26  C   UNL d   1      53.179  29.195  54.088  0.00  0.00     0.007 A 
ATOM     27  C   UNL d   1      53.599  29.899  53.984  0.00  0.00     0.007 A 
ENDBRANCH  22  23
ENDBRANCH  21  22
ENDBRANCH  19  21
ENDBRANCH   1  19
BRANCH   5  28
ATOM     28  O   UNL d   1      54.880  33.738  55.594  0.00  0.00    -0.328 OA
ATOM     29  C   UNL d   1      55.619  34.041  55.399  0.00  0.00     0.181 C 
ENDBRANCH   5  28
TORSDOF 9
ENDMDL
MODEL 2
REMARK VINA RESULT:      -8.3      2.215      4.532
REMARK  9 active torsions:
REMARK  status: ('A' for Active; 'I' for Inactive)
REMARK    1  A    between atoms: C_6  and  N_1 
REMARK    2  A    between atoms: C_7  and  C_2 
REMARK    3  A    between atoms: C_3  and  C_9 
REMARK    4  A    between atoms: O_5  and  C_3 
REMARK    5  A    between atoms: C_4  and  O_5 
REMARK    6  A    between atoms: C_8  and  C_7 
REMARK    7  A    between atoms: C_12  and  C_8 
REMARK    8  A    between atoms: C_10  and  C_12 
REMARK    9  A    between atoms: O_25  and  C_23 
ROOT
ATOM      1  C   UNL d   1      52.782  33.804  53.601  0.00  0.00     0.064 A 
ATOM      2  C   UNL d   1      53.157  33.119  53.865  0.00  0.00     0.106 A 
ATOM      3  C   UNL d   1      52.874  34.513  54.024  0.00  0.00     0.029 A 
ATOM      4  C   UNL d   1      53.624  33.142  54.552  0.00  0.00     0.027 A 
ATOM      5  C   UNL d   1      53.337  34.532  54.704  0.00  0.00     0.094 A 
ATOM      6  C   UNL d   1      53.712  33.847  54.967  0.00  0.00     0.026 A 
ENDROOT
BRANCH   2   7
ATOM      7  O   UNL d   1      53.071  32.410  53.450  0.00  0.00    -0.273 OA
BRANCH   7   8
ATOM      8  C   UNL d   1      53.591  31.786  53.593  0.00  0.00     0.300 C 
ATOM      9  O   UNL d   1      54.360  31.934  53.838  0.00  0.00    -0.259 OA
BRANCH   8  10
ATOM     10  C   UNL d   1      53.332  31.011  53.487  0.00  0.00     0.065 A 
ATOM     11  C   UNL d   1      53.422  30.466  54.095  0.00  0.00     0.029 A 
ATOM     12  C   UNL d   1      53.167  29.694  53.997  0.00  0.00     0.127 A 
ATOM     13  C   UNL d   1      52.816  29.456  53.284  0.00  0.00     0.024 A 
ATOM     14  C   UNL d   1      52.728  30.007  52.676  0.00  0.00     0.002 A 
ATOM     15  C   UNL d   1      52.986  30.788  52.775  0.00  0.00     0.005 A 
BRANCH  12  16
ATOM     16  N   UNL d   1      53.257  29.138  54.611  0.00  0.00    -0.114 N 
ATOM     17  O   UNL d   1      52.933  29.282  55.350  0.00  0.00    -0.532 OA
ATOM     18  O   UNL d   1      53.676  28.440  54.460  0.00  0.00    -0.532 OA
ENDBRANCH  12  16
ENDBRANCH   8  10
ENDBRANCH   7   8
ENDBRANCH   2   7
BRANCH   1  19
ATOM     19  C   UNL d   1      52.316  33.783  52.918  0.00  0.00     0.198 C 
ATOM     20  O   UNL d   1      52.664  33.614  52.189  0.00  0.00    -0.286 OA
BRANCH  19  21
ATOM     21  C   UNL d   1      51.508  33.930  52.965  0.00  0.00     0.043 C 
BRANCH  21  22
ATOM     22  C   UNL d   1      51.067  34.020  52.276  0.00  0.00     0.010 C 
BRANCH  22  23
ATOM     23  C   UNL d   1      50.303  34.323  52.315  0.00  0.00     0.030 A 
ATOM     24  S   UNL d   1      49.753  34.356  51.701  0.00  0.00    -0.086 SA
ATOM     25  C   UNL d   1      49.061  34.703  51.984  0.00  0.00     0.035 A 
ATOM     26  C   UNL d   1      49.176  34.887  52.777  0.00  0.00     0.007 A 
ATOM     27  C   UNL d   1      49.941  34.654  52.984  0.00  0.00     0.007 A 
ENDBRANCH  22  23
ENDBRANCH  21  22
ENDBRANCH  19  21
ENDBRANCH   1  19
BRANCH   5  28
ATOM     28  O   UNL d   1      53.426  35.237  55.120  0.00  0.00    -0.328 OA
ATOM     29  C   UNL d   1      53.345  35.957  54.731  0.00  0.00     0.181 C 
ENDBRANCH   5  28
TORSDOF 9
ENDMDL
MODEL 3
REMARK VINA RESULT:      -7.6      1.991      4.239
REMARK  9 active torsions:
REMARK  status: ('A' for Active; 'I' for Inactive)
REMARK    1  A    between atoms: C_6  and  N_1 
REMARK    2  A    between atoms: C_7  and  C_2 
REMARK    3  A    between atoms: C_3  and  C_9 
REMARK    4  A    between atoms: O_5  and  C_3 
REMARK    5  A    between atoms: C_4  and  O_5 
REMARK    6  A    between atoms: C_8  and  C_7 
REMARK    7  A    between atoms: C_12  and  C_8 
REMARK    8  A    between atoms: C_10  and  C_12 
REMARK    9  A    between atoms: O_25  and  C_23 
ROOT
ATOM      1  C   UNL d   1      52.889  31.396  53.220  0.00  0.00     0.064 A 
ATOM      2  C   UNL d   1      53.418  31.529  53.838  0.00  0.00     0.106 A 
ATOM      3  C   UNL d   1      52.615  30.627  53.070  0.00  0.00     0.029 A 
ATOM      4  C   UNL d   1      53.674  30.892  54.307  0.00  0.00     0.027 A 
ATOM      5  C   UNL d   1      52.870  29.998  53.536  0.00  0.00     0.094 A 
ATOM      6  C   UNL d   1      53.400  30.131  54.154  0.00  0.00     0.026 A 
ENDROOT
BRANCH   2   7
ATOM      7  O   UNL d   1      53.695  32.290  53.994  0.00  0.00    -0.273 OA
BRANCH   7   8
ATOM      8  C   UNL d   1      53.964  32.482  54.750  0.00  0.00     0.300 C 
ATOM      9  O   UNL d   1      53.948  31.923  55.350  0.00  0.00    -0.259 OA
BRANCH   8  10
ATOM     10  C   UNL d   1      54.249  33.241  54.898  0.00  0.00     0.065 A 
ATOM     11  C   UNL d   1      53.730  33.877  54.896  0.00  0.00     0.029 A 
ATOM     12  C   UNL d   1      54.006  34.635  55.043  0.00  0.00     0.127 A 
ATOM     13  C   UNL d   1      54.812  34.765  55.194  0.00  0.00     0.024 A 
ATOM     14  C   UNL d   1      55.329  34.122  55.195  0.00  0.00     0.002 A 
ATOM     15  C   UNL d   1      55.050  33.357  55.046  0.00  0.00     0.005 A 
BRANCH  12  16
ATOM     16  N   UNL d   1      53.484  35.283  55.042  0.00  0.00    -0.114 N 
ATOM     17  O   UNL d   1      53.021  35.442  55.700  0.00  0.00    -0.532 OA
ATOM     18  O   UNL d   1      53.441  35.762  54.368  0.00  0.00    -0.532 OA
ENDBRANCH  12  16
ENDBRANCH   8  10
ENDBRANCH   7   8
ENDBRANCH   2   7
BRANCH   1  19
ATOM     19  C   UNL d   1      52.633  32.029  52.753  0.00  0.00     0.198 C 
ATOM     20  O   UNL d   1      53.087  32.273  52.108  0.00  0.00    -0.286 OA
BRANCH  19  21
ATOM     21  C   UNL d   1      51.929  32.415  52.931  0.00  0.00     0.043 C 
BRANCH  21  22
ATOM     22  C   UNL d   1      51.605  32.948  52.393  0.00  0.00     0.010 C 
BRANCH  22  23
ATOM     23  C   UNL d   1      51.075  33.521  52.652  0.00  0.00     0.030 A 
ATOM     24  S   UNL d   1      50.934  34.256  52.305  0.00  0.00    -0.086 SA
ATOM     25  C   UNL d   1      50.361  34.651  52.746  0.00  0.00     0.035 A 
ATOM     26  C   UNL d   1      50.141  34.164  53.371  0.00  0.00     0.007 A 
ATOM     27  C   UNL d   1      50.580  33.465  53.316  0.00  0.00     0.007 A 
ENDBRANCH  22  23
ENDBRANCH  21  22
ENDBRANCH  19  21
ENDBRANCH   1  19
BRANCH   5  28
ATOM     28  O   UNL d   1      52.597  29.237  53.384  0.00  0.00    -0.328 OA
ATOM     29  C   UNL d   1      52.860  28.607  53.843  0.00  0.00     0.181 C 
ENDBRANCH   5  28
TORSDOF 9
ENDMDL
MODEL 4
REMARK VINA RESULT:      -7.0      2.154      4.581
REMARK  9 active torsions:
REMARK  status: ('A' for Active; 'I' for Inactive)
REMARK    1  A    between atoms: C_6  and  N_1 
REMARK    2  A    between atoms: C_7  and  C_2 
REMARK    3  A    between atoms: C_3  and  C_9 
REMARK    4  A    between atoms: O_5  and  C_3 
REMARK    5  A    between atoms: C_4  and  O_5 
REMARK    6  A    between atoms: C_8  and  C_7 
REMARK    7  A    between atoms: C_12  and  C_8 
REMARK    8  A    between atoms: C_10  and  C_12 
REMARK    9  A    between atoms: O_25  and  C_23 
ROOT
ATOM      1  C   UNL d   1      51.896  33.852  53.153  0.00  0.00     0.064 A 
ATOM      2  C   UNL d   1      51.662  33.065  53.074  0.00  0.00     0.106 A 
ATOM      3  C   UNL d   1      51.324  34.454  53.147  0.00  0.00     0.029 A 
ATOM      4  C   UNL d   1      50.857  32.880  52.989  0.00  0.00     0.027 A 
ATOM      5  C   UNL d   1      50.528  34.267  53.063  0.00  0.00     0.094 A 
ATOM      6  C   UNL d   1      50.294  33.480  52.984  0.00  0.00     0.026 A 
ENDROOT
BRANCH   2   7
ATOM      7  O   UNL d   1      52.224  32.461  53.079  0.00  0.00    -0.273 OA
BRANCH   7   8
ATOM      8  C   UNL d   1      51.980  31.673  53.105  0.00  0.00     0.300 C 
ATOM      9  O   UNL d   1      51.181  31.486  53.080  0.00  0.00    -0.259 OA
BRANCH   8  10
ATOM     10  C   UNL d   1      52.543  31.075  53.157  0.00  0.00     0.065 A 
ATOM     11  C   UNL d   1      52.569  30.598  53.824  0.00  0.00     0.029 A 
ATOM     12  C   UNL d   1      53.127  30.001  53.883  0.00  0.00     0.127 A 
ATOM     13  C   UNL d   1      53.670  29.874  53.269  0.00  0.00     0.024 A 
ATOM     14  C   UNL d   1      53.641  30.356  52.600  0.00  0.00     0.002 A 
ATOM     15  C   UNL d   1      53.076  30.960  52.541  0.00  0.00     0.005 A 
BRANCH  12  16
ATOM     16  N   UNL d   1      53.157  29.514  54.558  0.00  0.00    -0.114 N 
ATOM     17  O   UNL d   1      53.031  28.706  54.491  0.00  0.00    -0.532 OA
ATOM     18  O   UNL d   1      53.316  29.859  55.294  0.00  0.00    -0.532 OA
ENDBRANCH  12  16
ENDBRANCH   8  10
ENDBRANCH   7   8
ENDBRANCH   2   7
BRANCH   1  19
ATOM     19  C   UNL d   1      52.698  34.038  53.238  0.00  0.00     0.198 C 
ATOM     20  O   UNL d   1      53.141  34.254  52.577  0.00  0.00    -0.286 OA
BRANCH  19  21
ATOM     21  C   UNL d   1      53.052  34.006  53.980  0.00  0.00     0.043 C 
BRANCH  21  22
ATOM     22  C   UNL d   1      53.804  34.323  54.090  0.00  0.00     0.010 C 
BRANCH  22  23
ATOM     23  C   UNL d   1      54.296  34.018  54.674  0.00  0.00     0.030 A 
ATOM     24  S   UNL d   1      55.113  33.915  54.626  0.00  0.00    -0.086 SA
ATOM     25  C   UNL d   1      55.381  33.593  55.337  0.00  0.00     0.035 A 
ATOM     26  C   UNL d   1      54.731  33.495  55.832  0.00  0.00     0.007 A 
ATOM     27  C   UNL d   1      54.060  33.756  55.425  0.00  0.00     0.007 A 
ENDBRANCH  22  23
ENDBRANCH  21  22
ENDBRANCH  19  21
ENDBRANCH   1  19
BRANCH   5  28
ATOM     28  O   UNL d   1      49.963  34.867  53.057  0.00  0.00    -0.328 OA
ATOM     29  C   UNL d   1      49.357  34.855  52.502  0.00  0.00     0.181 C 
ENDBRANCH   5  28
TORSDOF 9
ENDMDL
MODEL 5
REMARK VINA RESULT:      -6.2      1.521      3.842
REMARK  9 active torsions:
REMARK  status: ('A' for Active; 'I' for Inactive)
REMARK    1  A    between atoms: C_6  and  N_1 
REMARK    2  A    between atoms: C_7  and  C_2 
REMARK    3  A    between atoms: C_3  and  C_9 
REMARK    4  A    between atoms: O_5  and  C_3 
REMARK    5  A    between atoms: C_4  and  O_5 
REMARK    6  A    between atoms: C_8  and  C_7 
REMARK    7  A    between atoms: C_12  and  C_8 
REMARK    8  A    between atoms: C_10  and  C_12 
REMARK    9  A    between atoms: O_25  and  C_23 
ROOT
ATOM      1  C   UNL d   1      51.806  33.335  52.834  0.00  0.00     0.064 A 
ATOM      2  C   UNL d   1      52.213  33.942  53.217  0.00  0.00     0.106 A 
ATOM      3  C   UNL d   1      50.983  33.386  52.738  0.00  0.00     0.029 A 
ATOM      4  C   UNL d   1      51.796  34.602  53.503  0.00  0.00     0.027 A 
ATOM      5  C   UNL d   1      50.573  34.041  53.022  0.00  0.00     0.094 A 
ATOM      6  C   UNL d   1      50.980  34.648  53.405  0.00  0.00     0.026 A 
ENDROOT
BRANCH   2   7
ATOM      7  O   UNL d   1      53.030  33.899  53.317  0.00  0.00    -0.273 OA
BRANCH   7   8
ATOM      8  C   UNL d   1      53.410  34.426  53.825  0.00  0.00     0.300 C 
ATOM      9  O   UNL d   1      53.098  35.173  53.957  0.00  0.00    -0.259 OA
BRANCH   8  10
ATOM     10  C   UNL d   1      54.107  34.197  54.200  0.00  0.00     0.065 A 
ATOM     11  C   UNL d   1      54.072  33.846  54.941  0.00  0.00     0.029 A 
ATOM     12  C   UNL d   1      54.761  33.615  55.321  0.00  0.00     0.127 A 
ATOM     13  C   UNL d   1      55.498  33.734  54.959  0.00  0.00     0.024 A 
ATOM     14  C   UNL d   1      55.527  34.087  54.214  0.00  0.00     0.002 A 
ATOM     15  C   UNL d   1      54.831  34.320  53.831  0.00  0.00     0.005 A 
BRANCH  12  16
ATOM     16  N   UNL d   1      54.731  33.259  56.073  0.00  0.00    -0.114 N 
ATOM     17  O   UNL d   1      55.083  33.624  56.717  0.00  0.00    -0.532 OA
ATOM     18  O   UNL d   1      54.341  32.533  56.157  0.00  0.00    -0.532 OA
ENDBRANCH  12  16
ENDBRANCH   8  10
ENDBRANCH   7   8
ENDBRANCH   2   7
BRANCH   1  19
ATOM     19  C   UNL d   1      52.220  32.678  52.549  0.00  0.00     0.198 C 
ATOM     20  O   UNL d   1      52.607  32.721  51.822  0.00  0.00    -0.286 OA
BRANCH  19  21
ATOM     21  C   UNL d   1      52.246  31.984  52.989  0.00  0.00     0.043 C 
BRANCH  21  22
ATOM     22  C   UNL d   1      52.557  31.298  52.657  0.00  0.00     0.010 C 
BRANCH  22  23
ATOM     23  C   UNL d   1      52.793  30.677  53.142  0.00  0.00     0.030 A 
ATOM     24  S   UNL d   1      52.325  30.053  53.409  0.00  0.00    -0.086 SA
ATOM     25  C   UNL d   1      52.785  29.559  53.881  0.00  0.00     0.035 A 
ATOM     26  C   UNL d   1      53.546  29.873  53.911  0.00  0.00     0.007 A 
ATOM     27  C   UNL d   1      53.553  30.563  53.456  0.00  0.00     0.007 A 
ENDBRANCH  22  23
ENDBRANCH  21  22
ENDBRANCH  19  21
ENDBRANCH   1  19
BRANCH   5  28
ATOM     28  O   UNL d   1      49.757  34.088  52.925  0.00  0.00    -0.328 OA
ATOM     29  C   UNL d   1      49.420  34.773  52.617  0.00  0.00     0.181 C 
ENDBRANCH   5  28
TORSDOF 9
ENDMDL
