MODEL 1
REMARK VINA RESULT:      17.0      0.000      0.000
REMARK  4 active torsions:
REMARK  status: ('A' for Active; 'I' for Inactive)
REMARK    1  A    between atoms: C_6  and  C_2 
REMARK    2  A    between atoms: C_8  and  C_6 
REMARK    3  A    between atoms: C_7  and  C_9 
REMARK    4  A    between atoms: C_9  and  C_8 
ROOT
ATOM      1  C   UNL d   1      59.220  49.113  51.062  0.00  0.00     0.006 C 
ENDROOT
BRANCH   1   2
ATOM      2  C   UNL d   1      59.976  49.331  51.291  0.00  0.00     0.039 A 
ATOM      3  C   UNL d   1      60.645  49.542  50.858  0.00  0.00     0.103 A 
ATOM      4  N   UNL d   1      61.250  49.707  51.391  0.00  0.00    -0.165 NA
ATOM      5  C   UNL d   1      60.650  49.568  50.032  0.00  0.00     0.022 C 
ATOM      6  N   UNL d   1      60.958  49.598  52.146  0.00  0.00    -0.225 N 
ATOM      7  C   UNL d   1      60.173  49.366  52.088  0.00  0.00     0.102 A 
ATOM      8  C   UNL d   1      61.389  49.706  52.842  0.00  0.00     0.121 C 
ENDBRANCH   1   2
BRANCH   1   9
ATOM      9  C   UNL d   1      58.641  49.689  50.943  0.00  0.00     0.043 C 
BRANCH   9  10
ATOM     10  C   UNL d   1      58.197  49.692  50.239  0.00  0.00     0.202 C 
ATOM     11  O   UNL d   1      58.582  49.706  49.514  0.00  0.00    -0.286 OA
BRANCH  10  12
ATOM     12  C   UNL d   1      57.366  49.682  50.274  0.00  0.00     0.068 A 
ATOM     13  S   UNL d   1      56.696  49.658  50.751  0.00  0.00    -0.083 SA
ATOM     14  C   UNL d   1      56.033  49.668  50.260  0.00  0.00     0.035 A 
ATOM     15  C   UNL d   1      56.294  49.699  49.478  0.00  0.00     0.008 A 
ATOM     16  C   UNL d   1      57.123  49.708  49.486  0.00  0.00     0.010 A 
ENDBRANCH  10  12
ENDBRANCH   9  10
ENDBRANCH   1   9
TORSDOF 4
ENDMDL
