MODEL 1
REMARK VINA RESULT:      -3.3      0.000      0.000
REMARK  5 active torsions:
REMARK  status: ('A' for Active; 'I' for Inactive)
REMARK    1  A    between atoms: C_4  and  S_1 
REMARK    2  A    between atoms: N_6  and  S_1 
REMARK    3  A    between atoms: C_3  and  C_2 
REMARK    4  A    between atoms: C_10  and  N_6 
REMARK    5  A    between atoms: C_17  and  C_10 
ROOT
ATOM      1  C   UNL d   1      29.551  16.779 -24.121  0.00  0.00     0.083 A 
ATOM      2  C   UNL d   1      30.905  16.305 -24.139  0.00  0.00     0.105 A 
ATOM      3  C   UNL d   1      30.323  16.813 -24.429  0.00  0.00     0.018 A 
ATOM      4  C   UNL d   1      29.368  16.236 -23.526  0.00  0.00     0.062 A 
ATOM      5  C   UNL d   1      30.722  15.765 -23.547  0.00  0.00     0.014 A 
ATOM      6  C   UNL d   1      29.949  15.731 -23.239  0.00  0.00     0.012 A 
ATOM      7 CL   UNL d   1      28.604  16.202 -23.221  0.00  0.00    -0.082 Cl
ENDROOT
BRANCH   2   8
ATOM      8  S   UNL d   1      31.672  16.333 -24.439  0.00  0.00     0.285 S 
ATOM      9  O   UNL d   1      32.432  16.367 -24.731  0.00  0.00    -0.198 OA
ATOM     10  O   UNL d   1      31.504  15.719 -24.948  0.00  0.00    -0.198 OA
BRANCH   8  11
ATOM     11  N   UNL d   1      31.846  16.953 -23.925  0.00  0.00    -0.155 NA
BRANCH  11  12
ATOM     12  C   UNL d   1      32.606  17.286 -23.918  0.00  0.00     0.137 C 
BRANCH  12  13
ATOM     13  C   UNL d   1      32.767  17.928 -23.426  0.00  0.00     0.120 A 
ATOM     14  O   UNL d   1      32.512  18.710 -23.528  0.00  0.00    -0.304 OA
ATOM     15  C   UNL d   1      32.805  19.154 -22.906  0.00  0.00     0.123 A 
ATOM     16  C   UNL d   1      33.240  18.662 -22.415  0.00  0.00     0.029 A 
ATOM     17  C   UNL d   1      33.219  17.902 -22.733  0.00  0.00     0.028 A 
ENDBRANCH  12  13
ENDBRANCH  11  12
ENDBRANCH   8  11
ENDBRANCH   2   8
BRANCH   1  18
ATOM     18  C   UNL d   1      28.970  17.284 -24.408  0.00  0.00     0.420 C 
ATOM     19  F   UNL d   1      28.708  18.047 -24.096  0.00  0.00    -0.166 F 
ATOM     20  F   UNL d   1      28.433  17.752 -24.672  0.00  0.00    -0.166 F 
ATOM     21  F   UNL d   1      28.461  17.195 -25.096  0.00  0.00    -0.166 F 
ENDBRANCH   1  18
TORSDOF 5
ENDMDL
MODEL 2
REMARK VINA RESULT:      -3.1      1.134      1.439
REMARK  5 active torsions:
REMARK  status: ('A' for Active; 'I' for Inactive)
REMARK    1  A    between atoms: C_4  and  S_1 
REMARK    2  A    between atoms: N_6  and  S_1 
REMARK    3  A    between atoms: C_3  and  C_2 
REMARK    4  A    between atoms: C_10  and  N_6 
REMARK    5  A    between atoms: C_17  and  C_10 
ROOT
ATOM      1  C   UNL d   1      29.549  16.376 -23.739  0.00  0.00     0.083 A 
ATOM      2  C   UNL d   1      30.756  16.648 -24.466  0.00  0.00     0.105 A 
ATOM      3  C   UNL d   1      30.350  16.214 -23.892  0.00  0.00     0.018 A 
ATOM      4  C   UNL d   1      29.161  16.971 -24.161  0.00  0.00     0.062 A 
ATOM      5  C   UNL d   1      30.368  17.239 -24.885  0.00  0.00     0.014 A 
ATOM      6  C   UNL d   1      29.567  17.401 -24.732  0.00  0.00     0.012 A 
ATOM      7 CL   UNL d   1      28.367  17.131 -24.009  0.00  0.00    -0.082 Cl
ENDROOT
BRANCH   2   8
ATOM      8  S   UNL d   1      31.550  16.493 -24.624  0.00  0.00     0.285 S 
ATOM      9  O   UNL d   1      32.337  16.346 -24.775  0.00  0.00    -0.198 OA
ATOM     10  O   UNL d   1      31.341  15.863 -25.097  0.00  0.00    -0.198 OA
BRANCH   8  11
ATOM     11  N   UNL d   1      31.765  17.129 -24.146  0.00  0.00    -0.155 NA
BRANCH  11  12
ATOM     12  C   UNL d   1      32.566  17.306 -24.026  0.00  0.00     0.137 C 
BRANCH  12  13
ATOM     13  C   UNL d   1      32.777  17.937 -23.539  0.00  0.00     0.120 A 
ATOM     14  O   UNL d   1      32.698  18.745 -23.707  0.00  0.00    -0.304 OA
ATOM     15  C   UNL d   1      32.979  19.166 -23.064  0.00  0.00     0.123 A 
ATOM     16  C   UNL d   1      33.235  18.635 -22.494  0.00  0.00     0.029 A 
ATOM     17  C   UNL d   1      33.112  17.872 -22.784  0.00  0.00     0.028 A 
ENDBRANCH  12  13
ENDBRANCH  11  12
ENDBRANCH   8  11
ENDBRANCH   2   8
BRANCH   1  18
ATOM     18  C   UNL d   1      29.143  15.946 -23.168  0.00  0.00     0.420 C 
ATOM     19  F   UNL d   1      28.439  15.453 -23.257  0.00  0.00    -0.166 F 
ATOM     20  F   UNL d   1      28.767  15.548 -22.643  0.00  0.00    -0.166 F 
ATOM     21  F   UNL d   1      29.306  15.867 -22.328  0.00  0.00    -0.166 F 
ENDBRANCH   1  18
TORSDOF 5
ENDMDL
MODEL 3
REMARK VINA RESULT:      -2.1      1.339      1.895
REMARK  5 active torsions:
REMARK  status: ('A' for Active; 'I' for Inactive)
REMARK    1  A    between atoms: C_4  and  S_1 
REMARK    2  A    between atoms: N_6  and  S_1 
REMARK    3  A    between atoms: C_3  and  C_2 
REMARK    4  A    between atoms: C_10  and  N_6 
REMARK    5  A    between atoms: C_17  and  C_10 
ROOT
ATOM      1  C   UNL d   1      30.941  16.889 -23.931  0.00  0.00     0.083 A 
ATOM      2  C   UNL d   1      32.254  17.434 -24.131  0.00  0.00     0.105 A 
ATOM      3  C   UNL d   1      31.433  17.505 -24.198  0.00  0.00     0.018 A 
ATOM      4  C   UNL d   1      31.274  16.209 -23.602  0.00  0.00     0.062 A 
ATOM      5  C   UNL d   1      32.582  16.756 -23.803  0.00  0.00     0.014 A 
ATOM      6  C   UNL d   1      32.090  16.141 -23.537  0.00  0.00     0.012 A 
ATOM      7 CL   UNL d   1      30.786  15.599 -23.338  0.00  0.00    -0.082 Cl
ENDROOT
BRANCH   2   8
ATOM      8  S   UNL d   1      32.748  18.040 -24.393  0.00  0.00     0.285 S 
ATOM      9  O   UNL d   1      33.235  18.642 -24.644  0.00  0.00    -0.198 OA
ATOM     10  O   UNL d   1      32.868  17.648 -25.097  0.00  0.00    -0.198 OA
BRANCH   8  11
ATOM     11  N   UNL d   1      32.628  18.439 -23.682  0.00  0.00    -0.155 NA
BRANCH  11  12
ATOM     12  C   UNL d   1      33.057  19.129 -23.515  0.00  0.00     0.137 C 
BRANCH  12  13
ATOM     13  C   UNL d   1      32.956  19.509 -22.791  0.00  0.00     0.120 A 
ATOM     14  O   UNL d   1      33.221  19.250 -22.050  0.00  0.00    -0.304 OA
ATOM     15  C   UNL d   1      32.994  19.804 -21.492  0.00  0.00     0.123 A 
ATOM     16  C   UNL d   1      32.590  20.408 -21.871  0.00  0.00     0.029 A 
ATOM     17  C   UNL d   1      32.564  20.230 -22.676  0.00  0.00     0.028 A 
ENDBRANCH  12  13
ENDBRANCH  11  12
ENDBRANCH   8  11
ENDBRANCH   2   8
BRANCH   1  18
ATOM     18  C   UNL d   1      30.124  16.957 -23.996  0.00  0.00     0.420 C 
ATOM     19  F   UNL d   1      29.591  16.590 -24.570  0.00  0.00    -0.166 F 
ATOM     20  F   UNL d   1      29.370  17.018 -24.058  0.00  0.00    -0.166 F 
ATOM     21  F   UNL d   1      29.575  17.410 -23.514  0.00  0.00    -0.166 F 
ENDBRANCH   1  18
TORSDOF 5
ENDMDL
MODEL 4
REMARK VINA RESULT:      -2.0      1.755      2.115
REMARK  5 active torsions:
REMARK  status: ('A' for Active; 'I' for Inactive)
REMARK    1  A    between atoms: C_4  and  S_1 
REMARK    2  A    between atoms: N_6  and  S_1 
REMARK    3  A    between atoms: C_3  and  C_2 
REMARK    4  A    between atoms: C_10  and  N_6 
REMARK    5  A    between atoms: C_17  and  C_10 
ROOT
ATOM      1  C   UNL d   1      28.574  16.592 -23.807  0.00  0.00     0.083 A 
ATOM      2  C   UNL d   1      29.708  16.891 -24.635  0.00  0.00     0.105 A 
ATOM      3  C   UNL d   1      29.227  17.074 -23.989  0.00  0.00     0.018 A 
ATOM      4  C   UNL d   1      28.408  15.930 -24.273  0.00  0.00     0.062 A 
ATOM      5  C   UNL d   1      29.541  16.232 -25.097  0.00  0.00     0.014 A 
ATOM      6  C   UNL d   1      28.888  15.749 -24.915  0.00  0.00     0.012 A 
ATOM      7 CL   UNL d   1      27.762  15.453 -24.092  0.00  0.00    -0.082 Cl
ENDROOT
BRANCH   2   8
ATOM      8  S   UNL d   1      30.356  17.364 -24.822  0.00  0.00     0.285 S 
ATOM      9  O   UNL d   1      31.002  17.826 -25.003  0.00  0.00    -0.198 OA
ATOM     10  O   UNL d   1      29.860  17.949 -25.096  0.00  0.00    -0.198 OA
BRANCH   8  11
ATOM     11  N   UNL d   1      30.861  16.774 -24.545  0.00  0.00    -0.155 NA
BRANCH  11  12
ATOM     12  C   UNL d   1      31.670  16.931 -24.450  0.00  0.00     0.137 C 
BRANCH  12  13
ATOM     13  C   UNL d   1      32.145  16.396 -24.041  0.00  0.00     0.120 A 
ATOM     14  O   UNL d   1      32.074  16.173 -23.245  0.00  0.00    -0.304 OA
ATOM     15  C   UNL d   1      32.664  15.630 -23.081  0.00  0.00     0.123 A 
ATOM     16  C   UNL d   1      33.105  15.509 -23.762  0.00  0.00     0.029 A 
ATOM     17  C   UNL d   1      32.788  15.981 -24.359  0.00  0.00     0.028 A 
ENDBRANCH  12  13
ENDBRANCH  11  12
ENDBRANCH   8  11
ENDBRANCH   2   8
BRANCH   1  18
ATOM     18  C   UNL d   1      28.095  16.773 -23.164  0.00  0.00     0.420 C 
ATOM     19  F   UNL d   1      27.381  17.260 -23.137  0.00  0.00    -0.166 F 
ATOM     20  F   UNL d   1      27.651  16.941 -22.572  0.00  0.00    -0.166 F 
ATOM     21  F   UNL d   1      28.169  16.529 -22.343  0.00  0.00    -0.166 F 
ENDBRANCH   1  18
TORSDOF 5
ENDMDL
MODEL 5
REMARK VINA RESULT:      -1.7      2.376      3.805
REMARK  5 active torsions:
REMARK  status: ('A' for Active; 'I' for Inactive)
REMARK    1  A    between atoms: C_4  and  S_1 
REMARK    2  A    between atoms: N_6  and  S_1 
REMARK    3  A    between atoms: C_3  and  C_2 
REMARK    4  A    between atoms: C_10  and  N_6 
REMARK    5  A    between atoms: C_17  and  C_10 
ROOT
ATOM      1  C   UNL d   1      32.686  18.266 -23.382  0.00  0.00     0.083 A 
ATOM      2  C   UNL d   1      32.300  16.959 -23.833  0.00  0.00     0.105 A 
ATOM      3  C   UNL d   1      32.401  17.502 -23.218  0.00  0.00     0.018 A 
ATOM      4  C   UNL d   1      32.867  18.480 -24.159  0.00  0.00     0.062 A 
ATOM      5  C   UNL d   1      32.480  17.175 -24.605  0.00  0.00     0.014 A 
ATOM      6  C   UNL d   1      32.765  17.939 -24.769  0.00  0.00     0.012 A 
ATOM      7 CL   UNL d   1      33.149  19.237 -24.321  0.00  0.00    -0.082 Cl
ENDROOT
BRANCH   2   8
ATOM      8  S   UNL d   1      32.018  16.200 -23.679  0.00  0.00     0.285 S 
ATOM      9  O   UNL d   1      31.732  15.452 -23.527  0.00  0.00    -0.198 OA
ATOM     10  O   UNL d   1      32.777  15.937 -23.546  0.00  0.00    -0.198 OA
BRANCH   8  11
ATOM     11  N   UNL d   1      31.248  16.463 -23.812  0.00  0.00    -0.155 NA
BRANCH  11  12
ATOM     12  C   UNL d   1      30.613  15.933 -23.760  0.00  0.00     0.137 C 
BRANCH  12  13
ATOM     13  C   UNL d   1      29.843  16.203 -23.875  0.00  0.00     0.120 A 
ATOM     14  O   UNL d   1      29.529  16.537 -24.566  0.00  0.00    -0.304 OA
ATOM     15  C   UNL d   1      28.745  16.723 -24.424  0.00  0.00     0.123 A 
ATOM     16  C   UNL d   1      28.561  16.511 -23.653  0.00  0.00     0.029 A 
ATOM     17  C   UNL d   1      29.238  16.189 -23.309  0.00  0.00     0.028 A 
ENDBRANCH  12  13
ENDBRANCH  11  12
ENDBRANCH   8  11
ENDBRANCH   2   8
BRANCH   1  18
ATOM     18  C   UNL d   1      32.788  18.807 -22.772  0.00  0.00     0.420 C 
ATOM     19  F   UNL d   1      33.241  18.724 -22.040  0.00  0.00    -0.166 F 
ATOM     20  F   UNL d   1      32.883  19.306 -22.208  0.00  0.00    -0.166 F 
ATOM     21  F   UNL d   1      32.474  19.604 -22.692  0.00  0.00    -0.166 F 
ENDBRANCH   1  18
TORSDOF 5
ENDMDL
MODEL 6
REMARK VINA RESULT:      -0.8      4.389      5.948
REMARK  5 active torsions:
REMARK  status: ('A' for Active; 'I' for Inactive)
REMARK    1  A    between atoms: C_4  and  S_1 
REMARK    2  A    between atoms: N_6  and  S_1 
REMARK    3  A    between atoms: C_3  and  C_2 
REMARK    4  A    between atoms: C_10  and  N_6 
REMARK    5  A    between atoms: C_17  and  C_10 
ROOT
ATOM      1  C   UNL d   1      32.270  22.659 -21.194  0.00  0.00     0.083 A 
ATOM      2  C   UNL d   1      32.908  21.382 -21.350  0.00  0.00     0.105 A 
ATOM      3  C   UNL d   1      32.435  21.895 -20.908  0.00  0.00     0.018 A 
ATOM      4  C   UNL d   1      32.581  22.902 -21.920  0.00  0.00     0.062 A 
ATOM      5  C   UNL d   1      33.215  21.626 -22.071  0.00  0.00     0.014 A 
ATOM      6  C   UNL d   1      33.051  22.390 -22.358  0.00  0.00     0.012 A 
ATOM      7 CL   UNL d   1      32.418  23.659 -22.203  0.00  0.00    -0.082 Cl
ENDROOT
BRANCH   2   8
ATOM      8  S   UNL d   1      33.074  20.624 -21.073  0.00  0.00     0.285 S 
ATOM      9  O   UNL d   1      33.238  19.872 -20.806  0.00  0.00    -0.198 OA
ATOM     10  O   UNL d   1      33.237  20.922 -20.332  0.00  0.00    -0.198 OA
BRANCH   8  11
ATOM     11  N   UNL d   1      32.911  20.319 -21.821  0.00  0.00    -0.155 NA
BRANCH  11  12
ATOM     12  C   UNL d   1      32.900  19.498 -21.941  0.00  0.00     0.137 C 
BRANCH  12  13
ATOM     13  C   UNL d   1      32.912  19.198 -22.708  0.00  0.00     0.120 A 
ATOM     14  O   UNL d   1      33.226  19.563 -23.383  0.00  0.00    -0.304 OA
ATOM     15  C   UNL d   1      33.113  19.060 -24.019  0.00  0.00     0.123 A 
ATOM     16  C   UNL d   1      32.732  18.384 -23.754  0.00  0.00     0.029 A 
ATOM     17  C   UNL d   1      32.605  18.464 -22.943  0.00  0.00     0.028 A 
ENDBRANCH  12  13
ENDBRANCH  11  12
ENDBRANCH   8  11
ENDBRANCH   2   8
BRANCH   1  18
ATOM     18  C   UNL d   1      31.800  23.171 -20.756  0.00  0.00     0.420 C 
ATOM     19  F   UNL d   1      31.009  23.471 -20.935  0.00  0.00    -0.166 F 
ATOM     20  F   UNL d   1      31.364  23.644 -20.352  0.00  0.00    -0.166 F 
ATOM     21  F   UNL d   1      31.963  23.549 -20.000  0.00  0.00    -0.166 F 
ENDBRANCH   1  18
TORSDOF 5
ENDMDL
