MODEL 1
REMARK VINA RESULT:      -1.0      0.000      0.000
REMARK  4 active torsions:
REMARK  status: ('A' for Active; 'I' for Inactive)
REMARK    1  A    between atoms: C_2  and  S_1 
REMARK    2  A    between atoms: N_3  and  S_1 
REMARK    3  A    between atoms: C_4  and  C_6 
REMARK       I    between atoms: N_7  and  C_4 
REMARK    4  A    between atoms: C_14  and  N_7 
ROOT
ATOM      1  C   UNL d   1      31.938  18.077 -23.424  0.00  0.00     0.104 A 
ATOM      2  C   UNL d   1      32.018  18.865 -23.192  0.00  0.00     0.018 A 
ATOM      3  C   UNL d   1      32.671  19.096 -22.736  0.00  0.00     0.059 A 
ATOM      4  C   UNL d   1      32.502  17.527 -23.205  0.00  0.00     0.012 A 
ATOM      5  C   UNL d   1      33.241  18.539 -22.516  0.00  0.00     0.005 A 
ATOM      6  C   UNL d   1      33.155  17.758 -22.750  0.00  0.00     0.001 A 
ATOM      7  C   UNL d   1      32.422  16.739 -23.438  0.00  0.00     0.001 C 
ENDROOT
BRANCH   3   8
ATOM      8  C   UNL d   1      32.757  19.887 -22.500  0.00  0.00     0.279 C 
ATOM      9  N   UNL d   1      32.417  20.147 -21.797  0.00  0.00    -0.208 NA
ATOM     10  O   UNL d   1      33.184  20.413 -22.969  0.00  0.00    -0.265 OA
BRANCH   9  11
ATOM     11  C   UNL d   1      32.501  20.931 -21.562  0.00  0.00     0.087 A 
ATOM     12  C   UNL d   1      32.722  21.101 -20.794  0.00  0.00     0.045 A 
ATOM     13  C   UNL d   1      32.808  21.878 -20.553  0.00  0.00     0.121 A 
ATOM     14  O   UNL d   1      33.021  22.223 -19.828  0.00  0.00    -0.299 OA
ATOM     15  C   UNL d   1      32.671  22.496 -21.090  0.00  0.00     0.119 A 
ATOM     16  C   UNL d   1      33.017  23.045 -19.911  0.00  0.00     0.304 A 
ATOM     17  O   UNL d   1      32.797  23.218 -20.700  0.00  0.00    -0.300 OA
ATOM     18  C   UNL d   1      32.446  22.321 -21.869  0.00  0.00     0.028 A 
ATOM     19  C   UNL d   1      32.362  21.540 -22.105  0.00  0.00     0.021 A 
ENDBRANCH   9  11
ENDBRANCH   3   8
BRANCH   1  20
ATOM     20  S   UNL d   1      31.292  17.848 -23.874  0.00  0.00     0.271 S 
ATOM     21  O   UNL d   1      31.753  17.914 -24.570  0.00  0.00    -0.200 OA
ATOM     22  O   UNL d   1      30.771  17.773 -23.089  0.00  0.00    -0.200 OA
BRANCH  20  23
ATOM     23  N   UNL d   1      30.610  17.612 -24.285  0.00  0.00    -0.229 N 
ATOM     24  C   UNL d   1      30.431  16.809 -24.360  0.00  0.00     0.092 A 
ATOM     25  C   UNL d   1      29.760  16.571 -24.763  0.00  0.00     0.020 A 
ATOM     26  C   UNL d   1      29.257  17.129 -25.097  0.00  0.00     0.003 A 
ATOM     27  C   UNL d   1      29.435  17.932 -25.022  0.00  0.00     0.020 A 
ATOM     28  C   UNL d   1      30.110  18.175 -24.617  0.00  0.00     0.092 A 
ENDBRANCH  20  23
ENDBRANCH   1  20
TORSDOF 4
ENDMDL
MODEL 2
REMARK VINA RESULT:      -0.5      2.196      6.030
REMARK  4 active torsions:
REMARK  status: ('A' for Active; 'I' for Inactive)
REMARK    1  A    between atoms: C_2  and  S_1 
REMARK    2  A    between atoms: N_3  and  S_1 
REMARK    3  A    between atoms: C_4  and  C_6 
REMARK       I    between atoms: N_7  and  C_4 
REMARK    4  A    between atoms: C_14  and  N_7 
ROOT
ATOM      1  C   UNL d   1      32.792  22.353 -20.586  0.00  0.00     0.104 A 
ATOM      2  C   UNL d   1      32.886  21.553 -20.765  0.00  0.00     0.018 A 
ATOM      3  C   UNL d   1      32.914  21.307 -21.556  0.00  0.00     0.059 A 
ATOM      4  C   UNL d   1      32.727  22.901 -21.189  0.00  0.00     0.012 A 
ATOM      5  C   UNL d   1      32.848  21.863 -22.165  0.00  0.00     0.005 A 
ATOM      6  C   UNL d   1      32.756  22.656 -21.981  0.00  0.00     0.001 A 
ATOM      7  C   UNL d   1      32.634  23.702 -21.011  0.00  0.00     0.001 C 
ENDROOT
BRANCH   3   8
ATOM      8  C   UNL d   1      33.008  20.504 -21.742  0.00  0.00     0.279 C 
ATOM      9  N   UNL d   1      32.869  20.238 -22.508  0.00  0.00    -0.208 NA
ATOM     10  O   UNL d   1      33.241  19.970 -21.157  0.00  0.00    -0.265 OA
BRANCH   9  11
ATOM     11  C   UNL d   1      32.961  19.441 -22.693  0.00  0.00     0.087 A 
ATOM     12  C   UNL d   1      32.888  19.195 -23.468  0.00  0.00     0.045 A 
ATOM     13  C   UNL d   1      32.979  18.405 -23.659  0.00  0.00     0.121 A 
ATOM     14  O   UNL d   1      32.938  17.991 -24.379  0.00  0.00    -0.299 OA
ATOM     15  C   UNL d   1      33.147  17.851 -23.064  0.00  0.00     0.119 A 
ATOM     16  C   UNL d   1      33.078  17.190 -24.235  0.00  0.00     0.304 A 
ATOM     17  O   UNL d   1      33.209  17.100 -23.412  0.00  0.00    -0.300 OA
ATOM     18  C   UNL d   1      33.221  18.104 -22.278  0.00  0.00     0.028 A 
ATOM     19  C   UNL d   1      33.129  18.897 -22.092  0.00  0.00     0.021 A 
ENDBRANCH   9  11
ENDBRANCH   3   8
BRANCH   1  20
ATOM     20  S   UNL d   1      32.764  22.596 -19.804  0.00  0.00     0.271 S 
ATOM     21  O   UNL d   1      33.190  23.289 -20.003  0.00  0.00    -0.200 OA
ATOM     22  O   UNL d   1      32.283  21.813 -19.578  0.00  0.00    -0.200 OA
BRANCH  20  23
ATOM     23  N   UNL d   1      32.708  22.797 -18.999  0.00  0.00    -0.229 N 
ATOM     24  C   UNL d   1      33.210  22.439 -18.450  0.00  0.00     0.092 A 
ATOM     25  C   UNL d   1      33.160  22.634 -17.657  0.00  0.00     0.020 A 
ATOM     26  C   UNL d   1      32.609  23.187 -17.400  0.00  0.00     0.003 A 
ATOM     27  C   UNL d   1      32.107  23.544 -17.949  0.00  0.00     0.020 A 
ATOM     28  C   UNL d   1      32.155  23.351 -18.748  0.00  0.00     0.092 A 
ENDBRANCH  20  23
ENDBRANCH   1  20
TORSDOF 4
ENDMDL
MODEL 3
REMARK VINA RESULT:       0.2      1.765      5.554
REMARK  4 active torsions:
REMARK  status: ('A' for Active; 'I' for Inactive)
REMARK    1  A    between atoms: C_2  and  S_1 
REMARK    2  A    between atoms: N_3  and  S_1 
REMARK    3  A    between atoms: C_4  and  C_6 
REMARK       I    between atoms: N_7  and  C_4 
REMARK    4  A    between atoms: C_14  and  N_7 
ROOT
ATOM      1  C   UNL d   1      32.119  18.510 -23.611  0.00  0.00     0.104 A 
ATOM      2  C   UNL d   1      31.443  18.050 -23.495  0.00  0.00     0.018 A 
ATOM      3  C   UNL d   1      31.214  17.500 -24.071  0.00  0.00     0.059 A 
ATOM      4  C   UNL d   1      32.561  18.421 -24.294  0.00  0.00     0.012 A 
ATOM      5  C   UNL d   1      31.662  17.411 -24.761  0.00  0.00     0.005 A 
ATOM      6  C   UNL d   1      32.332  17.871 -24.870  0.00  0.00     0.001 A 
ATOM      7  C   UNL d   1      33.236  18.881 -24.410  0.00  0.00     0.001 C 
ENDROOT
BRANCH   3   8
ATOM      8  C   UNL d   1      30.536  17.035 -23.960  0.00  0.00     0.279 C 
ATOM      9  N   UNL d   1      29.829  17.240 -24.329  0.00  0.00    -0.208 NA
ATOM     10  O   UNL d   1      30.569  16.366 -23.479  0.00  0.00    -0.265 OA
BRANCH   9  11
ATOM     11  C   UNL d   1      29.156  16.780 -24.219  0.00  0.00     0.087 A 
ATOM     12  C   UNL d   1      28.717  16.863 -23.535  0.00  0.00     0.045 A 
ATOM     13  C   UNL d   1      28.047  16.409 -23.419  0.00  0.00     0.121 A 
ATOM     14  O   UNL d   1      27.497  16.365 -22.797  0.00  0.00    -0.299 OA
ATOM     15  C   UNL d   1      27.811  15.862 -23.997  0.00  0.00     0.119 A 
ATOM     16  C   UNL d   1      26.926  15.799 -22.985  0.00  0.00     0.304 A 
ATOM     17  O   UNL d   1      27.120  15.482 -23.736  0.00  0.00    -0.300 OA
ATOM     18  C   UNL d   1      28.259  15.780 -24.690  0.00  0.00     0.028 A 
ATOM     19  C   UNL d   1      28.930  16.238 -24.801  0.00  0.00     0.021 A 
ENDBRANCH   9  11
ENDBRANCH   3   8
BRANCH   1  20
ATOM     20  S   UNL d   1      32.345  19.054 -23.042  0.00  0.00     0.271 S 
ATOM     21  O   UNL d   1      32.704  18.441 -22.599  0.00  0.00    -0.200 OA
ATOM     22  O   UNL d   1      31.939  19.747 -23.542  0.00  0.00    -0.200 OA
BRANCH  20  23
ATOM     23  N   UNL d   1      32.551  19.644 -22.494  0.00  0.00    -0.229 N 
ATOM     24  C   UNL d   1      32.298  20.421 -22.612  0.00  0.00     0.092 A 
ATOM     25  C   UNL d   1      32.498  21.006 -22.076  0.00  0.00     0.020 A 
ATOM     26  C   UNL d   1      32.952  20.825 -21.415  0.00  0.00     0.003 A 
ATOM     27  C   UNL d   1      33.205  20.048 -21.297  0.00  0.00     0.020 A 
ATOM     28  C   UNL d   1      33.006  19.457 -21.835  0.00  0.00     0.092 A 
ENDBRANCH  20  23
ENDBRANCH   1  20
TORSDOF 4
ENDMDL
