MODEL 1
REMARK VINA RESULT:      -3.8      0.000      0.000
REMARK  6 active torsions:
REMARK  status: ('A' for Active; 'I' for Inactive)
REMARK    1  A    between atoms: C_2  and  C_1 
REMARK       I    between atoms: N_3  and  C_2 
REMARK    2  A    between atoms: C_24  and  N_3 
REMARK    3  A    between atoms: C_4  and  C_10 
REMARK    4  A    between atoms: C_9  and  C_4 
REMARK    5  A    between atoms: C_8  and  C_9 
REMARK    6  A    between atoms: C_10  and  C_15 
ROOT
ATOM      1  C   UNL d   1     -41.228-122.270 -51.652  0.00  0.00     0.039 A 
ATOM      2  C   UNL d   1     -41.158-122.952 -50.142  0.00  0.00     0.084 A 
ATOM      3  C   UNL d   1     -41.229-121.769 -50.950  0.00  0.00     0.005 A 
ATOM      4  C   UNL d   1     -41.193-123.076 -51.566  0.00  0.00     0.005 A 
ATOM      5  C   UNL d   1     -41.194-122.114 -50.223  0.00  0.00     0.019 A 
ATOM      6  C   UNL d   1     -41.158-123.416 -50.835  0.00  0.00     0.019 A 
ENDROOT
BRANCH   2   7
ATOM      7  N   UNL d   1     -41.123-123.298 -49.415  0.00  0.00    -0.212 NA
ATOM      8  C   UNL d   1     -41.773-123.338 -48.935  0.00  0.00     0.259 C 
ATOM      9  O   UNL d   1     -41.749-123.693 -48.182  0.00  0.00    -0.270 OA
BRANCH   8  10
ATOM     10  C   UNL d   1     -42.492-123.020 -49.191  0.00  0.00     0.092 A 
ATOM     11  C   UNL d   1     -42.957-122.353 -49.324  0.00  0.00     0.017 A 
ATOM     12  C   UNL d   1     -43.681-122.460 -49.611  0.00  0.00     0.023 A 
ATOM     13  C   UNL d   1     -43.114-121.953 -49.357  0.00  0.00    -0.027 A 
ATOM     14  C   UNL d   1     -43.965-123.221 -49.773  0.00  0.00     0.009 A 
ATOM     15  C   UNL d   1     -42.649-122.621 -49.224  0.00  0.00    -0.012 A 
ATOM     16  C   UNL d   1     -41.900-122.526 -48.928  0.00  0.00    -0.018 A 
ATOM     17  C   UNL d   1     -42.955-123.369 -49.394  0.00  0.00    -0.027 A 
ATOM     18  C   UNL d   1     -43.519-123.815 -49.642  0.00  0.00     0.023 A 
ATOM     19  C   UNL d   1     -42.798-123.768 -49.360  0.00  0.00     0.017 A 
ENDBRANCH   8  10
ENDBRANCH   2   7
BRANCH   1  20
ATOM     20  C   UNL d   1     -41.264-121.907 -52.398  0.00  0.00     0.196 C 
ATOM     21  O   UNL d   1     -41.138-121.114 -52.444  0.00  0.00    -0.287 OA
BRANCH  20  22
ATOM     22  C   UNL d   1     -41.426-122.354 -53.070  0.00  0.00     0.044 C 
BRANCH  22  23
ATOM     23  C   UNL d   1     -41.216-122.072 -53.820  0.00  0.00     0.028 C 
BRANCH  23  24
ATOM     24  C   UNL d   1     -41.688-122.249 -54.474  0.00  0.00     0.100 A 
ATOM     25  O   UNL d   1     -41.747-122.957 -54.868  0.00  0.00    -0.305 OA
ATOM     26  C   UNL d   1     -42.272-122.888 -55.474  0.00  0.00     0.123 A 
ATOM     27  C   UNL d   1     -42.561-122.115 -55.472  0.00  0.00     0.029 A 
ATOM     28  C   UNL d   1     -42.196-121.704 -54.842  0.00  0.00     0.027 A 
ENDBRANCH  23  24
ENDBRANCH  22  23
ENDBRANCH  20  22
ENDBRANCH   1  20
TORSDOF 6
ENDMDL
MODEL 2
REMARK VINA RESULT:      -3.2      1.339      5.053
REMARK  6 active torsions:
REMARK  status: ('A' for Active; 'I' for Inactive)
REMARK    1  A    between atoms: C_2  and  C_1 
REMARK       I    between atoms: N_3  and  C_2 
REMARK    2  A    between atoms: C_24  and  N_3 
REMARK    3  A    between atoms: C_4  and  C_10 
REMARK    4  A    between atoms: C_9  and  C_4 
REMARK    5  A    between atoms: C_8  and  C_9 
REMARK    6  A    between atoms: C_10  and  C_15 
ROOT
ATOM      1  C   UNL d   1     -41.977-122.689 -51.947  0.00  0.00     0.039 A 
ATOM      2  C   UNL d   1     -41.406-123.351 -53.357  0.00  0.00     0.084 A 
ATOM      3  C   UNL d   1     -41.415-122.253 -52.434  0.00  0.00     0.005 A 
ATOM      4  C   UNL d   1     -42.223-123.425 -52.186  0.00  0.00     0.005 A 
ATOM      5  C   UNL d   1     -41.146-122.586 -53.116  0.00  0.00     0.019 A 
ATOM      6  C   UNL d   1     -41.950-123.754 -52.870  0.00  0.00     0.019 A 
ENDROOT
BRANCH   2   7
ATOM      7  N   UNL d   1     -41.137-123.685 -54.039  0.00  0.00    -0.212 NA
ATOM      8  C   UNL d   1     -41.395-123.432 -54.763  0.00  0.00     0.259 C 
ATOM      9  O   UNL d   1     -41.124-123.769 -55.475  0.00  0.00    -0.270 OA
BRANCH   8  10
ATOM     10  C   UNL d   1     -41.946-122.818 -54.811  0.00  0.00     0.092 A 
ATOM     11  C   UNL d   1     -42.724-122.564 -54.718  0.00  0.00     0.017 A 
ATOM     12  C   UNL d   1     -42.889-121.812 -54.881  0.00  0.00     0.023 A 
ATOM     13  C   UNL d   1     -43.148-122.532 -54.640  0.00  0.00    -0.027 A 
ATOM     14  C   UNL d   1     -42.296-121.295 -55.137  0.00  0.00     0.009 A 
ATOM     15  C   UNL d   1     -42.368-122.786 -54.733  0.00  0.00    -0.012 A 
ATOM     16  C   UNL d   1     -42.184-123.559 -54.569  0.00  0.00    -0.018 A 
ATOM     17  C   UNL d   1     -41.795-122.250 -54.990  0.00  0.00    -0.027 A 
ATOM     18  C   UNL d   1     -41.591-121.552 -55.214  0.00  0.00     0.023 A 
ATOM     19  C   UNL d   1     -41.373-122.283 -55.068  0.00  0.00     0.017 A 
ENDBRANCH   8  10
ENDBRANCH   2   7
BRANCH   1  20
ATOM     20  C   UNL d   1     -42.250-122.339 -51.245  0.00  0.00     0.196 C 
ATOM     21  O   UNL d   1     -42.736-121.701 -51.301  0.00  0.00    -0.287 OA
BRANCH  20  22
ATOM     22  C   UNL d   1     -42.025-122.644 -50.514  0.00  0.00     0.044 C 
BRANCH  22  23
ATOM     23  C   UNL d   1     -42.327-122.317 -49.815  0.00  0.00     0.028 C 
BRANCH  23  24
ATOM     24  C   UNL d   1     -42.409-122.790 -49.143  0.00  0.00     0.100 A 
ATOM     25  O   UNL d   1     -43.050-123.240 -48.926  0.00  0.00    -0.305 OA
ATOM     26  C   UNL d   1     -42.896-123.613 -48.230  0.00  0.00     0.123 A 
ATOM     27  C   UNL d   1     -42.137-123.399 -47.990  0.00  0.00     0.029 A 
ATOM     28  C   UNL d   1     -41.821-122.878 -48.562  0.00  0.00     0.027 A 
ENDBRANCH  23  24
ENDBRANCH  22  23
ENDBRANCH  20  22
ENDBRANCH   1  20
TORSDOF 6
ENDMDL
