MODEL 1
REMARK VINA RESULT:      21.7      0.000      0.000
REMARK  4 active torsions:
REMARK  status: ('A' for Active; 'I' for Inactive)
REMARK    1  A    between atoms: C_4  and  C_1 
REMARK    2  A    between atoms: C_7  and  C_4 
REMARK    3  A    between atoms: N_10  and  C_7 
REMARK    4  A    between atoms: C_11  and  N_10 
ROOT
ATOM      1  C   UNL d   1      45.399 -15.933  44.215  0.00  0.00     0.122 C 
ATOM      2  C   UNL d   1      44.741 -16.258  44.584  0.00  0.00     0.106 C 
ATOM      3  N   UNL d   1      44.082 -16.583  44.955  0.00  0.00    -0.191 NA
ENDROOT
BRANCH   1   4
ATOM      4  C   UNL d   1      45.566 -15.131  44.299  0.00  0.00     0.159 A 
ATOM      5  N   UNL d   1      46.202 -14.807  44.714  0.00  0.00    -0.226 NA
ATOM      6  C   UNL d   1      46.155 -13.992  44.655  0.00  0.00     0.099 A 
ATOM      7  C   UNL d   1      46.633 -13.384  44.955  0.00  0.00     0.021 A 
ATOM      8  C   UNL d   1      45.491 -13.806  44.203  0.00  0.00     0.083 A 
ATOM      9  C   UNL d   1      46.439 -12.596  44.797  0.00  0.00     0.002 A 
ATOM     10  C   UNL d   1      45.776 -12.410  44.346  0.00  0.00     0.002 A 
ATOM     11  C   UNL d   1      45.299 -13.010  44.047  0.00  0.00     0.019 A 
ATOM     12  N   UNL d   1      45.126 -14.506  43.982  0.00  0.00    -0.287 N 
ATOM     13  C   UNL d   1      44.439 -14.583  43.524  0.00  0.00     0.101 C 
ENDBRANCH   1   4
BRANCH   1  14
ATOM     14  C   UNL d   1      45.891 -16.411  43.760  0.00  0.00     0.114 C 
BRANCH  14  15
ATOM     15  N   UNL d   1      46.150 -17.135  44.055  0.00  0.00    -0.225 NA
BRANCH  15  16
ATOM     16  C   UNL d   1      46.312 -17.758  43.536  0.00  0.00     0.163 A 
ATOM     17  N   UNL d   1      46.325 -17.630  42.722  0.00  0.00    -0.225 NA
ATOM     18  C   UNL d   1      46.487 -18.253  42.207  0.00  0.00     0.101 A 
ATOM     19  C   UNL d   1      46.635 -19.007  42.511  0.00  0.00     0.021 A 
ATOM     20  C   UNL d   1      46.623 -19.140  43.336  0.00  0.00     0.005 A 
ATOM     21  C   UNL d   1      46.460 -18.508  43.844  0.00  0.00     0.039 A 
ENDBRANCH  15  16
ENDBRANCH  14  15
ENDBRANCH   1  14
TORSDOF 4
ENDMDL
MODEL 2
REMARK VINA RESULT:      23.5      0.968      4.710
REMARK  4 active torsions:
REMARK  status: ('A' for Active; 'I' for Inactive)
REMARK    1  A    between atoms: C_4  and  C_1 
REMARK    2  A    between atoms: C_7  and  C_4 
REMARK    3  A    between atoms: N_10  and  C_7 
REMARK    4  A    between atoms: C_11  and  N_10 
ROOT
ATOM      1  C   UNL d   1      46.004 -16.824  43.805  0.00  0.00     0.122 C 
ATOM      2  C   UNL d   1      46.322 -16.423  43.162  0.00  0.00     0.106 C 
ATOM      3  N   UNL d   1      46.641 -16.022  42.518  0.00  0.00    -0.191 NA
ENDROOT
BRANCH   1   4
ATOM      4  C   UNL d   1      46.142 -17.631  43.898  0.00  0.00     0.159 A 
ATOM      5  N   UNL d   1      46.310 -18.018  44.607  0.00  0.00    -0.226 NA
ATOM      6  C   UNL d   1      46.406 -18.815  44.444  0.00  0.00     0.099 A 
ATOM      7  C   UNL d   1      46.581 -19.464  44.930  0.00  0.00     0.021 A 
ATOM      8  C   UNL d   1      46.298 -18.926  43.635  0.00  0.00     0.083 A 
ATOM      9  C   UNL d   1      46.644 -20.218  44.597  0.00  0.00     0.002 A 
ATOM     10  C   UNL d   1      46.535 -20.330  43.788  0.00  0.00     0.002 A 
ATOM     11  C   UNL d   1      46.362 -19.688  43.304  0.00  0.00     0.019 A 
ATOM     12  N   UNL d   1      46.134 -18.198  43.295  0.00  0.00    -0.287 N 
ATOM     13  C   UNL d   1      45.987 -18.048  42.493  0.00  0.00     0.101 C 
ENDBRANCH   1   4
BRANCH   1  14
ATOM     14  C   UNL d   1      45.549 -16.417  44.357  0.00  0.00     0.114 C 
BRANCH  14  15
ATOM     15  N   UNL d   1      45.887 -15.818  44.810  0.00  0.00    -0.225 NA
BRANCH  15  16
ATOM     16  C   UNL d   1      45.539 -15.069  44.828  0.00  0.00     0.163 A 
ATOM     17  N   UNL d   1      44.722 -14.989  44.901  0.00  0.00    -0.225 NA
ATOM     18  C   UNL d   1      44.378 -14.240  44.918  0.00  0.00     0.101 A 
ATOM     19  C   UNL d   1      44.856 -13.569  44.862  0.00  0.00     0.021 A 
ATOM     20  C   UNL d   1      45.685 -13.646  44.787  0.00  0.00     0.005 A 
ATOM     21  C   UNL d   1      46.021 -14.402  44.771  0.00  0.00     0.039 A 
ENDBRANCH  15  16
ENDBRANCH  14  15
ENDBRANCH   1  14
TORSDOF 4
ENDMDL
MODEL 3
REMARK VINA RESULT:      23.6      1.290      4.644
REMARK  4 active torsions:
REMARK  status: ('A' for Active; 'I' for Inactive)
REMARK    1  A    between atoms: C_4  and  C_1 
REMARK    2  A    between atoms: C_7  and  C_4 
REMARK    3  A    between atoms: N_10  and  C_7 
REMARK    4  A    between atoms: C_11  and  N_10 
ROOT
ATOM      1  C   UNL d   1      46.032 -18.403  44.028  0.00  0.00     0.122 C 
ATOM      2  C   UNL d   1      45.765 -19.027  44.492  0.00  0.00     0.106 C 
ATOM      3  N   UNL d   1      45.497 -19.651  44.955  0.00  0.00    -0.191 NA
ENDROOT
BRANCH   1   4
ATOM      4  C   UNL d   1      46.164 -18.513  43.223  0.00  0.00     0.159 A 
ATOM      5  N   UNL d   1      46.257 -17.919  42.658  0.00  0.00    -0.226 NA
ATOM      6  C   UNL d   1      46.375 -18.275  41.931  0.00  0.00     0.099 A 
ATOM      7  C   UNL d   1      46.500 -17.963  41.172  0.00  0.00     0.021 A 
ATOM      8  C   UNL d   1      46.357 -19.092  42.040  0.00  0.00     0.083 A 
ATOM      9  C   UNL d   1      46.604 -18.475  40.532  0.00  0.00     0.002 A 
ATOM     10  C   UNL d   1      46.586 -19.292  40.641  0.00  0.00     0.002 A 
ATOM     11  C   UNL d   1      46.463 -19.604  41.392  0.00  0.00     0.019 A 
ATOM     12  N   UNL d   1      46.227 -19.243  42.835  0.00  0.00    -0.287 N 
ATOM     13  C   UNL d   1      46.167 -19.986  43.195  0.00  0.00     0.101 C 
ENDBRANCH   1   4
BRANCH   1  14
ATOM     14  C   UNL d   1      46.168 -17.667  44.371  0.00  0.00     0.114 C 
BRANCH  14  15
ATOM     15  N   UNL d   1      45.551 -17.265  44.742  0.00  0.00    -0.225 NA
BRANCH  15  16
ATOM     16  C   UNL d   1      45.527 -16.439  44.720  0.00  0.00     0.163 A 
ATOM     17  N   UNL d   1      44.836 -16.048  44.498  0.00  0.00    -0.225 NA
ATOM     18  C   UNL d   1      44.815 -15.224  44.477  0.00  0.00     0.101 A 
ATOM     19  C   UNL d   1      45.489 -14.792  44.680  0.00  0.00     0.021 A 
ATOM     20  C   UNL d   1      46.191 -15.185  44.905  0.00  0.00     0.005 A 
ATOM     21  C   UNL d   1      46.202 -16.012  44.923  0.00  0.00     0.039 A 
ENDBRANCH  15  16
ENDBRANCH  14  15
ENDBRANCH   1  14
TORSDOF 4
ENDMDL
