MODEL 1
REMARK VINA RESULT:      -1.0      0.000      0.000
REMARK  4 active torsions:
REMARK  status: ('A' for Active; 'I' for Inactive)
REMARK    1  A    between atoms: C_2  and  C_1 
REMARK    2  A    between atoms: C_4  and  C_2 
REMARK    3  A    between atoms: N_6  and  C_2 
REMARK    4  A    between atoms: C_8  and  N_6 
ROOT
ATOM      1  C   UNL d   1      31.786  17.482 -24.049  0.00  0.00     0.088 C 
ENDROOT
BRANCH   1   2
ATOM      2  C   UNL d   1      32.124  18.239 -24.138  0.00  0.00     0.058 A 
ATOM      3  C   UNL d   1      32.233  18.726 -23.467  0.00  0.00     0.214 A 
ATOM      4  C   UNL d   1      32.569  19.476 -23.560  0.00  0.00     0.120 A 
ATOM      5  O   UNL d   1      32.004  18.456 -22.713  0.00  0.00    -0.285 OA
ATOM      6  N   UNL d   1      32.672  19.946 -22.897  0.00  0.00    -0.241 NA
ATOM      7  C   UNL d   1      32.795  19.743 -24.306  0.00  0.00     0.021 A 
ATOM      8  C   UNL d   1      33.011  20.706 -22.984  0.00  0.00     0.099 A 
ATOM      9  C   UNL d   1      33.238  20.974 -23.731  0.00  0.00     0.021 A 
ATOM     10  C   UNL d   1      33.128  20.485 -24.401  0.00  0.00     0.003 A 
ATOM     11  C   UNL d   1      32.690  19.266 -24.971  0.00  0.00     0.002 A 
ATOM     12  C   UNL d   1      32.351  18.506 -24.885  0.00  0.00     0.005 A 
ENDBRANCH   1   2
BRANCH   1  13
ATOM     13  C   UNL d   1      32.272  16.802 -24.090  0.00  0.00     0.045 A 
ATOM     14  C   UNL d   1      32.390  16.350 -23.410  0.00  0.00     0.141 A 
ATOM     15  F   UNL d   1      32.146  16.380 -22.640  0.00  0.00    -0.204 F 
ATOM     16  C   UNL d   1      32.871  15.676 -23.447  0.00  0.00     0.030 A 
ATOM     17  C   UNL d   1      33.223  15.470 -24.165  0.00  0.00     0.002 A 
ATOM     18  C   UNL d   1      33.105  15.922 -24.845  0.00  0.00     0.000 A 
ATOM     19  C   UNL d   1      32.619  16.601 -24.804  0.00  0.00     0.004 A 
ENDBRANCH   1  13
BRANCH   1  20
ATOM     20  N   UNL d   1      30.967  17.402 -23.920  0.00  0.00    -0.227 NA
BRANCH  20  21
ATOM     21  C   UNL d   1      30.328  17.411 -24.205  0.00  0.00     0.162 A 
ATOM     22  N   UNL d   1      30.222  17.767 -24.805  0.00  0.00    -0.225 NA
ATOM     23  C   UNL d   1      29.579  17.779 -25.096  0.00  0.00     0.101 A 
ATOM     24  C   UNL d   1      29.051  17.441 -24.792  0.00  0.00     0.021 A 
ATOM     25  C   UNL d   1      29.160  17.087 -24.193  0.00  0.00     0.005 A 
ATOM     26  C   UNL d   1      29.803  17.075 -23.903  0.00  0.00     0.039 A 
ENDBRANCH  20  21
ENDBRANCH   1  20
TORSDOF 4
ENDMDL
MODEL 2
REMARK VINA RESULT:       1.5      1.283      3.640
REMARK  4 active torsions:
REMARK  status: ('A' for Active; 'I' for Inactive)
REMARK    1  A    between atoms: C_2  and  C_1 
REMARK    2  A    between atoms: C_4  and  C_2 
REMARK    3  A    between atoms: N_6  and  C_2 
REMARK    4  A    between atoms: C_8  and  N_6 
ROOT
ATOM      1  C   UNL d   1      31.637  16.769 -24.364  0.00  0.00     0.088 C 
ENDROOT
BRANCH   1   2
ATOM      2  C   UNL d   1      30.858  16.479 -24.436  0.00  0.00     0.058 A 
ATOM      3  C   UNL d   1      30.266  16.743 -23.907  0.00  0.00     0.214 A 
ATOM      4  C   UNL d   1      29.496  16.454 -23.981  0.00  0.00     0.120 A 
ATOM      5  O   UNL d   1      30.455  17.293 -23.310  0.00  0.00    -0.285 OA
ATOM      6  N   UNL d   1      28.923  16.718 -23.458  0.00  0.00    -0.241 NA
ATOM      7  C   UNL d   1      29.309  15.909 -24.572  0.00  0.00     0.021 A 
ATOM      8  C   UNL d   1      28.141  16.428 -23.529  0.00  0.00     0.099 A 
ATOM      9  C   UNL d   1      27.954  15.883 -24.119  0.00  0.00     0.021 A 
ATOM     10  C   UNL d   1      28.547  15.620 -24.648  0.00  0.00     0.003 A 
ATOM     11  C   UNL d   1      29.890  15.645 -25.096  0.00  0.00     0.002 A 
ATOM     12  C   UNL d   1      30.671  15.934 -25.026  0.00  0.00     0.005 A 
ENDBRANCH   1   2
BRANCH   1  13
ATOM     13  C   UNL d   1      32.177  16.386 -23.853  0.00  0.00     0.045 A 
ATOM     14  C   UNL d   1      32.704  15.834 -24.165  0.00  0.00     0.141 A 
ATOM     15  F   UNL d   1      32.863  15.527 -24.895  0.00  0.00    -0.204 F 
ATOM     16  C   UNL d   1      33.241  15.453 -23.660  0.00  0.00     0.030 A 
ATOM     17  C   UNL d   1      33.237  15.634 -22.855  0.00  0.00     0.002 A 
ATOM     18  C   UNL d   1      32.710  16.186 -22.543  0.00  0.00     0.000 A 
ATOM     19  C   UNL d   1      32.169  16.569 -23.054  0.00  0.00     0.004 A 
ENDBRANCH   1  13
BRANCH   1  20
ATOM     20  N   UNL d   1      31.876  17.437 -24.800  0.00  0.00    -0.227 NA
BRANCH  20  21
ATOM     21  C   UNL d   1      32.181  18.066 -24.782  0.00  0.00     0.162 A 
ATOM     22  N   UNL d   1      31.864  18.595 -24.440  0.00  0.00    -0.225 NA
ATOM     23  C   UNL d   1      32.168  19.232 -24.419  0.00  0.00     0.101 A 
ATOM     24  C   UNL d   1      32.780  19.338 -24.736  0.00  0.00     0.021 A 
ATOM     25  C   UNL d   1      33.094  18.808 -25.076  0.00  0.00     0.005 A 
ATOM     26  C   UNL d   1      32.790  18.171 -25.097  0.00  0.00     0.039 A 
ENDBRANCH  20  21
ENDBRANCH   1  20
TORSDOF 4
ENDMDL
