MODEL 1
REMARK VINA RESULT:      54.2      0.000      0.000
REMARK  4 active torsions:
REMARK  status: ('A' for Active; 'I' for Inactive)
REMARK    1  A    between atoms: N_2  and  C_1 
REMARK       I    between atoms: C_3  and  N_2 
REMARK    2  A    between atoms: C_6  and  C_3 
REMARK    3  A    between atoms: C_11  and  C_7 
REMARK    4  A    between atoms: C_10  and  C_11 
ROOT
ATOM      1  C   UNL d   1      59.575  49.571  50.323  0.00  0.00     0.197 A 
ATOM      2  N   UNL d   1      59.557  49.300  49.564  0.00  0.00    -0.219 NA
ATOM      3  S   UNL d   1      58.789  49.691  50.577  0.00  0.00    -0.047 SA
ATOM      4  C   UNL d   1      58.299  49.484  49.948  0.00  0.00     0.051 A 
ATOM      5  C   UNL d   1      58.758  49.241  49.316  0.00  0.00     0.108 A 
ENDROOT
BRANCH   1   6
ATOM      6  N   UNL d   1      60.267  49.707  50.774  0.00  0.00    -0.182 NA
ATOM      7  C   UNL d   1      60.384  49.329  51.490  0.00  0.00     0.287 C 
ATOM      8  O   UNL d   1      59.815  48.816  51.760  0.00  0.00    -0.265 OA
BRANCH   7   9
ATOM      9  C   UNL d   1      61.054  49.463  51.922  0.00  0.00     0.087 A 
ATOM     10  S   UNL d   1      61.775  49.467  51.562  0.00  0.00    -0.082 SA
ATOM     11  C   UNL d   1      62.346  49.618  52.152  0.00  0.00     0.036 A 
ATOM     12  C   UNL d   1      61.986  49.702  52.839  0.00  0.00     0.008 A 
ATOM     13  C   UNL d   1      61.166  49.609  52.727  0.00  0.00     0.012 A 
ENDBRANCH   7   9
ENDBRANCH   1   6
BRANCH   4  14
ATOM     14  C   UNL d   1      57.493  49.480  49.852  0.00  0.00     0.009 C 
BRANCH  14  15
ATOM     15  C   UNL d   1      57.003  49.193  50.471  0.00  0.00     0.011 A 
ATOM     16  C   UNL d   1      56.849  48.388  50.529  0.00  0.00     0.058 A 
ATOM     17 CL   UNL d   1      57.172  47.851  49.982  0.00  0.00    -0.082 Cl
ATOM     18  C   UNL d   1      56.358  48.098  51.150  0.00  0.00     0.011 A 
ATOM     19  C   UNL d   1      56.036  48.604  51.690  0.00  0.00     0.001 A 
ATOM     20  C   UNL d   1      56.182  49.418  51.645  0.00  0.00     0.000 A 
ATOM     21  C   UNL d   1      56.671  49.706  51.026  0.00  0.00     0.001 A 
ENDBRANCH  14  15
ENDBRANCH   4  14
TORSDOF 4
ENDMDL
MODEL 2
REMARK VINA RESULT:      54.4      2.635      3.193
REMARK  4 active torsions:
REMARK  status: ('A' for Active; 'I' for Inactive)
REMARK    1  A    between atoms: N_2  and  C_1 
REMARK       I    between atoms: C_3  and  N_2 
REMARK    2  A    between atoms: C_6  and  C_3 
REMARK    3  A    between atoms: C_11  and  C_7 
REMARK    4  A    between atoms: C_10  and  C_11 
ROOT
ATOM      1  C   UNL d   1      61.066  48.345  50.113  0.00  0.00     0.197 A 
ATOM      2  N   UNL d   1      61.550  48.948  50.347  0.00  0.00    -0.219 NA
ATOM      3  S   UNL d   1      60.289  48.522  50.360  0.00  0.00    -0.047 SA
ATOM      4  C   UNL d   1      60.320  49.247  50.749  0.00  0.00     0.051 A 
ATOM      5  C   UNL d   1      61.090  49.523  50.749  0.00  0.00     0.108 A 
ENDROOT
BRANCH   1   6
ATOM      6  N   UNL d   1      61.310  47.663  49.695  0.00  0.00    -0.182 NA
ATOM      7  C   UNL d   1      61.413  46.948  50.078  0.00  0.00     0.287 C 
ATOM      8  O   UNL d   1      61.275  46.910  50.878  0.00  0.00    -0.265 OA
BRANCH   7   9
ATOM      9  C   UNL d   1      61.649  46.291  49.671  0.00  0.00     0.087 A 
ATOM     10  S   UNL d   1      62.433  46.133  49.573  0.00  0.00    -0.082 SA
ATOM     11  C   UNL d   1      62.491  45.425  49.134  0.00  0.00     0.036 A 
ATOM     12  C   UNL d   1      61.773  45.166  48.973  0.00  0.00     0.008 A 
ATOM     13  C   UNL d   1      61.216  45.693  49.300  0.00  0.00     0.012 A 
ENDBRANCH   7   9
ENDBRANCH   1   6
BRANCH   4  14
ATOM     14  C   UNL d   1      59.755  49.708  51.109  0.00  0.00     0.009 C 
BRANCH  14  15
ATOM     15  C   UNL d   1      58.969  49.706  50.813  0.00  0.00     0.011 A 
ATOM     16  C   UNL d   1      58.337  49.704  51.338  0.00  0.00     0.058 A 
ATOM     17 CL   UNL d   1      58.465  49.704  52.160  0.00  0.00    -0.082 Cl
ATOM     18  C   UNL d   1      57.547  49.702  51.043  0.00  0.00     0.011 A 
ATOM     19  C   UNL d   1      57.404  49.703  50.248  0.00  0.00     0.001 A 
ATOM     20  C   UNL d   1      58.031  49.705  49.707  0.00  0.00     0.000 A 
ATOM     21  C   UNL d   1      58.818  49.707  50.002  0.00  0.00     0.001 A 
ENDBRANCH  14  15
ENDBRANCH   4  14
TORSDOF 4
ENDMDL
MODEL 3
REMARK VINA RESULT:      56.9      2.213      4.422
REMARK  4 active torsions:
REMARK  status: ('A' for Active; 'I' for Inactive)
REMARK    1  A    between atoms: N_2  and  C_1 
REMARK       I    between atoms: C_3  and  N_2 
REMARK    2  A    between atoms: C_6  and  C_3 
REMARK    3  A    between atoms: C_11  and  C_7 
REMARK    4  A    between atoms: C_10  and  C_11 
ROOT
ATOM      1  C   UNL d   1      59.648  49.203  50.540  0.00  0.00     0.197 A 
ATOM      2  N   UNL d   1      60.190  49.708  50.861  0.00  0.00    -0.219 NA
ATOM      3  S   UNL d   1      59.958  48.429  50.576  0.00  0.00    -0.047 SA
ATOM      4  C   UNL d   1      60.701  48.484  50.928  0.00  0.00     0.051 A 
ATOM      5  C   UNL d   1      60.858  49.266  51.109  0.00  0.00     0.108 A 
ENDROOT
BRANCH   1   6
ATOM      6  N   UNL d   1      58.905  49.425  50.226  0.00  0.00    -0.182 NA
ATOM      7  C   UNL d   1      58.209  49.150  50.557  0.00  0.00     0.287 C 
ATOM      8  O   UNL d   1      58.250  48.655  51.200  0.00  0.00    -0.265 OA
BRANCH   7   9
ATOM      9  C   UNL d   1      57.494  49.367  50.252  0.00  0.00     0.087 A 
ATOM     10  S   UNL d   1      56.865  49.495  50.741  0.00  0.00    -0.082 SA
ATOM     11  C   UNL d   1      56.216  49.708  50.260  0.00  0.00     0.036 A 
ATOM     12  C   UNL d   1      56.442  49.708  49.513  0.00  0.00     0.008 A 
ATOM     13  C   UNL d   1      57.246  49.496  49.474  0.00  0.00     0.012 A 
ENDBRANCH   7   9
ENDBRANCH   1   6
BRANCH   4  14
ATOM     14  C   UNL d   1      61.268  47.933  51.114  0.00  0.00     0.009 C 
BRANCH  14  15
ATOM     15  C   UNL d   1      61.384  47.271  50.610  0.00  0.00     0.011 A 
ATOM     16  C   UNL d   1      61.137  46.527  50.851  0.00  0.00     0.058 A 
ATOM     17 CL   UNL d   1      60.772  46.417  51.591  0.00  0.00    -0.082 Cl
ATOM     18  C   UNL d   1      61.253  45.861  50.347  0.00  0.00     0.011 A 
ATOM     19  C   UNL d   1      61.606  45.948  49.625  0.00  0.00     0.001 A 
ATOM     20  C   UNL d   1      61.861  46.693  49.367  0.00  0.00     0.000 A 
ATOM     21  C   UNL d   1      61.745  47.355  49.871  0.00  0.00     0.001 A 
ENDBRANCH  14  15
ENDBRANCH   4  14
TORSDOF 4
ENDMDL
