MODEL 1
REMARK VINA RESULT:      35.1      0.000      0.000
REMARK  4 active torsions:
REMARK  status: ('A' for Active; 'I' for Inactive)
REMARK    1  A    between atoms: C_2  and  C_1 
REMARK       I    between atoms: N_9  and  C_2 
REMARK    2  A    between atoms: N_4  and  C_14 
REMARK    3  A    between atoms: C_13  and  N_9 
REMARK    4  A    between atoms: C_14  and  C_13 
ROOT
ATOM      1  C   UNL d   1      60.620  49.317  51.300  0.00  0.00     0.281 C 
ATOM      2  O   UNL d   1      61.147  49.706  51.799  0.00  0.00    -0.265 OA
ATOM      3  N   UNL d   1      59.904  49.668  51.091  0.00  0.00    -0.205 NA
ENDROOT
BRANCH   1   4
ATOM      4  C   UNL d   1      60.812  48.562  51.005  0.00  0.00     0.077 A 
ATOM      5  C   UNL d   1      61.218  48.494  50.290  0.00  0.00     0.105 A 
ATOM      6  N   UNL d   1      61.409  47.751  49.996  0.00  0.00    -0.233 NA
ATOM      7  C   UNL d   1      61.195  47.071  50.415  0.00  0.00     0.139 A 
ATOM      8  C   UNL d   1      60.790  47.137  51.127  0.00  0.00     0.031 A 
ATOM      9 CL   UNL d   1      61.386  46.313  50.122  0.00  0.00    -0.061 Cl
ATOM     10  C   UNL d   1      60.598  47.883  51.424  0.00  0.00     0.009 A 
ENDBRANCH   1   4
BRANCH   3  11
ATOM     11  C   UNL d   1      59.376  49.280  50.593  0.00  0.00     0.121 C 
BRANCH  11  12
ATOM     12  C   UNL d   1      58.851  49.705  50.126  0.00  0.00     0.101 C 
BRANCH  12  13
ATOM     13  N   UNL d   1      58.040  49.630  50.245  0.00  0.00    -0.298 N 
ATOM     14  C   UNL d   1      57.732  49.653  51.005  0.00  0.00     0.107 A 
ATOM     15  C   UNL d   1      56.913  49.577  51.126  0.00  0.00     0.142 A 
ATOM     16  O   UNL d   1      56.410  49.478  50.485  0.00  0.00    -0.300 OA
ATOM     17  C   UNL d   1      56.717  49.455  49.714  0.00  0.00     0.142 A 
ATOM     18  C   UNL d   1      57.536  49.531  49.594  0.00  0.00     0.107 A 
ENDBRANCH  12  13
ENDBRANCH  11  12
ENDBRANCH   3  11
TORSDOF 4
ENDMDL
