MODEL 1
REMARK VINA RESULT:      58.8      0.000      0.000
REMARK  3 active torsions:
REMARK  status: ('A' for Active; 'I' for Inactive)
REMARK    1  A    between atoms: C_16  and  C_4 
REMARK    2  A    between atoms: C_10  and  O_14 
REMARK    3  A    between atoms: O_14  and  C_16 
ROOT
ATOM      1  C   UNL d   1     -51.443  25.985  33.336  0.00  0.00     0.030 A 
ATOM      2  C   UNL d   1     -50.667  26.219  33.365  0.00  0.00     0.105 A 
ATOM      3  C   UNL d   1     -50.492  27.026  33.394  0.00  0.00     0.118 A 
ATOM      4  N   UNL d   1     -50.053  25.676  33.366  0.00  0.00    -0.242 NA
ATOM      5  C   UNL d   1     -52.053  26.527  33.336  0.00  0.00     0.059 A 
ATOM      6  C   UNL d   1     -51.085  27.585  33.394  0.00  0.00     0.027 A 
ATOM      7  C   UNL d   1     -51.877  27.338  33.365  0.00  0.00     0.013 A 
ATOM      8 CL   UNL d   1     -52.844  26.279  33.306  0.00  0.00    -0.082 Cl
ATOM      9  C   UNL d   1     -51.622  25.183  33.307  0.00  0.00     0.004 A 
ATOM     10  C   UNL d   1     -50.229  24.864  33.337  0.00  0.00     0.099 A 
ATOM     11  C   UNL d   1     -51.020  24.617  33.307  0.00  0.00     0.021 A 
ENDROOT
BRANCH   3  12
ATOM     12  O   UNL d   1     -49.701  27.274  33.424  0.00  0.00    -0.302 OA
BRANCH  12  13
ATOM     13  C   UNL d   1     -48.907  27.514  33.457  0.00  0.00     0.144 C 
BRANCH  13  14
ATOM     14  C   UNL d   1     -48.656  28.032  34.054  0.00  0.00     0.142 A 
ATOM     15  N   UNL d   1     -48.510  28.816  33.969  0.00  0.00    -0.057 NA
ATOM     16  C   UNL d   1     -48.279  29.107  34.684  0.00  0.00     0.735 A 
ATOM     17  N   UNL d   1     -48.286  28.474  35.227  0.00  0.00    -0.136 N 
ATOM     18  N   UNL d   1     -48.058  29.861  34.942  0.00  0.00    -0.059 NA
ATOM     19  C   UNL d   1     -48.518  27.821  34.832  0.00  0.00     0.120 A 
ATOM     20  C   UNL d   1     -48.074  28.607  36.010  0.00  0.00     0.100 A 
ATOM     21  C   UNL d   1     -47.856  29.354  36.261  0.00  0.00     0.041 A 
ATOM     22  C   UNL d   1     -47.848  29.990  35.720  0.00  0.00     0.119 A 
ENDBRANCH  13  14
ENDBRANCH  12  13
ENDBRANCH   3  12
TORSDOF 3
ENDMDL
MODEL 2
REMARK VINA RESULT:      61.0      2.538      5.509
REMARK  3 active torsions:
REMARK  status: ('A' for Active; 'I' for Inactive)
REMARK    1  A    between atoms: C_16  and  C_4 
REMARK    2  A    between atoms: C_10  and  O_14 
REMARK    3  A    between atoms: O_14  and  C_16 
ROOT
ATOM      1  C   UNL d   1     -49.478  25.489  33.480  0.00  0.00     0.030 A 
ATOM      2  C   UNL d   1     -50.238  25.770  33.482  0.00  0.00     0.105 A 
ATOM      3  C   UNL d   1     -50.864  25.235  33.414  0.00  0.00     0.118 A 
ATOM      4  N   UNL d   1     -50.402  26.571  33.552  0.00  0.00    -0.242 NA
ATOM      5  C   UNL d   1     -49.316  24.692  33.411  0.00  0.00     0.059 A 
ATOM      6  C   UNL d   1     -50.727  24.435  33.344  0.00  0.00     0.027 A 
ATOM      7  C   UNL d   1     -49.946  24.154  33.342  0.00  0.00     0.013 A 
ATOM      8 CL   UNL d   1     -48.535  24.413  33.409  0.00  0.00    -0.082 Cl
ATOM      9  C   UNL d   1     -48.851  26.018  33.548  0.00  0.00     0.004 A 
ATOM     10  C   UNL d   1     -49.772  27.109  33.621  0.00  0.00     0.099 A 
ATOM     11  C   UNL d   1     -48.992  26.829  33.619  0.00  0.00     0.021 A 
ENDROOT
BRANCH   3  12
ATOM     12  O   UNL d   1     -51.645  25.514  33.416  0.00  0.00    -0.302 OA
BRANCH  12  13
ATOM     13  C   UNL d   1     -52.424  25.801  33.413  0.00  0.00     0.144 C 
BRANCH  13  14
ATOM     14  C   UNL d   1     -53.060  25.269  33.425  0.00  0.00     0.142 A 
ATOM     15  N   UNL d   1     -53.013  24.478  33.542  0.00  0.00    -0.057 NA
ATOM     16  C   UNL d   1     -53.758  24.173  33.511  0.00  0.00     0.735 A 
ATOM     17  N   UNL d   1     -54.282  24.807  33.370  0.00  0.00    -0.136 N 
ATOM     18  N   UNL d   1     -54.060  23.407  33.589  0.00  0.00    -0.059 NA
ATOM     19  C   UNL d   1     -53.846  25.473  33.319  0.00  0.00     0.120 A 
ATOM     20  C   UNL d   1     -55.089  24.663  33.311  0.00  0.00     0.100 A 
ATOM     21  C   UNL d   1     -55.384  23.904  33.389  0.00  0.00     0.041 A 
ATOM     22  C   UNL d   1     -54.862  23.267  33.530  0.00  0.00     0.119 A 
ENDBRANCH  13  14
ENDBRANCH  12  13
ENDBRANCH   3  12
TORSDOF 3
ENDMDL
