MODEL 1
REMARK VINA RESULT:      43.6      0.000      0.000
REMARK  3 active torsions:
REMARK  status: ('A' for Active; 'I' for Inactive)
REMARK    1  A    between atoms: N_6  and  C_2 
REMARK    2  A    between atoms: C_7  and  C_5 
REMARK    3  A    between atoms: C_9  and  C_7 
ROOT
ATOM      1  N   UNL d   1      58.483  49.604  51.274  0.00  0.00    -0.183 NA
ATOM      2  C   UNL d   1      58.379  49.667  50.461  0.00  0.00     0.183 A 
ATOM      3  S   UNL d   1      59.121  49.708  50.111  0.00  0.00    -0.045 SA
ATOM      4  C   UNL d   1      59.292  49.605  51.427  0.00  0.00     0.287 A 
ATOM      5  C   UNL d   1      59.691  49.669  50.709  0.00  0.00     0.090 A 
ATOM      6  O   UNL d   1      59.642  49.551  52.172  0.00  0.00    -0.265 OA
ENDROOT
BRANCH   5   7
ATOM      7  C   UNL d   1      60.509  49.692  50.607  0.00  0.00     0.011 C 
BRANCH   7   8
ATOM      8  C   UNL d   1      60.931  48.994  50.496  0.00  0.00     0.001 A 
ATOM      9  C   UNL d   1      61.045  48.704  49.727  0.00  0.00     0.001 A 
ATOM     10  C   UNL d   1      61.468  48.004  49.613  0.00  0.00     0.011 A 
ATOM     11  C   UNL d   1      61.775  47.596  50.262  0.00  0.00     0.058 A 
ATOM     12  C   UNL d   1      61.660  47.886  51.024  0.00  0.00     0.011 A 
ATOM     13 CL   UNL d   1      62.191  46.900  50.103  0.00  0.00    -0.082 Cl
ATOM     14  C   UNL d   1      61.243  48.579  51.148  0.00  0.00     0.001 A 
ENDBRANCH   7   8
ENDBRANCH   5   7
BRANCH   2  15
ATOM     15  N   UNL d   1      57.598  49.676  50.181  0.00  0.00    -0.280 N 
ATOM     16  C   UNL d   1      57.446  49.664  49.373  0.00  0.00     0.109 A 
ATOM     17  C   UNL d   1      56.661  49.673  49.095  0.00  0.00     0.142 A 
ATOM     18  O   UNL d   1      56.042  49.695  49.636  0.00  0.00    -0.300 OA
ATOM     19  C   UNL d   1      56.195  49.707  50.454  0.00  0.00     0.142 A 
ATOM     20  C   UNL d   1      56.971  49.698  50.720  0.00  0.00     0.109 A 
ENDBRANCH   2  15
TORSDOF 3
ENDMDL
