MODEL 1
REMARK VINA RESULT:       0.4      0.000      0.000
REMARK  3 active torsions:
REMARK  status: ('A' for Active; 'I' for Inactive)
REMARK    1  A    between atoms: C_5  and  C_1 
REMARK    2  A    between atoms: C_4  and  C_2 
REMARK       I    between atoms: N_8  and  C_4 
REMARK    3  A    between atoms: C_10  and  N_8 
ROOT
ATOM      1  C   UNL d   1      59.724  -1.283  29.359  0.00  0.00     0.118 A 
ATOM      2  C   UNL d   1      58.920  -1.389  29.518  0.00  0.00     0.103 A 
ATOM      3  N   UNL d   1      59.969  -1.936  28.922  0.00  0.00    -0.126 NA
ATOM      4  O   UNL d   1      59.334  -2.440  28.810  0.00  0.00    -0.211 OA
ATOM      5  C   UNL d   1      58.682  -2.097  29.182  0.00  0.00     0.131 A 
ATOM      6  C   UNL d   1      57.915  -2.409  29.215  0.00  0.00     0.029 C 
ENDROOT
BRANCH   2   7
ATOM      7  C   UNL d   1      58.443  -0.863  29.947  0.00  0.00     0.283 C 
ATOM      8  N   UNL d   1      58.104  -1.107  30.657  0.00  0.00    -0.204 NA
ATOM      9  O   UNL d   1      58.320  -0.107  29.653  0.00  0.00    -0.265 OA
BRANCH   8  10
ATOM     10  C   UNL d   1      57.631  -0.585  31.082  0.00  0.00     0.130 A 
ATOM     11  C   UNL d   1      56.976  -0.791  31.530  0.00  0.00     0.243 A 
ATOM     12  S   UNL d   1      56.662  -0.099  31.864  0.00  0.00    -0.044 SA
ATOM     13  O   UNL d   1      56.675  -1.545  31.635  0.00  0.00    -0.278 OA
ATOM     14  C   UNL d   1      57.127   0.533  31.620  0.00  0.00     0.040 A 
ATOM     15  C   UNL d   1      57.732   0.231  31.131  0.00  0.00     0.030 A 
ENDBRANCH   8  10
ENDBRANCH   2   7
BRANCH   1  16
ATOM     16  C   UNL d   1      60.192  -0.652  29.589  0.00  0.00     0.058 A 
ATOM     17  C   UNL d   1      60.669  -0.707  30.267  0.00  0.00     0.142 A 
ATOM     18  F   UNL d   1      60.665  -1.406  30.704  0.00  0.00    -0.204 F 
ATOM     19  C   UNL d   1      61.132  -0.068  30.486  0.00  0.00     0.030 A 
ATOM     20  C   UNL d   1      61.133   0.629  30.046  0.00  0.00     0.003 A 
ATOM     21  C   UNL d   1      60.654   0.682  29.367  0.00  0.00     0.012 A 
ATOM     22  C   UNL d   1      60.187   0.043  29.142  0.00  0.00     0.061 A 
ATOM     23 CL   UNL d   1      59.825   0.356  28.455  0.00  0.00    -0.082 Cl
ENDBRANCH   1  16
TORSDOF 3
ENDMDL
MODEL 2
REMARK VINA RESULT:       0.7      1.465      1.995
REMARK  3 active torsions:
REMARK  status: ('A' for Active; 'I' for Inactive)
REMARK    1  A    between atoms: C_5  and  C_1 
REMARK    2  A    between atoms: C_4  and  C_2 
REMARK       I    between atoms: N_8  and  C_4 
REMARK    3  A    between atoms: C_10  and  N_8 
ROOT
ATOM      1  C   UNL d   1      58.726  -0.099  29.292  0.00  0.00     0.118 A 
ATOM      2  C   UNL d   1      57.967  -0.011  29.609  0.00  0.00     0.103 A 
ATOM      3  N   UNL d   1      58.740   0.319  28.584  0.00  0.00    -0.126 NA
ATOM      4  O   UNL d   1      58.008   0.662  28.458  0.00  0.00    -0.211 OA
ATOM      5  C   UNL d   1      57.529   0.455  29.097  0.00  0.00     0.131 A 
ATOM      6  C   UNL d   1      56.738   0.677  29.210  0.00  0.00     0.029 C 
ENDROOT
BRANCH   2   7
ATOM      7  C   UNL d   1      57.704  -0.341  30.322  0.00  0.00     0.283 C 
ATOM      8  N   UNL d   1      57.450   0.154  30.931  0.00  0.00    -0.204 NA
ATOM      9  O   UNL d   1      57.703  -1.156  30.408  0.00  0.00    -0.265 OA
BRANCH   8  10
ATOM     10  C   UNL d   1      57.190  -0.173  31.638  0.00  0.00     0.130 A 
ATOM     11  C   UNL d   1      57.416   0.069  32.389  0.00  0.00     0.243 A 
ATOM     12  S   UNL d   1      57.024  -0.407  32.944  0.00  0.00    -0.044 SA
ATOM     13  O   UNL d   1      57.937   0.675  32.568  0.00  0.00    -0.278 OA
ATOM     14  C   UNL d   1      56.557  -0.943  32.534  0.00  0.00     0.040 A 
ATOM     15  C   UNL d   1      56.658  -0.798  31.718  0.00  0.00     0.030 A 
ENDBRANCH   8  10
ENDBRANCH   2   7
BRANCH   1  16
ATOM     16  C   UNL d   1      59.348  -0.521  29.618  0.00  0.00     0.058 A 
ATOM     17  C   UNL d   1      59.910  -0.140  30.098  0.00  0.00     0.142 A 
ATOM     18  F   UNL d   1      59.832   0.669  30.241  0.00  0.00    -0.204 F 
ATOM     19  C   UNL d   1      60.527  -0.573  30.417  0.00  0.00     0.030 A 
ATOM     20  C   UNL d   1      60.601  -1.381  30.272  0.00  0.00     0.003 A 
ATOM     21  C   UNL d   1      60.036  -1.761  29.790  0.00  0.00     0.012 A 
ATOM     22  C   UNL d   1      59.415  -1.331  29.467  0.00  0.00     0.061 A 
ATOM     23 CL   UNL d   1      59.016  -1.935  29.046  0.00  0.00    -0.082 Cl
ENDBRANCH   1  16
TORSDOF 3
ENDMDL
MODEL 3
REMARK VINA RESULT:       1.7      1.646      2.478
REMARK  3 active torsions:
REMARK  status: ('A' for Active; 'I' for Inactive)
REMARK    1  A    between atoms: C_5  and  C_1 
REMARK    2  A    between atoms: C_4  and  C_2 
REMARK       I    between atoms: N_8  and  C_4 
REMARK    3  A    between atoms: C_10  and  N_8 
ROOT
ATOM      1  C   UNL d   1      59.417  -0.290  30.285  0.00  0.00     0.118 A 
ATOM      2  C   UNL d   1      59.128   0.055  30.979  0.00  0.00     0.103 A 
ATOM      3  N   UNL d   1      60.237  -0.244  30.319  0.00  0.00    -0.126 NA
ATOM      4  O   UNL d   1      60.459   0.120  31.017  0.00  0.00    -0.211 OA
ATOM      5  C   UNL d   1      59.767   0.306  31.426  0.00  0.00     0.131 A 
ATOM      6  C   UNL d   1      59.718   0.682  32.163  0.00  0.00     0.029 C 
ENDROOT
BRANCH   2   7
ATOM      7  C   UNL d   1      58.327   0.131  31.179  0.00  0.00     0.283 C 
ATOM      8  N   UNL d   1      58.036  -0.258  31.846  0.00  0.00    -0.204 NA
ATOM      9  O   UNL d   1      57.839   0.591  30.708  0.00  0.00    -0.265 OA
BRANCH   8  10
ATOM     10  C   UNL d   1      57.242  -0.183  32.045  0.00  0.00     0.130 A 
ATOM     11  C   UNL d   1      56.737  -0.801  32.237  0.00  0.00     0.243 A 
ATOM     12  S   UNL d   1      55.988  -0.483  32.400  0.00  0.00    -0.044 SA
ATOM     13  O   UNL d   1      56.930  -1.596  32.265  0.00  0.00    -0.278 OA
ATOM     14  C   UNL d   1      56.033   0.331  32.308  0.00  0.00     0.040 A 
ATOM     15  C   UNL d   1      56.815   0.521  32.086  0.00  0.00     0.030 A 
ENDBRANCH   8  10
ENDBRANCH   2   7
BRANCH   1  16
ATOM     16  C   UNL d   1      58.974  -0.616  29.678  0.00  0.00     0.058 A 
ATOM     17  C   UNL d   1      58.671  -0.134  29.072  0.00  0.00     0.142 A 
ATOM     18  F   UNL d   1      58.822   0.677  29.092  0.00  0.00    -0.204 F 
ATOM     19  C   UNL d   1      58.230  -0.472  28.471  0.00  0.00     0.030 A 
ATOM     20  C   UNL d   1      58.081  -1.282  28.455  0.00  0.00     0.003 A 
ATOM     21  C   UNL d   1      58.387  -1.764  29.064  0.00  0.00     0.012 A 
ATOM     22  C   UNL d   1      58.830  -1.429  29.670  0.00  0.00     0.061 A 
ATOM     23 CL   UNL d   1      59.003  -2.111  30.124  0.00  0.00    -0.082 Cl
ENDBRANCH   1  16
TORSDOF 3
ENDMDL
MODEL 4
REMARK VINA RESULT:       1.9      1.794      2.928
REMARK  3 active torsions:
REMARK  status: ('A' for Active; 'I' for Inactive)
REMARK    1  A    between atoms: C_5  and  C_1 
REMARK    2  A    between atoms: C_4  and  C_2 
REMARK       I    between atoms: N_8  and  C_4 
REMARK    3  A    between atoms: C_10  and  N_8 
ROOT
ATOM      1  C   UNL d   1      58.826   0.124  30.096  0.00  0.00     0.118 A 
ATOM      2  C   UNL d   1      58.384  -0.573  30.048  0.00  0.00     0.103 A 
ATOM      3  N   UNL d   1      58.456   0.603  30.653  0.00  0.00    -0.126 NA
ATOM      4  O   UNL d   1      57.798   0.218  30.947  0.00  0.00    -0.211 OA
ATOM      5  C   UNL d   1      57.754  -0.514  30.569  0.00  0.00     0.131 A 
ATOM      6  C   UNL d   1      57.177  -1.096  30.690  0.00  0.00     0.029 C 
ENDROOT
BRANCH   2   7
ATOM      7  C   UNL d   1      58.555  -1.216  29.554  0.00  0.00     0.283 C 
ATOM      8  N   UNL d   1      58.870  -1.906  29.877  0.00  0.00    -0.204 NA
ATOM      9  O   UNL d   1      58.407  -1.152  28.750  0.00  0.00    -0.265 OA
BRANCH   8  10
ATOM     10  C   UNL d   1      59.039  -2.544  29.387  0.00  0.00     0.130 A 
ATOM     11  C   UNL d   1      59.742  -2.967  29.380  0.00  0.00     0.243 A 
ATOM     12  S   UNL d   1      59.681  -3.562  28.804  0.00  0.00    -0.044 SA
ATOM     13  O   UNL d   1      60.396  -2.833  29.855  0.00  0.00    -0.278 OA
ATOM     14  C   UNL d   1      58.940  -3.503  28.457  0.00  0.00     0.040 A 
ATOM     15  C   UNL d   1      58.537  -2.868  28.820  0.00  0.00     0.030 A 
ENDBRANCH   8  10
ENDBRANCH   2   7
BRANCH   1  16
ATOM     16  C   UNL d   1      59.503   0.306  29.674  0.00  0.00     0.058 A 
ATOM     17  C   UNL d   1      59.456   0.502  28.867  0.00  0.00     0.142 A 
ATOM     18  F   UNL d   1      58.717   0.511  28.500  0.00  0.00    -0.204 F 
ATOM     19  C   UNL d   1      60.141   0.682  28.455  0.00  0.00     0.030 A 
ATOM     20  C   UNL d   1      60.876   0.672  28.826  0.00  0.00     0.003 A 
ATOM     21  C   UNL d   1      60.921   0.474  29.635  0.00  0.00     0.012 A 
ATOM     22  C   UNL d   1      60.237   0.293  30.053  0.00  0.00     0.061 A 
ATOM     23 CL   UNL d   1      60.560   0.140  30.811  0.00  0.00    -0.082 Cl
ENDBRANCH   1  16
TORSDOF 3
ENDMDL
MODEL 5
REMARK VINA RESULT:       2.6      1.478      2.564
REMARK  3 active torsions:
REMARK  status: ('A' for Active; 'I' for Inactive)
REMARK    1  A    between atoms: C_5  and  C_1 
REMARK    2  A    between atoms: C_4  and  C_2 
REMARK       I    between atoms: N_8  and  C_4 
REMARK    3  A    between atoms: C_10  and  N_8 
ROOT
ATOM      1  C   UNL d   1      59.784  -1.189  29.225  0.00  0.00     0.118 A 
ATOM      2  C   UNL d   1      59.693  -0.557  29.751  0.00  0.00     0.103 A 
ATOM      3  N   UNL d   1      60.458  -1.035  28.781  0.00  0.00    -0.126 NA
ATOM      4  O   UNL d   1      60.784  -0.324  29.021  0.00  0.00    -0.211 OA
ATOM      5  C   UNL d   1      60.305  -0.028  29.624  0.00  0.00     0.131 A 
ATOM      6  C   UNL d   1      60.418   0.681  30.038  0.00  0.00     0.029 C 
ENDROOT
BRANCH   2   7
ATOM      7  C   UNL d   1      59.082  -0.481  30.307  0.00  0.00     0.283 C 
ATOM      8  N   UNL d   1      58.791   0.268  30.491  0.00  0.00    -0.204 NA
ATOM      9  O   UNL d   1      58.780  -1.155  30.663  0.00  0.00    -0.265 OA
BRANCH   8  10
ATOM     10  C   UNL d   1      58.186   0.344  31.042  0.00  0.00     0.130 A 
ATOM     11  C   UNL d   1      57.406   0.534  30.873  0.00  0.00     0.243 A 
ATOM     12  S   UNL d   1      56.983   0.553  31.586  0.00  0.00    -0.044 SA
ATOM     13  O   UNL d   1      57.091   0.681  30.131  0.00  0.00    -0.278 OA
ATOM     14  C   UNL d   1      57.504   0.374  32.195  0.00  0.00     0.040 A 
ATOM     15  C   UNL d   1      58.256   0.243  31.858  0.00  0.00     0.030 A 
ENDBRANCH   8  10
ENDBRANCH   2   7
BRANCH   1  16
ATOM     16  C   UNL d   1      59.298  -1.845  29.157  0.00  0.00     0.058 A 
ATOM     17  C   UNL d   1      58.565  -1.787  28.769  0.00  0.00     0.142 A 
ATOM     18  F   UNL d   1      58.334  -1.060  28.455  0.00  0.00    -0.204 F 
ATOM     19  C   UNL d   1      58.088  -2.450  28.708  0.00  0.00     0.030 A 
ATOM     20  C   UNL d   1      58.323  -3.175  29.023  0.00  0.00     0.003 A 
ATOM     21  C   UNL d   1      59.059  -3.230  29.411  0.00  0.00     0.012 A 
ATOM     22  C   UNL d   1      59.541  -2.567  29.476  0.00  0.00     0.061 A 
ATOM     23 CL   UNL d   1      60.190  -2.893  29.893  0.00  0.00    -0.082 Cl
ENDBRANCH   1  16
TORSDOF 3
ENDMDL
MODEL 6
REMARK VINA RESULT:       2.7      2.087      3.501
REMARK  3 active torsions:
REMARK  status: ('A' for Active; 'I' for Inactive)
REMARK    1  A    between atoms: C_5  and  C_1 
REMARK    2  A    between atoms: C_4  and  C_2 
REMARK       I    between atoms: N_8  and  C_4 
REMARK    3  A    between atoms: C_10  and  N_8 
ROOT
ATOM      1  C   UNL d   1      57.574   0.021  30.387  0.00  0.00     0.118 A 
ATOM      2  C   UNL d   1      58.151  -0.214  29.843  0.00  0.00     0.103 A 
ATOM      3  N   UNL d   1      57.097   0.572  30.006  0.00  0.00    -0.126 NA
ATOM      4  O   UNL d   1      57.367   0.682  29.242  0.00  0.00    -0.211 OA
ATOM      5  C   UNL d   1      58.023   0.192  29.143  0.00  0.00     0.131 A 
ATOM      6  C   UNL d   1      58.480   0.116  28.455  0.00  0.00     0.029 C 
ENDROOT
BRANCH   2   7
ATOM      7  C   UNL d   1      58.752  -0.765  29.990  0.00  0.00     0.283 C 
ATOM      8  N   UNL d   1      58.844  -1.411  29.486  0.00  0.00    -0.204 NA
ATOM      9  O   UNL d   1      59.244  -0.656  30.636  0.00  0.00    -0.265 OA
BRANCH   8  10
ATOM     10  C   UNL d   1      59.440  -1.958  29.632  0.00  0.00     0.130 A 
ATOM     11  C   UNL d   1      59.369  -2.773  29.561  0.00  0.00     0.243 A 
ATOM     12  S   UNL d   1      60.099  -3.115  29.759  0.00  0.00    -0.044 SA
ATOM     13  O   UNL d   1      58.699  -3.185  29.335  0.00  0.00    -0.278 OA
ATOM     14  C   UNL d   1      60.618  -2.509  29.952  0.00  0.00     0.040 A 
ATOM     15  C   UNL d   1      60.209  -1.786  29.873  0.00  0.00     0.030 A 
ENDBRANCH   8  10
ENDBRANCH   2   7
BRANCH   1  16
ATOM     16  C   UNL d   1      57.490  -0.243  31.157  0.00  0.00     0.058 A 
ATOM     17  C   UNL d   1      56.947  -0.846  31.339  0.00  0.00     0.142 A 
ATOM     18  F   UNL d   1      56.495  -1.175  30.732  0.00  0.00    -0.204 F 
ATOM     19  C   UNL d   1      56.872  -1.101  32.114  0.00  0.00     0.030 A 
ATOM     20  C   UNL d   1      57.326  -0.770  32.717  0.00  0.00     0.003 A 
ATOM     21  C   UNL d   1      57.869  -0.165  32.532  0.00  0.00     0.012 A 
ATOM     22  C   UNL d   1      57.948   0.094  31.756  0.00  0.00     0.061 A 
ATOM     23 CL   UNL d   1      58.537   0.682  31.853  0.00  0.00    -0.082 Cl
ENDBRANCH   1  16
TORSDOF 3
ENDMDL
MODEL 7
REMARK VINA RESULT:       3.1      1.671      2.075
REMARK  3 active torsions:
REMARK  status: ('A' for Active; 'I' for Inactive)
REMARK    1  A    between atoms: C_5  and  C_1 
REMARK    2  A    between atoms: C_4  and  C_2 
REMARK       I    between atoms: N_8  and  C_4 
REMARK    3  A    between atoms: C_10  and  N_8 
ROOT
ATOM      1  C   UNL d   1      58.757  -0.994  29.129  0.00  0.00     0.118 A 
ATOM      2  C   UNL d   1      58.495  -0.335  29.555  0.00  0.00     0.103 A 
ATOM      3  N   UNL d   1      58.289  -1.044  28.455  0.00  0.00    -0.126 NA
ATOM      4  O   UNL d   1      57.746  -0.432  28.456  0.00  0.00    -0.211 OA
ATOM      5  C   UNL d   1      57.875   0.008  29.142  0.00  0.00     0.131 A 
ATOM      6  C   UNL d   1      57.456   0.682  29.380  0.00  0.00     0.029 C 
ENDROOT
BRANCH   2   7
ATOM      7  C   UNL d   1      58.810  -0.074  30.276  0.00  0.00     0.283 C 
ATOM      8  N   UNL d   1      58.318  -0.002  30.934  0.00  0.00    -0.204 NA
ATOM      9  O   UNL d   1      59.608   0.108  30.320  0.00  0.00    -0.265 OA
BRANCH   8  10
ATOM     10  C   UNL d   1      58.631   0.256  31.649  0.00  0.00     0.130 A 
ATOM     11  C   UNL d   1      58.208   0.369  32.343  0.00  0.00     0.243 A 
ATOM     12  S   UNL d   1      58.734   0.632  32.928  0.00  0.00    -0.044 SA
ATOM     13  O   UNL d   1      57.405   0.245  32.449  0.00  0.00    -0.278 OA
ATOM     14  C   UNL d   1      59.482   0.682  32.592  0.00  0.00     0.040 A 
ATOM     15  C   UNL d   1      59.420   0.447  31.793  0.00  0.00     0.030 A 
ENDBRANCH   8  10
ENDBRANCH   2   7
BRANCH   1  16
ATOM     16  C   UNL d   1      59.365  -1.501  29.335  0.00  0.00     0.058 A 
ATOM     17  C   UNL d   1      59.220  -2.155  29.828  0.00  0.00     0.142 A 
ATOM     18  F   UNL d   1      58.454  -2.284  30.106  0.00  0.00    -0.204 F 
ATOM     19  C   UNL d   1      59.837  -2.655  30.027  0.00  0.00     0.030 A 
ATOM     20  C   UNL d   1      60.600  -2.522  29.747  0.00  0.00     0.003 A 
ATOM     21  C   UNL d   1      60.744  -1.866  29.253  0.00  0.00     0.012 A 
ATOM     22  C   UNL d   1      60.128  -1.361  29.051  0.00  0.00     0.061 A 
ATOM     23 CL   UNL d   1      60.536  -0.812  28.567  0.00  0.00    -0.082 Cl
ENDBRANCH   1  16
TORSDOF 3
ENDMDL
MODEL 8
REMARK VINA RESULT:       3.4      8.971      9.609
REMARK  3 active torsions:
REMARK  status: ('A' for Active; 'I' for Inactive)
REMARK    1  A    between atoms: C_5  and  C_1 
REMARK    2  A    between atoms: C_4  and  C_2 
REMARK       I    between atoms: N_8  and  C_4 
REMARK    3  A    between atoms: C_10  and  N_8 
ROOT
ATOM      1  C   UNL d   1      60.002  -8.841  34.488  0.00  0.00     0.118 A 
ATOM      2  C   UNL d   1      59.808  -9.248  33.794  0.00  0.00     0.103 A 
ATOM      3  N   UNL d   1      60.820  -8.758  34.495  0.00  0.00    -0.126 NA
ATOM      4  O   UNL d   1      61.133  -9.103  33.823  0.00  0.00    -0.211 OA
ATOM      5  C   UNL d   1      60.502  -9.407  33.388  0.00  0.00     0.131 A 
ATOM      6  C   UNL d   1      60.552  -9.807  32.664  0.00  0.00     0.029 C 
ENDROOT
BRANCH   2   7
ATOM      7  C   UNL d   1      59.041  -9.454  33.558  0.00  0.00     0.283 C 
ATOM      8  N   UNL d   1      58.795  -9.292  32.788  0.00  0.00    -0.204 NA
ATOM      9  O   UNL d   1      58.541  -9.817  34.097  0.00  0.00    -0.265 OA
BRANCH   8  10
ATOM     10  C   UNL d   1      58.034  -9.497  32.553  0.00  0.00     0.130 A 
ATOM     11  C   UNL d   1      57.789  -9.621  31.780  0.00  0.00     0.243 A 
ATOM     12  S   UNL d   1      56.982  -9.817  31.791  0.00  0.00    -0.044 SA
ATOM     13  O   UNL d   1      58.253  -9.564  31.108  0.00  0.00    -0.278 OA
ATOM     14  C   UNL d   1      56.732  -9.813  32.573  0.00  0.00     0.040 A 
ATOM     15  C   UNL d   1      57.387  -9.614  33.051  0.00  0.00     0.030 A 
ENDBRANCH   8  10
ENDBRANCH   2   7
BRANCH   1  16
ATOM     16  C   UNL d   1      59.482  -8.572  35.060  0.00  0.00     0.058 A 
ATOM     17  C   UNL d   1      59.132  -7.821  34.992  0.00  0.00     0.142 A 
ATOM     18  F   UNL d   1      59.317  -7.351  34.339  0.00  0.00    -0.204 F 
ATOM     19  C   UNL d   1      58.614  -7.563  35.571  0.00  0.00     0.030 A 
ATOM     20  C   UNL d   1      58.432  -8.036  36.221  0.00  0.00     0.003 A 
ATOM     21  C   UNL d   1      58.784  -8.789  36.288  0.00  0.00     0.012 A 
ATOM     22  C   UNL d   1      59.305  -9.052  35.709  0.00  0.00     0.061 A 
ATOM     23 CL   UNL d   1      59.500  -9.807  36.014  0.00  0.00    -0.082 Cl
ENDBRANCH   1  16
TORSDOF 3
ENDMDL
