MODEL 1
REMARK VINA RESULT:      -3.4      0.000      0.000
REMARK  5 active torsions:
REMARK  status: ('A' for Active; 'I' for Inactive)
REMARK    1  A    between atoms: O_8  and  C_2 
REMARK    2  A    between atoms: C_11  and  C_5 
REMARK    3  A    between atoms: C_15  and  O_8 
REMARK    4  A    between atoms: N_14  and  C_11 
REMARK    5  A    between atoms: O_23  and  C_16 
ROOT
ATOM      1  C   UNL d   1      57.352   0.638  32.011  0.00  0.00     0.108 A 
ATOM      2  C   UNL d   1      58.341   0.642  30.676  0.00  0.00     0.161 A 
ATOM      3  C   UNL d   1      58.183   0.659  32.105  0.00  0.00     0.064 A 
ATOM      4  C   UNL d   1      58.674   0.661  31.446  0.00  0.00     0.222 A 
ATOM      5  C   UNL d   1      56.857   0.636  32.678  0.00  0.00     0.079 A 
ATOM      6  O   UNL d   1      57.014   0.619  31.254  0.00  0.00    -0.305 OA
ATOM      7  C   UNL d   1      57.518   0.621  30.583  0.00  0.00     0.126 A 
ATOM      8  C   UNL d   1      58.504   0.678  32.873  0.00  0.00     0.009 A 
ATOM      9  C   UNL d   1      57.191   0.655  33.435  0.00  0.00     0.199 A 
ATOM     10  O   UNL d   1      59.494   0.682  31.535  0.00  0.00    -0.284 OA
ATOM     11  C   UNL d   1      58.010   0.675  33.532  0.00  0.00     0.042 A 
ATOM     12  O   UNL d   1      56.689   0.652  34.093  0.00  0.00    -0.286 OA
ATOM     13  C   UNL d   1      57.191   0.603  29.827  0.00  0.00     0.029 C 
ENDROOT
BRANCH   2  14
ATOM     14  O   UNL d   1      58.834   0.644  30.018  0.00  0.00    -0.302 OA
BRANCH  14  15
ATOM     15  C   UNL d   1      59.083  -0.068  29.689  0.00  0.00     0.100 A 
ATOM     16  C   UNL d   1      58.535  -0.562  29.320  0.00  0.00     0.027 A 
ATOM     17  C   UNL d   1      58.777  -1.270  28.992  0.00  0.00     0.026 A 
ATOM     18  C   UNL d   1      59.580  -1.493  29.031  0.00  0.00     0.094 A 
ATOM     19  C   UNL d   1      60.125  -0.996  29.400  0.00  0.00     0.026 A 
ATOM     20  C   UNL d   1      59.876  -0.284  29.729  0.00  0.00     0.027 A 
BRANCH  18  21
ATOM     21  O   UNL d   1      59.828  -2.206  28.702  0.00  0.00    -0.328 OA
ATOM     22  C   UNL d   1      60.112  -2.807  29.190  0.00  0.00     0.181 C 
ENDBRANCH  18  21
ENDBRANCH  14  15
ENDBRANCH   2  14
BRANCH   5  23
ATOM     23  C   UNL d   1      56.038   0.615  32.582  0.00  0.00     0.086 C 
BRANCH  23  24
ATOM     24  N   UNL d   1      55.588   0.116  33.050  0.00  0.00    -0.300 N 
ATOM     25  C   UNL d   1      55.118   0.429  33.651  0.00  0.00     0.100 C 
ATOM     26  C   UNL d   1      55.602  -0.702  32.925  0.00  0.00     0.100 C 
ENDBRANCH  23  24
ENDBRANCH   5  23
TORSDOF 5
ENDMDL
MODEL 2
REMARK VINA RESULT:      -1.0      2.030      5.229
REMARK  5 active torsions:
REMARK  status: ('A' for Active; 'I' for Inactive)
REMARK    1  A    between atoms: O_8  and  C_2 
REMARK    2  A    between atoms: C_11  and  C_5 
REMARK    3  A    between atoms: C_15  and  O_8 
REMARK    4  A    between atoms: N_14  and  C_11 
REMARK    5  A    between atoms: O_23  and  C_16 
ROOT
ATOM      1  C   UNL d   1      59.576  -2.700  28.671  0.00  0.00     0.108 A 
ATOM      2  C   UNL d   1      59.139  -1.110  28.871  0.00  0.00     0.161 A 
ATOM      3  C   UNL d   1      58.769  -2.495  28.755  0.00  0.00     0.064 A 
ATOM      4  C   UNL d   1      58.552  -1.708  28.853  0.00  0.00     0.222 A 
ATOM      5  C   UNL d   1      59.796  -3.495  28.571  0.00  0.00     0.079 A 
ATOM      6  O   UNL d   1      60.164  -2.115  28.687  0.00  0.00    -0.305 OA
ATOM      7  C   UNL d   1      59.938  -1.313  28.788  0.00  0.00     0.126 A 
ATOM      8  C   UNL d   1      58.194  -3.096  28.736  0.00  0.00     0.009 A 
ATOM      9  C   UNL d   1      59.212  -4.081  28.555  0.00  0.00     0.199 A 
ATOM     10  O   UNL d   1      57.758  -1.502  28.936  0.00  0.00    -0.284 OA
ATOM     11  C   UNL d   1      58.415  -3.882  28.637  0.00  0.00     0.042 A 
ATOM     12  O   UNL d   1      59.441  -4.870  28.455  0.00  0.00    -0.286 OA
ATOM     13  C   UNL d   1      60.515  -0.725  28.805  0.00  0.00     0.029 C 
ENDROOT
BRANCH   2  14
ATOM     14  O   UNL d   1      58.919  -0.323  28.970  0.00  0.00    -0.302 OA
BRANCH  14  15
ATOM     15  C   UNL d   1      58.600  -0.073  29.687  0.00  0.00     0.100 A 
ATOM     16  C   UNL d   1      57.857   0.284  29.701  0.00  0.00     0.027 A 
ATOM     17  C   UNL d   1      57.536   0.534  30.410  0.00  0.00     0.026 A 
ATOM     18  C   UNL d   1      57.962   0.427  31.119  0.00  0.00     0.094 A 
ATOM     19  C   UNL d   1      58.705   0.069  31.101  0.00  0.00     0.026 A 
ATOM     20  C   UNL d   1      59.023  -0.181  30.384  0.00  0.00     0.027 A 
BRANCH  18  21
ATOM     21  O   UNL d   1      57.642   0.678  31.835  0.00  0.00    -0.328 OA
ATOM     22  C   UNL d   1      57.282   0.131  32.338  0.00  0.00     0.181 C 
ENDBRANCH  18  21
ENDBRANCH  14  15
ENDBRANCH   2  14
BRANCH   5  23
ATOM     23  C   UNL d   1      60.592  -3.694  28.489  0.00  0.00     0.086 C 
BRANCH  23  24
ATOM     24  N   UNL d   1      60.925  -4.244  28.995  0.00  0.00    -0.300 N 
ATOM     25  C   UNL d   1      61.133  -4.991  28.712  0.00  0.00     0.100 C 
ATOM     26  C   UNL d   1      61.056  -4.058  29.791  0.00  0.00     0.100 C 
ENDBRANCH  23  24
ENDBRANCH   5  23
TORSDOF 5
ENDMDL
MODEL 3
REMARK VINA RESULT:      -0.6      1.708      4.164
REMARK  5 active torsions:
REMARK  status: ('A' for Active; 'I' for Inactive)
REMARK    1  A    between atoms: O_8  and  C_2 
REMARK    2  A    between atoms: C_11  and  C_5 
REMARK    3  A    between atoms: C_15  and  O_8 
REMARK    4  A    between atoms: N_14  and  C_11 
REMARK    5  A    between atoms: O_23  and  C_16 
ROOT
ATOM      1  C   UNL d   1      58.952   0.669  30.702  0.00  0.00     0.108 A 
ATOM      2  C   UNL d   1      57.647   0.677  31.730  0.00  0.00     0.161 A 
ATOM      3  C   UNL d   1      59.071   0.669  31.531  0.00  0.00     0.064 A 
ATOM      4  C   UNL d   1      58.426   0.673  32.040  0.00  0.00     0.222 A 
ATOM      5  C   UNL d   1      59.605   0.665  30.188  0.00  0.00     0.079 A 
ATOM      6  O   UNL d   1      58.185   0.673  30.386  0.00  0.00    -0.305 OA
ATOM      7  C   UNL d   1      57.529   0.677  30.909  0.00  0.00     0.126 A 
ATOM      8  C   UNL d   1      59.848   0.665  31.829  0.00  0.00     0.009 A 
ATOM      9  C   UNL d   1      60.371   0.661  30.500  0.00  0.00     0.199 A 
ATOM     10  O   UNL d   1      58.539   0.673  32.857  0.00  0.00    -0.284 OA
ATOM     11  C   UNL d   1      60.492   0.661  31.316  0.00  0.00     0.042 A 
ATOM     12  O   UNL d   1      61.014   0.657  29.979  0.00  0.00    -0.286 OA
ATOM     13  C   UNL d   1      56.764   0.681  30.606  0.00  0.00     0.029 C 
ENDROOT
BRANCH   2  14
ATOM     14  O   UNL d   1      57.003   0.681  32.242  0.00  0.00    -0.302 OA
BRANCH  14  15
ATOM     15  C   UNL d   1      56.622  -0.025  32.429  0.00  0.00     0.100 A 
ATOM     16  C   UNL d   1      56.026  -0.029  32.999  0.00  0.00     0.027 A 
ATOM     17  C   UNL d   1      55.646  -0.727  33.188  0.00  0.00     0.026 A 
ATOM     18  C   UNL d   1      55.860  -1.435  32.804  0.00  0.00     0.094 A 
ATOM     19  C   UNL d   1      56.457  -1.427  32.234  0.00  0.00     0.026 A 
ATOM     20  C   UNL d   1      56.838  -0.721  32.047  0.00  0.00     0.027 A 
BRANCH  18  21
ATOM     21  O   UNL d   1      55.479  -2.140  32.991  0.00  0.00    -0.328 OA
ATOM     22  C   UNL d   1      55.574  -2.471  33.741  0.00  0.00     0.181 C 
ENDBRANCH  18  21
ENDBRANCH  14  15
ENDBRANCH   2  14
BRANCH   5  23
ATOM     23  C   UNL d   1      59.484   0.665  29.372  0.00  0.00     0.086 C 
BRANCH  23  24
ATOM     24  N   UNL d   1      59.771   0.045  28.921  0.00  0.00    -0.300 N 
ATOM     25  C   UNL d   1      59.294  -0.612  28.774  0.00  0.00     0.100 C 
ATOM     26  C   UNL d   1      60.537   0.071  28.610  0.00  0.00     0.100 C 
ENDBRANCH  23  24
ENDBRANCH   5  23
TORSDOF 5
ENDMDL
