MODEL 1
REMARK VINA RESULT:      82.0      0.000      0.000
REMARK  2 active torsions:
REMARK  status: ('A' for Active; 'I' for Inactive)
REMARK    1  A    between atoms: N_2  and  C_1 
REMARK    2  A    between atoms: N_11  and  C_3 
ROOT
ATOM      1  C   UNL d   1     -50.815  25.175  33.657  0.00  0.00     0.142 A 
ATOM      2  C   UNL d   1     -50.241  25.762  33.741  0.00  0.00     0.124 A 
ATOM      3  C   UNL d   1     -50.585  24.397  33.529  0.00  0.00     0.215 A 
ATOM      4  C   UNL d   1     -49.440  25.574  33.698  0.00  0.00     0.213 A 
ATOM      5  C   UNL d   1     -49.784  24.197  33.484  0.00  0.00     0.044 A 
ATOM      6  C   UNL d   1     -49.213  24.792  33.569  0.00  0.00     0.044 A 
ATOM      7  O   UNL d   1     -51.153  23.804  33.444  0.00  0.00    -0.285 OA
ATOM      8  O   UNL d   1     -48.866  26.161  33.782  0.00  0.00    -0.285 OA
ATOM      9  C   UNL d   1     -49.555  23.426  33.357  0.00  0.00     0.003 A 
ATOM     10  C   UNL d   1     -48.410  24.596  33.525  0.00  0.00     0.003 A 
ATOM     11  C   UNL d   1     -48.189  23.815  33.397  0.00  0.00     0.000 A 
ATOM     12  C   UNL d   1     -48.766  23.226  33.312  0.00  0.00     0.000 A 
ENDROOT
BRANCH   1  13
ATOM     13  N   UNL d   1     -51.610  25.369  33.701  0.00  0.00    -0.206 N 
ATOM     14  N   UNL d   1     -51.917  26.118  33.860  0.00  0.00    -0.059 NA
ATOM     15  N   UNL d   1     -52.744  26.059  33.851  0.00  0.00    -0.129 NA
ATOM     16  C   UNL d   1     -52.936  25.270  33.685  0.00  0.00     0.122 A 
ATOM     17  C   UNL d   1     -52.231  24.846  33.592  0.00  0.00     0.104 A 
ATOM     18  C   UNL d   1     -53.666  24.895  33.608  0.00  0.00     0.022 A 
ATOM     19  C   UNL d   1     -52.254  24.047  33.423  0.00  0.00     0.021 A 
ATOM     20  C   UNL d   1     -52.981  23.651  33.342  0.00  0.00     0.002 A 
ATOM     21  C   UNL d   1     -53.683  24.079  33.436  0.00  0.00     0.002 A 
ENDBRANCH   1  13
BRANCH   2  22
ATOM     22  N   UNL d   1     -50.470  26.545  33.870  0.00  0.00    -0.296 N 
ATOM     23  C   UNL d   1     -50.878  26.748  34.557  0.00  0.00     0.107 A 
ATOM     24  C   UNL d   1     -51.106  27.520  34.686  0.00  0.00     0.142 A 
ATOM     25  O   UNL d   1     -50.929  28.106  34.127  0.00  0.00    -0.300 OA
ATOM     26  C   UNL d   1     -50.521  27.896  33.440  0.00  0.00     0.142 A 
ATOM     27  C   UNL d   1     -50.293  27.116  33.313  0.00  0.00     0.107 A 
ENDBRANCH   2  22
TORSDOF 2
ENDMDL
