MODEL 1
REMARK VINA RESULT:      18.5      0.000      0.000
REMARK  1 active torsions:
REMARK  status: ('A' for Active; 'I' for Inactive)
REMARK    1  A    between atoms: C_7  and  C_1 
ROOT
ATOM      1  C   UNL d   1      59.521  49.642  50.933  0.00  0.00     0.122 A 
ATOM      2  C   UNL d   1      58.455  49.666  49.966  0.00  0.00     0.057 A 
ATOM      3  C   UNL d   1      57.900  49.664  50.578  0.00  0.00     0.085 A 
ATOM      4  C   UNL d   1      59.261  49.655  50.142  0.00  0.00     0.204 A 
ATOM      5  N   UNL d   1      58.168  49.651  51.367  0.00  0.00    -0.244 NA
ATOM      6  C   UNL d   1      57.095  49.674  50.410  0.00  0.00     0.028 A 
ATOM      7  C   UNL d   1      58.966  49.640  51.545  0.00  0.00     0.108 A 
ATOM      8  C   UNL d   1      58.207  49.678  49.185  0.00  0.00     0.006 A 
ATOM      9  C   UNL d   1      56.852  49.687  49.632  0.00  0.00     0.059 A 
ATOM     10  C   UNL d   1      57.404  49.689  49.024  0.00  0.00     0.012 A 
ATOM     11  O   UNL d   1      59.813  49.657  49.533  0.00  0.00    -0.286 OA
ATOM     12 CL   UNL d   1      56.038  49.697  49.450  0.00  0.00    -0.082 Cl
ATOM     13  C   UNL d   1      56.532  49.672  51.030  0.00  0.00     0.002 C 
ENDROOT
BRANCH   1  14
ATOM     14  C   UNL d   1      60.337  49.632  51.099  0.00  0.00     0.216 C 
ATOM     15  O   UNL d   1      60.892  49.566  50.488  0.00  0.00    -0.644 OA
ATOM     16  O   UNL d   1      60.596  49.687  51.887  0.00  0.00    -0.644 OA
ENDBRANCH   1  14
TORSDOF 1
ENDMDL
