MODEL 1
REMARK VINA RESULT:      -7.8      0.000      0.000
REMARK  4 active torsions:
REMARK  status: ('A' for Active; 'I' for Inactive)
REMARK    1  A    between atoms: C_7  and  C_1 
REMARK    2  A    between atoms: C_6  and  C_3 
REMARK    3  A    between atoms: O_15  and  C_8 
REMARK    4  A    between atoms: O_16  and  C_12 
ROOT
ATOM      1  C   UNL d   1      52.902  32.891  53.368  0.00  0.00     0.042 A 
ATOM      2  C   UNL d   1      52.197  33.315  53.356  0.00  0.00     0.098 A 
ATOM      3  C   UNL d   1      52.202  34.124  53.496  0.00  0.00     0.048 A 
ATOM      4  C   UNL d   1      53.613  33.273  53.518  0.00  0.00     0.005 A 
ATOM      5  C   UNL d   1      52.916  34.514  53.648  0.00  0.00     0.096 A 
ATOM      6  C   UNL d   1      53.624  34.085  53.659  0.00  0.00     0.024 A 
ENDROOT
BRANCH   1   7
ATOM      7  C   UNL d   1      52.890  32.077  53.227  0.00  0.00     0.107 A 
ATOM      8  C   UNL d   1      53.000  30.918  54.049  0.00  0.00     0.048 A 
ATOM      9  C   UNL d   1      52.922  30.442  53.380  0.00  0.00     0.169 A 
ATOM     10  N   UNL d   1      52.827  30.773  52.631  0.00  0.00    -0.142 NA
ATOM     11  N   UNL d   1      52.812  31.597  52.561  0.00  0.00    -0.148 NA
BRANCH   9  12
ATOM     12  C   UNL d   1      52.938  29.620  53.460  0.00  0.00     0.231 C 
ATOM     13  O   UNL d   1      53.396  29.273  54.052  0.00  0.00    -0.643 OA
ATOM     14  O   UNL d   1      52.497  29.146  52.951  0.00  0.00    -0.643 OA
ENDBRANCH   9  12
ENDBRANCH   1   7
BRANCH   2  15
ATOM     15  O   UNL d   1      51.482  32.925  53.204  0.00  0.00    -0.328 OA
ATOM     16  C   UNL d   1      50.773  33.352  53.204  0.00  0.00     0.181 C 
ENDBRANCH   2  15
BRANCH   5  17
ATOM     17  O   UNL d   1      52.922  35.326  53.787  0.00  0.00    -0.328 OA
ATOM     18  C   UNL d   1      53.134  35.619  54.532  0.00  0.00     0.181 C 
ENDBRANCH   5  17
TORSDOF 4
ENDMDL
MODEL 2
REMARK VINA RESULT:      -7.7      1.598      3.978
REMARK  4 active torsions:
REMARK  status: ('A' for Active; 'I' for Inactive)
REMARK    1  A    between atoms: C_7  and  C_1 
REMARK    2  A    between atoms: C_6  and  C_3 
REMARK    3  A    between atoms: O_15  and  C_8 
REMARK    4  A    between atoms: O_16  and  C_12 
ROOT
ATOM      1  C   UNL d   1      52.658  31.897  53.164  0.00  0.00     0.042 A 
ATOM      2  C   UNL d   1      53.276  31.931  53.707  0.00  0.00     0.098 A 
ATOM      3  C   UNL d   1      53.680  31.247  53.912  0.00  0.00     0.048 A 
ATOM      4  C   UNL d   1      52.442  31.180  52.827  0.00  0.00     0.005 A 
ATOM      5  C   UNL d   1      53.466  30.522  53.575  0.00  0.00     0.096 A 
ATOM      6  C   UNL d   1      52.844  30.490  53.030  0.00  0.00     0.024 A 
ENDROOT
BRANCH   1   7
ATOM      7  C   UNL d   1      52.255  32.589  52.961  0.00  0.00     0.107 A 
ATOM      8  C   UNL d   1      51.044  33.205  53.391  0.00  0.00     0.048 A 
ATOM      9  C   UNL d   1      51.175  33.821  52.859  0.00  0.00     0.169 A 
ATOM     10  N   UNL d   1      51.841  33.831  52.374  0.00  0.00    -0.142 NA
ATOM     11  N   UNL d   1      52.381  33.207  52.430  0.00  0.00    -0.148 NA
BRANCH   9  12
ATOM     12  C   UNL d   1      50.628  34.440  52.810  0.00  0.00     0.231 C 
ATOM     13  O   UNL d   1      50.720  35.108  53.285  0.00  0.00    -0.643 OA
ATOM     14  O   UNL d   1      49.993  34.390  52.288  0.00  0.00    -0.643 OA
ENDBRANCH   9  12
ENDBRANCH   1   7
BRANCH   2  15
ATOM     15  O   UNL d   1      53.490  32.656  54.044  0.00  0.00    -0.328 OA
ATOM     16  C   UNL d   1      54.080  32.681  54.624  0.00  0.00     0.181 C 
ENDBRANCH   2  15
BRANCH   5  17
ATOM     17  O   UNL d   1      53.872  29.834  53.781  0.00  0.00    -0.328 OA
ATOM     18  C   UNL d   1      53.482  29.227  54.186  0.00  0.00     0.181 C 
ENDBRANCH   5  17
TORSDOF 4
ENDMDL
MODEL 3
REMARK VINA RESULT:      -7.6      1.917      3.555
REMARK  4 active torsions:
REMARK  status: ('A' for Active; 'I' for Inactive)
REMARK    1  A    between atoms: C_7  and  C_1 
REMARK    2  A    between atoms: C_6  and  C_3 
REMARK    3  A    between atoms: O_15  and  C_8 
REMARK    4  A    between atoms: O_16  and  C_12 
ROOT
ATOM      1  C   UNL d   1      52.658  33.727  53.636  0.00  0.00     0.042 A 
ATOM      2  C   UNL d   1      52.953  32.961  53.572  0.00  0.00     0.098 A 
ATOM      3  C   UNL d   1      53.587  32.726  54.037  0.00  0.00     0.048 A 
ATOM      4  C   UNL d   1      52.995  34.259  54.163  0.00  0.00     0.005 A 
ATOM      5  C   UNL d   1      53.931  33.258  54.570  0.00  0.00     0.096 A 
ATOM      6  C   UNL d   1      53.633  34.027  54.632  0.00  0.00     0.024 A 
ENDROOT
BRANCH   1   7
ATOM      7  C   UNL d   1      52.019  33.959  53.166  0.00  0.00     0.107 A 
ATOM      8  C   UNL d   1      50.610  34.037  53.361  0.00  0.00     0.048 A 
ATOM      9  C   UNL d   1      50.524  34.317  52.590  0.00  0.00     0.169 A 
ATOM     10  N   UNL d   1      51.178  34.421  52.099  0.00  0.00    -0.142 NA
ATOM     11  N   UNL d   1      51.928  34.239  52.395  0.00  0.00    -0.148 NA
BRANCH   9  12
ATOM     12  C   UNL d   1      49.769  34.497  52.303  0.00  0.00     0.231 C 
ATOM     13  O   UNL d   1      49.238  34.914  52.777  0.00  0.00    -0.643 OA
ATOM     14  O   UNL d   1      49.548  34.260  51.546  0.00  0.00    -0.643 OA
ENDBRANCH   9  12
ENDBRANCH   1   7
BRANCH   2  15
ATOM     15  O   UNL d   1      52.609  32.429  53.039  0.00  0.00    -0.328 OA
ATOM     16  C   UNL d   1      52.869  31.644  53.017  0.00  0.00     0.181 C 
ENDBRANCH   2  15
BRANCH   5  17
ATOM     17  O   UNL d   1      54.568  33.021  55.036  0.00  0.00    -0.328 OA
ATOM     18  C   UNL d   1      55.134  33.575  55.279  0.00  0.00     0.181 C 
ENDBRANCH   5  17
TORSDOF 4
ENDMDL
MODEL 4
REMARK VINA RESULT:      -7.3      1.510      4.126
REMARK  4 active torsions:
REMARK  status: ('A' for Active; 'I' for Inactive)
REMARK    1  A    between atoms: C_7  and  C_1 
REMARK    2  A    between atoms: C_6  and  C_3 
REMARK    3  A    between atoms: O_15  and  C_8 
REMARK    4  A    between atoms: O_16  and  C_12 
ROOT
ATOM      1  C   UNL d   1      53.057  32.876  53.699  0.00  0.00     0.042 A 
ATOM      2  C   UNL d   1      52.334  32.641  53.383  0.00  0.00     0.098 A 
ATOM      3  C   UNL d   1      52.265  31.912  53.014  0.00  0.00     0.048 A 
ATOM      4  C   UNL d   1      53.712  32.383  53.646  0.00  0.00     0.005 A 
ATOM      5  C   UNL d   1      52.922  31.412  52.957  0.00  0.00     0.096 A 
ATOM      6  C   UNL d   1      53.648  31.650  53.276  0.00  0.00     0.024 A 
ENDROOT
BRANCH   1   7
ATOM      7  C   UNL d   1      53.120  33.611  54.070  0.00  0.00     0.107 A 
ATOM      8  C   UNL d   1      52.942  34.962  53.652  0.00  0.00     0.048 A 
ATOM      9  C   UNL d   1      53.134  35.217  54.413  0.00  0.00     0.169 A 
ATOM     10  N   UNL d   1      53.320  34.679  55.008  0.00  0.00    -0.142 NA
ATOM     11  N   UNL d   1      53.312  33.871  54.829  0.00  0.00    -0.148 NA
BRANCH   9  12
ATOM     12  C   UNL d   1      53.140  36.027  54.581  0.00  0.00     0.231 C 
ATOM     13  O   UNL d   1      53.782  36.490  54.351  0.00  0.00    -0.643 OA
ATOM     14  O   UNL d   1      52.506  36.370  54.979  0.00  0.00    -0.643 OA
ENDBRANCH   9  12
ENDBRANCH   1   7
BRANCH   2  15
ATOM     15  O   UNL d   1      51.677  33.142  53.439  0.00  0.00    -0.328 OA
ATOM     16  C   UNL d   1      50.939  32.884  53.166  0.00  0.00     0.181 C 
ENDBRANCH   2  15
BRANCH   5  17
ATOM     17  O   UNL d   1      52.853  30.679  52.586  0.00  0.00    -0.328 OA
ATOM     18  C   UNL d   1      52.955  29.981  53.020  0.00  0.00     0.181 C 
ENDBRANCH   5  17
TORSDOF 4
ENDMDL
MODEL 5
REMARK VINA RESULT:      -6.8      1.900      3.196
REMARK  4 active torsions:
REMARK  status: ('A' for Active; 'I' for Inactive)
REMARK    1  A    between atoms: C_7  and  C_1 
REMARK    2  A    between atoms: C_6  and  C_3 
REMARK    3  A    between atoms: O_15  and  C_8 
REMARK    4  A    between atoms: O_16  and  C_12 
ROOT
ATOM      1  C   UNL d   1      52.462  33.787  53.308  0.00  0.00     0.042 A 
ATOM      2  C   UNL d   1      52.024  33.122  53.099  0.00  0.00     0.098 A 
ATOM      3  C   UNL d   1      51.294  33.210  52.735  0.00  0.00     0.048 A 
ATOM      4  C   UNL d   1      52.172  34.540  53.154  0.00  0.00     0.005 A 
ATOM      5  C   UNL d   1      50.997  33.966  52.577  0.00  0.00     0.096 A 
ATOM      6  C   UNL d   1      51.439  34.633  52.788  0.00  0.00     0.024 A 
ENDROOT
BRANCH   1   7
ATOM      7  C   UNL d   1      53.196  33.693  53.674  0.00  0.00     0.107 A 
ATOM      8  C   UNL d   1      53.716  33.997  54.966  0.00  0.00     0.048 A 
ATOM      9  C   UNL d   1      54.447  33.691  54.738  0.00  0.00     0.169 A 
ATOM     10  N   UNL d   1      54.563  33.385  53.982  0.00  0.00    -0.142 NA
ATOM     11  N   UNL d   1      53.929  33.389  53.450  0.00  0.00    -0.148 NA
BRANCH   9  12
ATOM     12  C   UNL d   1      55.075  33.691  55.276  0.00  0.00     0.231 C 
ATOM     13  O   UNL d   1      55.788  34.056  55.076  0.00  0.00    -0.643 OA
ATOM     14  O   UNL d   1      54.990  33.329  56.010  0.00  0.00    -0.643 OA
ENDBRANCH   9  12
ENDBRANCH   1   7
BRANCH   2  15
ATOM     15  O   UNL d   1      52.321  32.366  53.257  0.00  0.00    -0.328 OA
ATOM     16  C   UNL d   1      51.933  31.701  52.953  0.00  0.00     0.181 C 
ENDBRANCH   2  15
BRANCH   5  17
ATOM     17  O   UNL d   1      50.263  34.054  52.211  0.00  0.00    -0.328 OA
ATOM     18  C   UNL d   1      49.725  34.619  52.488  0.00  0.00     0.181 C 
ENDBRANCH   5  17
TORSDOF 4
ENDMDL
