MODEL 1
REMARK VINA RESULT:      -9.4      0.000      0.000
REMARK  3 active torsions:
REMARK  status: ('A' for Active; 'I' for Inactive)
REMARK    1  A    between atoms: C_6  and  N_2 
REMARK    2  A    between atoms: C_7  and  C_6 
REMARK       I    between atoms: N_11  and  C_7 
REMARK    3  A    between atoms: C_14  and  N_11 
ROOT
ATOM      1  S   UNL d   1      54.091  33.695  54.522  0.00  0.00     0.274 S 
ATOM      2  N   UNL d   1      53.892  33.188  53.915  0.00  0.00    -0.192 N 
ATOM      3  C   UNL d   1      53.274  33.528  53.481  0.00  0.00     0.275 A 
ATOM      4  C   UNL d   1      53.101  34.245  53.834  0.00  0.00     0.069 A 
ATOM      5  C   UNL d   1      53.601  34.348  54.470  0.00  0.00     0.109 A 
ATOM      6  O   UNL d   1      54.512  32.988  54.455  0.00  0.00    -0.200 OA
ATOM      7  O   UNL d   1      54.466  34.023  55.189  0.00  0.00    -0.200 OA
ATOM      8  O   UNL d   1      52.901  33.213  52.826  0.00  0.00    -0.266 OA
ATOM      9  C   UNL d   1      52.542  34.823  53.648  0.00  0.00     0.005 A 
ATOM     10  C   UNL d   1      53.551  35.029  54.932  0.00  0.00     0.013 A 
ATOM     11  C   UNL d   1      52.491  35.507  54.111  0.00  0.00     0.000 A 
ATOM     12  C   UNL d   1      52.991  35.609  54.747  0.00  0.00     0.001 A 
ENDROOT
BRANCH   2  13
ATOM     13  C   UNL d   1      54.247  32.455  53.754  0.00  0.00     0.157 C 
BRANCH  13  14
ATOM     14  C   UNL d   1      53.828  31.768  53.890  0.00  0.00     0.298 C 
ATOM     15  N   UNL d   1      53.921  31.124  53.375  0.00  0.00    -0.207 NA
ATOM     16  O   UNL d   1      53.317  31.702  54.527  0.00  0.00    -0.264 OA
BRANCH  15  17
ATOM     17  C   UNL d   1      53.502  30.424  53.505  0.00  0.00     0.085 A 
ATOM     18  C   UNL d   1      52.853  30.260  53.044  0.00  0.00     0.019 A 
ATOM     19  C   UNL d   1      52.434  29.561  53.174  0.00  0.00     0.002 A 
ATOM     20  C   UNL d   1      52.671  29.042  53.759  0.00  0.00     0.000 A 
ATOM     21  C   UNL d   1      53.331  29.216  54.224  0.00  0.00     0.002 A 
ATOM     22  C   UNL d   1      53.743  29.898  54.099  0.00  0.00     0.019 A 
ENDBRANCH  15  17
ENDBRANCH  13  14
ENDBRANCH   2  13
TORSDOF 3
ENDMDL
MODEL 2
REMARK VINA RESULT:      -8.7      1.716      4.152
REMARK  3 active torsions:
REMARK  status: ('A' for Active; 'I' for Inactive)
REMARK    1  A    between atoms: C_6  and  N_2 
REMARK    2  A    between atoms: C_7  and  C_6 
REMARK       I    between atoms: N_11  and  C_7 
REMARK    3  A    between atoms: C_14  and  N_11 
ROOT
ATOM      1  S   UNL d   1      53.400  31.837  53.970  0.00  0.00     0.274 S 
ATOM      2  N   UNL d   1      53.025  32.109  53.299  0.00  0.00    -0.192 N 
ATOM      3  C   UNL d   1      52.800  31.456  52.841  0.00  0.00     0.275 A 
ATOM      4  C   UNL d   1      53.044  30.787  53.244  0.00  0.00     0.069 A 
ATOM      5  C   UNL d   1      53.411  31.020  53.934  0.00  0.00     0.109 A 
ATOM      6  O   UNL d   1      53.318  32.653  53.877  0.00  0.00    -0.200 OA
ATOM      7  O   UNL d   1      53.799  31.814  54.700  0.00  0.00    -0.200 OA
ATOM      8  O   UNL d   1      52.409  31.470  52.124  0.00  0.00    -0.266 OA
ATOM      9  C   UNL d   1      52.974  29.986  53.060  0.00  0.00     0.005 A 
ATOM     10  C   UNL d   1      53.715  30.455  54.453  0.00  0.00     0.013 A 
ATOM     11  C   UNL d   1      53.279  29.419  53.580  0.00  0.00     0.000 A 
ATOM     12  C   UNL d   1      53.646  29.652  54.270  0.00  0.00     0.001 A 
ENDROOT
BRANCH   2  13
ATOM     13  C   UNL d   1      52.888  32.904  53.104  0.00  0.00     0.157 C 
BRANCH  13  14
ATOM     14  C   UNL d   1      52.121  33.178  53.047  0.00  0.00     0.298 C 
ATOM     15  N   UNL d   1      51.968  33.881  52.633  0.00  0.00    -0.207 NA
ATOM     16  O   UNL d   1      51.499  32.771  53.392  0.00  0.00    -0.264 OA
BRANCH  15  17
ATOM     17  C   UNL d   1      51.195  34.166  52.571  0.00  0.00     0.085 A 
ATOM     18  C   UNL d   1      50.803  34.093  51.862  0.00  0.00     0.019 A 
ATOM     19  C   UNL d   1      50.030  34.378  51.800  0.00  0.00     0.002 A 
ATOM     20  C   UNL d   1      49.668  34.727  52.444  0.00  0.00     0.000 A 
ATOM     21  C   UNL d   1      50.073  34.797  53.160  0.00  0.00     0.002 A 
ATOM     22  C   UNL d   1      50.828  34.520  53.224  0.00  0.00     0.019 A 
ENDBRANCH  15  17
ENDBRANCH  13  14
ENDBRANCH   2  13
TORSDOF 3
ENDMDL
MODEL 3
REMARK VINA RESULT:      -8.7      1.080      4.368
REMARK  3 active torsions:
REMARK  status: ('A' for Active; 'I' for Inactive)
REMARK    1  A    between atoms: C_6  and  N_2 
REMARK    2  A    between atoms: C_7  and  C_6 
REMARK       I    between atoms: N_11  and  C_7 
REMARK    3  A    between atoms: C_14  and  N_11 
ROOT
ATOM      1  S   UNL d   1      52.963  31.056  52.847  0.00  0.00     0.274 S 
ATOM      2  N   UNL d   1      53.387  31.629  53.242  0.00  0.00    -0.192 N 
ATOM      3  C   UNL d   1      53.680  31.303  53.944  0.00  0.00     0.275 A 
ATOM      4  C   UNL d   1      53.427  30.525  53.969  0.00  0.00     0.069 A 
ATOM      5  C   UNL d   1      52.989  30.374  53.298  0.00  0.00     0.109 A 
ATOM      6  O   UNL d   1      53.019  31.802  52.500  0.00  0.00    -0.200 OA
ATOM      7  O   UNL d   1      52.500  30.665  52.276  0.00  0.00    -0.200 OA
ATOM      8  O   UNL d   1      54.134  31.679  54.509  0.00  0.00    -0.266 OA
ATOM      9  C   UNL d   1      53.547  29.931  54.530  0.00  0.00     0.005 A 
ATOM     10  C   UNL d   1      52.662  29.626  53.176  0.00  0.00     0.013 A 
ATOM     11  C   UNL d   1      53.220  29.182  54.407  0.00  0.00     0.000 A 
ATOM     12  C   UNL d   1      52.782  29.031  53.737  0.00  0.00     0.001 A 
ENDROOT
BRANCH   2  13
ATOM     13  C   UNL d   1      53.507  32.410  52.987  0.00  0.00     0.157 C 
BRANCH  13  14
ATOM     14  C   UNL d   1      53.195  33.027  53.421  0.00  0.00     0.298 C 
ATOM     15  N   UNL d   1      53.626  33.732  53.497  0.00  0.00    -0.207 NA
ATOM     16  O   UNL d   1      52.462  32.963  53.782  0.00  0.00    -0.264 OA
BRANCH  15  17
ATOM     17  C   UNL d   1      53.318  34.362  53.934  0.00  0.00     0.085 A 
ATOM     18  C   UNL d   1      52.794  34.871  53.578  0.00  0.00     0.019 A 
ATOM     19  C   UNL d   1      52.486  35.501  54.015  0.00  0.00     0.002 A 
ATOM     20  C   UNL d   1      52.707  35.607  54.794  0.00  0.00     0.000 A 
ATOM     21  C   UNL d   1      53.240  35.086  55.149  0.00  0.00     0.002 A 
ATOM     22  C   UNL d   1      53.543  34.470  54.725  0.00  0.00     0.019 A 
ENDBRANCH  15  17
ENDBRANCH  13  14
ENDBRANCH   2  13
TORSDOF 3
ENDMDL
MODEL 4
REMARK VINA RESULT:      -8.5      2.186      3.919
REMARK  3 active torsions:
REMARK  status: ('A' for Active; 'I' for Inactive)
REMARK    1  A    between atoms: C_6  and  N_2 
REMARK    2  A    between atoms: C_7  and  C_6 
REMARK       I    between atoms: N_11  and  C_7 
REMARK    3  A    between atoms: C_14  and  N_11 
ROOT
ATOM      1  S   UNL d   1      53.055  32.712  53.488  0.00  0.00     0.274 S 
ATOM      2  N   UNL d   1      52.759  33.404  53.176  0.00  0.00    -0.192 N 
ATOM      3  C   UNL d   1      53.045  34.038  53.624  0.00  0.00     0.275 A 
ATOM      4  C   UNL d   1      53.518  33.720  54.211  0.00  0.00     0.069 A 
ATOM      5  C   UNL d   1      53.524  32.910  54.128  0.00  0.00     0.109 A 
ATOM      6  O   UNL d   1      52.560  32.658  52.830  0.00  0.00    -0.200 OA
ATOM      7  O   UNL d   1      53.219  31.905  53.611  0.00  0.00    -0.200 OA
ATOM      8  O   UNL d   1      52.890  34.832  53.510  0.00  0.00    -0.266 OA
ATOM      9  C   UNL d   1      53.948  34.079  54.818  0.00  0.00     0.005 A 
ATOM     10  C   UNL d   1      53.961  32.442  54.649  0.00  0.00     0.013 A 
ATOM     11  C   UNL d   1      54.385  33.611  55.341  0.00  0.00     0.000 A 
ATOM     12  C   UNL d   1      54.392  32.800  55.257  0.00  0.00     0.001 A 
ENDROOT
BRANCH   2  13
ATOM     13  C   UNL d   1      52.255  33.468  52.519  0.00  0.00     0.157 C 
BRANCH  13  14
ATOM     14  C   UNL d   1      51.474  33.682  52.631  0.00  0.00     0.298 C 
ATOM     15  N   UNL d   1      51.128  34.243  52.126  0.00  0.00    -0.207 NA
ATOM     16  O   UNL d   1      51.027  33.353  53.233  0.00  0.00    -0.264 OA
BRANCH  15  17
ATOM     17  C   UNL d   1      50.340  34.465  52.231  0.00  0.00     0.085 A 
ATOM     18  C   UNL d   1      49.799  34.291  51.651  0.00  0.00     0.019 A 
ATOM     19  C   UNL d   1      49.011  34.514  51.756  0.00  0.00     0.002 A 
ATOM     20  C   UNL d   1      48.781  34.904  52.436  0.00  0.00     0.000 A 
ATOM     21  C   UNL d   1      49.337  35.078  53.022  0.00  0.00     0.002 A 
ATOM     22  C   UNL d   1      50.108  34.861  52.922  0.00  0.00     0.019 A 
ENDBRANCH  15  17
ENDBRANCH  13  14
ENDBRANCH   2  13
TORSDOF 3
ENDMDL
