MODEL 1
REMARK VINA RESULT:      59.1      0.000      0.000
REMARK  9 active torsions:
REMARK  status: ('A' for Active; 'I' for Inactive)
REMARK    1  A    between atoms: C_27  and  N_1 
REMARK    2  A    between atoms: S_11  and  C_2 
REMARK    3  A    between atoms: C_28  and  S_11 
REMARK    4  A    between atoms: C_18  and  C_28 
REMARK    5  A    between atoms: C_19  and  C_35 
REMARK       I    between atoms: N_23  and  C_19 
REMARK    6  A    between atoms: C_32  and  N_23 
REMARK    7  A    between atoms: C_34  and  C_27 
REMARK    8  A    between atoms: C_30  and  C_32 
REMARK    9  A    between atoms: C_35  and  C_34 
ROOT
ATOM      1  N   UNL d   1      46.382 -17.436  42.366  0.00  0.00    -0.253 N 
ATOM      2  C   UNL d   1      46.152 -17.842  43.044  0.00  0.00     0.182 A 
ATOM      3  C   UNL d   1      46.373 -16.604  42.362  0.00  0.00     0.268 A 
ATOM      4  C   UNL d   1      46.135 -16.185  43.032  0.00  0.00     0.076 A 
ATOM      5  N   UNL d   1      45.916 -17.410  43.708  0.00  0.00    -0.222 NA
ATOM      6  C   UNL d   1      45.905 -16.591  43.710  0.00  0.00     0.090 A 
ATOM      7  C   UNL d   1      46.127 -15.356  43.025  0.00  0.00     0.033 A 
ATOM      8  C   UNL d   1      45.668 -16.151  44.377  0.00  0.00     0.046 A 
ATOM      9  C   UNL d   1      45.886 -14.920  43.705  0.00  0.00     0.119 A 
ATOM     10  C   UNL d   1      45.656 -15.326  44.383  0.00  0.00     0.121 A 
ATOM     11  O   UNL d   1      46.603 -16.197  41.684  0.00  0.00    -0.267 OA
ATOM     12  O   UNL d   1      45.818 -14.098  43.871  0.00  0.00    -0.300 OA
ATOM     13  O   UNL d   1      45.450 -14.752  44.954  0.00  0.00    -0.299 OA
ATOM     14  C   UNL d   1      45.548 -13.991  44.646  0.00  0.00     0.304 A 
ENDROOT
BRANCH   1  15
ATOM     15  C   UNL d   1      46.623 -17.872  41.687  0.00  0.00     0.085 C 
BRANCH  15  16
ATOM     16  C   UNL d   1      46.059 -18.132  41.159  0.00  0.00     0.024 C 
BRANCH  16  17
ATOM     17  C   UNL d   1      46.085 -17.868  40.373  0.00  0.00     0.064 C 
BRANCH  17  18
ATOM     18  C   UNL d   1      45.740 -18.314  39.773  0.00  0.00     0.279 C 
ATOM     19  N   UNL d   1      45.298 -17.939  39.185  0.00  0.00    -0.206 NA
ATOM     20  O   UNL d   1      45.833 -19.129  39.760  0.00  0.00    -0.265 OA
BRANCH  19  21
ATOM     21  C   UNL d   1      45.203 -17.121  39.198  0.00  0.00     0.102 C 
BRANCH  21  22
ATOM     22  C   UNL d   1      45.060 -16.717  38.496  0.00  0.00     0.021 A 
ATOM     23  C   UNL d   1      45.671 -16.285  38.146  0.00  0.00     0.028 A 
ATOM     24  C   UNL d   1      45.527 -15.883  37.445  0.00  0.00     0.119 A 
ATOM     25  O   UNL d   1      46.014 -15.413  36.971  0.00  0.00    -0.300 OA
ATOM     26  C   UNL d   1      44.783 -15.909  37.095  0.00  0.00     0.119 A 
ATOM     27  C   UNL d   1      45.566 -15.153  36.332  0.00  0.00     0.304 A 
ATOM     28  O   UNL d   1      44.804 -15.459  36.407  0.00  0.00    -0.300 OA
ATOM     29  C   UNL d   1      44.178 -16.343  37.453  0.00  0.00     0.026 A 
ATOM     30  C   UNL d   1      44.319 -16.744  38.149  0.00  0.00     0.004 A 
ENDBRANCH  21  22
ENDBRANCH  19  21
ENDBRANCH  17  18
ENDBRANCH  16  17
ENDBRANCH  15  16
ENDBRANCH   1  15
BRANCH   2  31
ATOM     31  S   UNL d   1      46.167 -18.679  43.032  0.00  0.00    -0.044 SA
BRANCH  31  32
ATOM     32  C   UNL d   1      46.027 -19.098  43.736  0.00  0.00     0.102 C 
BRANCH  32  33
ATOM     33  C   UNL d   1      46.147 -19.916  43.756  0.00  0.00     0.303 C 
ATOM     34  O   UNL d   1      46.429 -20.303  43.087  0.00  0.00    -0.263 OA
ATOM     35  N   UNL d   1      45.983 -20.330  44.446  0.00  0.00    -0.102 N 
ENDBRANCH  32  33
ENDBRANCH  31  32
ENDBRANCH   2  31
TORSDOF 9
ENDMDL
