MODEL 1
REMARK VINA RESULT:      -8.8      0.000      0.000
REMARK  3 active torsions:
REMARK  status: ('A' for Active; 'I' for Inactive)
REMARK    1  A    between atoms: C_5  and  C_3 
REMARK       I    between atoms: N_10  and  C_5 
REMARK    2  A    between atoms: C_13  and  N_10 
REMARK    3  A    between atoms: C_15  and  C_13 
ROOT
ATOM      1  N   UNL d   1      52.671  33.808  53.499  0.00  0.00    -0.254 N 
ATOM      2  C   UNL d   1      52.587  33.017  53.264  0.00  0.00     0.272 A 
ATOM      3  C   UNL d   1      53.200  32.477  53.389  0.00  0.00     0.133 A 
ATOM      4  C   UNL d   1      53.373  34.049  53.859  0.00  0.00     0.182 A 
ATOM      5  N   UNL d   1      53.985  33.514  53.983  0.00  0.00    -0.220 NA
ATOM      6  C   UNL d   1      53.900  32.726  53.749  0.00  0.00     0.111 A 
ATOM      7  S   UNL d   1      53.307  34.854  54.033  0.00  0.00    -0.048 SA
ATOM      8  C   UNL d   1      52.171  34.455  53.450  0.00  0.00     0.075 A 
ATOM      9  C   UNL d   1      52.554  35.102  53.776  0.00  0.00     0.056 A 
ATOM     10  O   UNL d   1      51.884  32.776  52.905  0.00  0.00    -0.266 OA
ATOM     11  C   UNL d   1      51.415  34.460  53.131  0.00  0.00     0.020 C 
ENDROOT
BRANCH   3  12
ATOM     12  C   UNL d   1      53.102  31.690  53.149  0.00  0.00     0.285 C 
ATOM     13  N   UNL d   1      53.211  31.086  53.699  0.00  0.00    -0.208 NA
ATOM     14  O   UNL d   1      52.902  31.513  52.377  0.00  0.00    -0.265 OA
BRANCH  13  15
ATOM     15  C   UNL d   1      53.116  30.301  53.471  0.00  0.00     0.085 C 
ATOM     16  C   UNL d   1      52.909  30.113  52.703  0.00  0.00     0.021 C 
BRANCH  15  17
ATOM     17  C   UNL d   1      53.233  29.704  54.027  0.00  0.00     0.018 A 
ATOM     18  C   UNL d   1      53.708  29.058  53.823  0.00  0.00     0.002 A 
ATOM     19  C   UNL d   1      53.825  28.460  54.379  0.00  0.00     0.000 A 
ATOM     20  C   UNL d   1      53.473  28.500  55.136  0.00  0.00     0.000 A 
ATOM     21  C   UNL d   1      53.000  29.151  55.326  0.00  0.00     0.000 A 
ATOM     22  C   UNL d   1      52.877  29.755  54.777  0.00  0.00     0.002 A 
ENDBRANCH  15  17
ENDBRANCH  13  15
ENDBRANCH   3  12
TORSDOF 3
ENDMDL
MODEL 2
REMARK VINA RESULT:      -8.0      1.415      4.436
REMARK  3 active torsions:
REMARK  status: ('A' for Active; 'I' for Inactive)
REMARK    1  A    between atoms: C_5  and  C_3 
REMARK       I    between atoms: N_10  and  C_5 
REMARK    2  A    between atoms: C_13  and  N_10 
REMARK    3  A    between atoms: C_15  and  C_13 
ROOT
ATOM      1  N   UNL d   1      53.163  30.848  53.467  0.00  0.00    -0.254 N 
ATOM      2  C   UNL d   1      53.009  31.586  53.122  0.00  0.00     0.272 A 
ATOM      3  C   UNL d   1      53.154  32.283  53.544  0.00  0.00     0.133 A 
ATOM      4  C   UNL d   1      53.463  30.816  54.235  0.00  0.00     0.182 A 
ATOM      5  N   UNL d   1      53.609  31.507  54.656  0.00  0.00    -0.220 NA
ATOM      6  C   UNL d   1      53.455  32.243  54.311  0.00  0.00     0.111 A 
ATOM      7  S   UNL d   1      53.564  30.022  54.436  0.00  0.00    -0.048 SA
ATOM      8  C   UNL d   1      53.077  30.082  53.192  0.00  0.00     0.075 A 
ATOM      9  C   UNL d   1      53.321  29.567  53.782  0.00  0.00     0.056 A 
ATOM     10  O   UNL d   1      52.708  31.618  52.354  0.00  0.00    -0.266 OA
ATOM     11  C   UNL d   1      52.795  29.861  52.454  0.00  0.00     0.020 C 
ENDROOT
BRANCH   3  12
ATOM     12  C   UNL d   1      52.995  33.014  53.187  0.00  0.00     0.285 C 
ATOM     13  N   UNL d   1      52.249  33.350  53.277  0.00  0.00    -0.208 NA
ATOM     14  O   UNL d   1      53.571  33.397  52.752  0.00  0.00    -0.265 OA
BRANCH  13  15
ATOM     15  C   UNL d   1      52.081  34.075  52.927  0.00  0.00     0.085 C 
ATOM     16  C   UNL d   1      52.672  34.626  52.804  0.00  0.00     0.021 C 
BRANCH  15  17
ATOM     17  C   UNL d   1      51.306  34.242  52.699  0.00  0.00     0.018 A 
ATOM     18  C   UNL d   1      50.753  34.439  53.283  0.00  0.00     0.002 A 
ATOM     19  C   UNL d   1      49.978  34.606  53.055  0.00  0.00     0.000 A 
ATOM     20  C   UNL d   1      49.749  34.579  52.252  0.00  0.00     0.000 A 
ATOM     21  C   UNL d   1      50.312  34.381  51.680  0.00  0.00     0.000 A 
ATOM     22  C   UNL d   1      51.090  34.212  51.896  0.00  0.00     0.002 A 
ENDBRANCH  15  17
ENDBRANCH  13  15
ENDBRANCH   3  12
TORSDOF 3
ENDMDL
MODEL 3
REMARK VINA RESULT:      -7.6      1.667      4.525
REMARK  3 active torsions:
REMARK  status: ('A' for Active; 'I' for Inactive)
REMARK    1  A    between atoms: C_5  and  C_3 
REMARK       I    between atoms: N_10  and  C_5 
REMARK    2  A    between atoms: C_13  and  N_10 
REMARK    3  A    between atoms: C_15  and  C_13 
ROOT
ATOM      1  N   UNL d   1      53.177  30.277  53.671  0.00  0.00    -0.254 N 
ATOM      2  C   UNL d   1      53.580  30.953  53.934  0.00  0.00     0.272 A 
ATOM      3  C   UNL d   1      53.564  31.649  53.488  0.00  0.00     0.133 A 
ATOM      4  C   UNL d   1      52.762  30.307  52.960  0.00  0.00     0.182 A 
ATOM      5  N   UNL d   1      52.745  30.998  52.513  0.00  0.00    -0.220 NA
ATOM      6  C   UNL d   1      53.146  31.672  52.777  0.00  0.00     0.111 A 
ATOM      7  S   UNL d   1      52.418  29.567  52.834  0.00  0.00    -0.048 SA
ATOM      8  C   UNL d   1      53.094  29.527  53.986  0.00  0.00     0.075 A 
ATOM      9  C   UNL d   1      52.629  29.083  53.478  0.00  0.00     0.056 A 
ATOM     10  O   UNL d   1      53.996  30.923  54.646  0.00  0.00    -0.266 OA
ATOM     11  C   UNL d   1      53.419  29.258  54.691  0.00  0.00     0.020 C 
ENDROOT
BRANCH   3  12
ATOM     12  C   UNL d   1      53.971  32.317  53.763  0.00  0.00     0.285 C 
ATOM     13  N   UNL d   1      53.542  32.958  54.050  0.00  0.00    -0.208 NA
ATOM     14  O   UNL d   1      54.788  32.340  53.751  0.00  0.00    -0.265 OA
BRANCH  13  15
ATOM     15  C   UNL d   1      53.936  33.626  54.325  0.00  0.00     0.085 C 
ATOM     16  C   UNL d   1      54.732  33.594  54.508  0.00  0.00     0.021 C 
BRANCH  15  17
ATOM     17  C   UNL d   1      53.518  34.332  54.415  0.00  0.00     0.018 A 
ATOM     18  C   UNL d   1      53.429  34.647  55.175  0.00  0.00     0.002 A 
ATOM     19  C   UNL d   1      53.011  35.352  55.265  0.00  0.00     0.000 A 
ATOM     20  C   UNL d   1      52.683  35.746  54.606  0.00  0.00     0.000 A 
ATOM     21  C   UNL d   1      52.780  35.420  53.852  0.00  0.00     0.000 A 
ATOM     22  C   UNL d   1      53.196  34.715  53.751  0.00  0.00     0.002 A 
ENDBRANCH  15  17
ENDBRANCH  13  15
ENDBRANCH   3  12
TORSDOF 3
ENDMDL
MODEL 4
REMARK VINA RESULT:      -7.6      2.153      3.258
REMARK  3 active torsions:
REMARK  status: ('A' for Active; 'I' for Inactive)
REMARK    1  A    between atoms: C_5  and  C_3 
REMARK       I    between atoms: N_10  and  C_5 
REMARK    2  A    between atoms: C_13  and  N_10 
REMARK    3  A    between atoms: C_15  and  C_13 
ROOT
ATOM      1  N   UNL d   1      50.797  33.987  52.301  0.00  0.00    -0.254 N 
ATOM      2  C   UNL d   1      51.518  33.591  52.404  0.00  0.00     0.272 A 
ATOM      3  C   UNL d   1      51.688  33.211  53.119  0.00  0.00     0.133 A 
ATOM      4  C   UNL d   1      50.250  33.996  52.919  0.00  0.00     0.182 A 
ATOM      5  N   UNL d   1      50.417  33.619  53.631  0.00  0.00    -0.220 NA
ATOM      6  C   UNL d   1      51.137  33.225  53.733  0.00  0.00     0.111 A 
ATOM      7  S   UNL d   1      49.590  34.424  52.668  0.00  0.00    -0.048 SA
ATOM      8  C   UNL d   1      50.481  34.403  51.671  0.00  0.00     0.075 A 
ATOM      9  C   UNL d   1      49.738  34.675  51.888  0.00  0.00     0.056 A 
ATOM     10  O   UNL d   1      52.065  33.581  51.786  0.00  0.00    -0.266 OA
ATOM     11  C   UNL d   1      50.840  34.529  50.944  0.00  0.00     0.020 C 
ENDROOT
BRANCH   3  12
ATOM     12  C   UNL d   1      52.413  32.819  53.208  0.00  0.00     0.285 C 
ATOM     13  N   UNL d   1      52.920  33.047  53.816  0.00  0.00    -0.208 NA
ATOM     14  O   UNL d   1      52.624  32.215  52.700  0.00  0.00    -0.265 OA
BRANCH  13  15
ATOM     15  C   UNL d   1      53.642  32.665  53.913  0.00  0.00     0.085 C 
ATOM     16  C   UNL d   1      53.775  31.932  53.575  0.00  0.00     0.021 C 
BRANCH  15  17
ATOM     17  C   UNL d   1      54.234  33.030  54.357  0.00  0.00     0.018 A 
ATOM     18  C   UNL d   1      54.157  33.050  55.181  0.00  0.00     0.002 A 
ATOM     19  C   UNL d   1      54.749  33.414  55.625  0.00  0.00     0.000 A 
ATOM     20  C   UNL d   1      55.415  33.758  55.257  0.00  0.00     0.000 A 
ATOM     21  C   UNL d   1      55.478  33.731  54.433  0.00  0.00     0.000 A 
ATOM     22  C   UNL d   1      54.892  33.369  53.979  0.00  0.00     0.002 A 
ENDBRANCH  15  17
ENDBRANCH  13  15
ENDBRANCH   3  12
TORSDOF 3
ENDMDL
MODEL 5
REMARK VINA RESULT:      -7.5      1.872      4.739
REMARK  3 active torsions:
REMARK  status: ('A' for Active; 'I' for Inactive)
REMARK    1  A    between atoms: C_5  and  C_3 
REMARK       I    between atoms: N_10  and  C_5 
REMARK    2  A    between atoms: C_13  and  N_10 
REMARK    3  A    between atoms: C_15  and  C_13 
ROOT
ATOM      1  N   UNL d   1      53.219  33.317  53.960  0.00  0.00    -0.254 N 
ATOM      2  C   UNL d   1      52.629  33.372  53.380  0.00  0.00     0.272 A 
ATOM      3  C   UNL d   1      52.263  34.097  53.224  0.00  0.00     0.133 A 
ATOM      4  C   UNL d   1      53.437  33.994  54.379  0.00  0.00     0.182 A 
ATOM      5  N   UNL d   1      53.075  34.716  54.225  0.00  0.00    -0.220 NA
ATOM      6  C   UNL d   1      52.487  34.769  53.646  0.00  0.00     0.111 A 
ATOM      7  S   UNL d   1      54.029  33.782  54.914  0.00  0.00    -0.048 SA
ATOM      8  C   UNL d   1      53.670  32.690  54.231  0.00  0.00     0.075 A 
ATOM      9  C   UNL d   1      54.171  32.967  54.818  0.00  0.00     0.056 A 
ATOM     10  O   UNL d   1      52.411  32.695  52.962  0.00  0.00    -0.266 OA
ATOM     11  C   UNL d   1      53.631  31.914  53.965  0.00  0.00     0.020 C 
ENDROOT
BRANCH   3  12
ATOM     12  C   UNL d   1      51.674  34.137  52.641  0.00  0.00     0.285 C 
ATOM     13  N   UNL d   1      50.914  34.371  52.855  0.00  0.00    -0.208 NA
ATOM     14  O   UNL d   1      51.845  33.947  51.865  0.00  0.00    -0.265 OA
BRANCH  13  15
ATOM     15  C   UNL d   1      50.323  34.414  52.285  0.00  0.00     0.085 C 
ATOM     16  C   UNL d   1      50.430  34.078  51.547  0.00  0.00     0.021 C 
BRANCH  15  17
ATOM     17  C   UNL d   1      49.617  34.800  52.465  0.00  0.00     0.018 A 
ATOM     18  C   UNL d   1      49.023  34.833  51.889  0.00  0.00     0.002 A 
ATOM     19  C   UNL d   1      48.317  35.220  52.070  0.00  0.00     0.000 A 
ATOM     20  C   UNL d   1      48.197  35.573  52.817  0.00  0.00     0.000 A 
ATOM     21  C   UNL d   1      48.799  35.532  53.383  0.00  0.00     0.000 A 
ATOM     22  C   UNL d   1      49.509  35.148  53.213  0.00  0.00     0.002 A 
ENDBRANCH  15  17
ENDBRANCH  13  15
ENDBRANCH   3  12
TORSDOF 3
ENDMDL
MODEL 6
REMARK VINA RESULT:      -7.0      1.732      2.753
REMARK  3 active torsions:
REMARK  status: ('A' for Active; 'I' for Inactive)
REMARK    1  A    between atoms: C_5  and  C_3 
REMARK       I    between atoms: N_10  and  C_5 
REMARK    2  A    between atoms: C_13  and  N_10 
REMARK    3  A    between atoms: C_15  and  C_13 
ROOT
ATOM      1  N   UNL d   1      50.316  34.340  52.225  0.00  0.00    -0.254 N 
ATOM      2  C   UNL d   1      51.077  34.013  52.251  0.00  0.00     0.272 A 
ATOM      3  C   UNL d   1      51.450  33.879  52.976  0.00  0.00     0.133 A 
ATOM      4  C   UNL d   1      49.935  34.530  52.932  0.00  0.00     0.182 A 
ATOM      5  N   UNL d   1      50.304  34.397  53.655  0.00  0.00    -0.220 NA
ATOM      6  C   UNL d   1      51.063  34.071  53.679  0.00  0.00     0.111 A 
ATOM      7  S   UNL d   1      49.193  34.842  52.746  0.00  0.00    -0.048 SA
ATOM      8  C   UNL d   1      49.818  34.532  51.605  0.00  0.00     0.075 A 
ATOM      9  C   UNL d   1      49.125  34.842  51.916  0.00  0.00     0.056 A 
ATOM     10  O   UNL d   1      51.458  33.824  51.544  0.00  0.00    -0.266 OA
ATOM     11  C   UNL d   1      49.979  34.434  50.806  0.00  0.00     0.020 C 
ENDROOT
BRANCH   3  12
ATOM     12  C   UNL d   1      52.212  33.551  52.986  0.00  0.00     0.285 C 
ATOM     13  N   UNL d   1      52.305  32.758  53.186  0.00  0.00    -0.208 NA
ATOM     14  O   UNL d   1      52.863  34.009  52.801  0.00  0.00    -0.265 OA
BRANCH  13  15
ATOM     15  C   UNL d   1      53.056  32.423  53.199  0.00  0.00     0.085 C 
ATOM     16  C   UNL d   1      53.721  32.888  53.102  0.00  0.00     0.021 C 
BRANCH  15  17
ATOM     17  C   UNL d   1      53.133  31.609  53.311  0.00  0.00     0.018 A 
ATOM     18  C   UNL d   1      53.562  31.336  53.963  0.00  0.00     0.002 A 
ATOM     19  C   UNL d   1      53.639  30.522  54.075  0.00  0.00     0.000 A 
ATOM     20  C   UNL d   1      53.292  29.979  53.544  0.00  0.00     0.000 A 
ATOM     21  C   UNL d   1      52.865  30.266  52.896  0.00  0.00     0.000 A 
ATOM     22  C   UNL d   1      52.782  31.078  52.775  0.00  0.00     0.002 A 
ENDBRANCH  15  17
ENDBRANCH  13  15
ENDBRANCH   3  12
TORSDOF 3
ENDMDL
MODEL 7
REMARK VINA RESULT:      -6.7      3.629      5.478
REMARK  3 active torsions:
REMARK  status: ('A' for Active; 'I' for Inactive)
REMARK    1  A    between atoms: C_5  and  C_3 
REMARK       I    between atoms: N_10  and  C_5 
REMARK    2  A    between atoms: C_13  and  N_10 
REMARK    3  A    between atoms: C_15  and  C_13 
ROOT
ATOM      1  N   UNL d   1      47.477  35.932  52.489  0.00  0.00    -0.254 N 
ATOM      2  C   UNL d   1      48.097  35.473  52.184  0.00  0.00     0.272 A 
ATOM      3  C   UNL d   1      48.767  35.317  52.643  0.00  0.00     0.133 A 
ATOM      4  C   UNL d   1      47.537  36.230  53.256  0.00  0.00     0.182 A 
ATOM      5  N   UNL d   1      48.202  36.076  53.715  0.00  0.00    -0.220 NA
ATOM      6  C   UNL d   1      48.820  35.619  53.409  0.00  0.00     0.111 A 
ATOM      7  S   UNL d   1      46.851  36.661  53.416  0.00  0.00    -0.048 SA
ATOM      8  C   UNL d   1      46.762  36.174  52.174  0.00  0.00     0.075 A 
ATOM      9  C   UNL d   1      46.370  36.623  52.737  0.00  0.00     0.056 A 
ATOM     10  O   UNL d   1      48.038  35.175  51.417  0.00  0.00    -0.266 OA
ATOM     11  C   UNL d   1      46.480  36.000  51.423  0.00  0.00     0.020 C 
ENDROOT
BRANCH   3  12
ATOM     12  C   UNL d   1      49.379  34.858  52.324  0.00  0.00     0.285 C 
ATOM     13  N   UNL d   1      50.079  34.771  52.749  0.00  0.00    -0.208 NA
ATOM     14  O   UNL d   1      49.290  34.494  51.598  0.00  0.00    -0.265 OA
BRANCH  13  15
ATOM     15  C   UNL d   1      50.693  34.317  52.442  0.00  0.00     0.085 C 
ATOM     16  C   UNL d   1      50.648  34.015  51.684  0.00  0.00     0.021 C 
BRANCH  15  17
ATOM     17  C   UNL d   1      51.356  34.169  52.909  0.00  0.00     0.018 A 
ATOM     18  C   UNL d   1      51.410  33.444  53.304  0.00  0.00     0.002 A 
ATOM     19  C   UNL d   1      52.074  33.295  53.771  0.00  0.00     0.000 A 
ATOM     20  C   UNL d   1      52.683  33.860  53.848  0.00  0.00     0.000 A 
ATOM     21  C   UNL d   1      52.616  34.581  53.447  0.00  0.00     0.000 A 
ATOM     22  C   UNL d   1      51.957  34.740  52.977  0.00  0.00     0.002 A 
ENDBRANCH  15  17
ENDBRANCH  13  15
ENDBRANCH   3  12
TORSDOF 3
ENDMDL
