MODEL 1
REMARK VINA RESULT:      -4.8      0.000      0.000
REMARK  3 active torsions:
REMARK  status: ('A' for Active; 'I' for Inactive)
REMARK    1  A    between atoms: N_2  and  S_1 
REMARK    2  A    between atoms: C_4  and  S_1 
REMARK    3  A    between atoms: C_3  and  N_2 
ROOT
ATOM      1  S   UNL d   1      57.382  -0.129  30.671  0.00  0.00     0.285 S 
ATOM      2  O   UNL d   1      57.551  -0.935  30.757  0.00  0.00    -0.198 OA
ATOM      3  O   UNL d   1      57.211   0.682  30.586  0.00  0.00    -0.198 OA
ENDROOT
BRANCH   1   4
ATOM      4  N   UNL d   1      57.783  -0.121  29.941  0.00  0.00    -0.158 NA
BRANCH   4   5
ATOM      5  C   UNL d   1      58.610  -0.086  29.928  0.00  0.00     0.094 A 
ATOM      6  C   UNL d   1      59.036   0.278  30.537  0.00  0.00     0.023 A 
ATOM      7  C   UNL d   1      59.849   0.310  30.519  0.00  0.00     0.041 A 
ATOM      8  C   UNL d   1      60.237   0.680  31.141  0.00  0.00     0.003 C 
ATOM      9  C   UNL d   1      60.270  -0.034  29.869  0.00  0.00     0.196 A 
ATOM     10  C   UNL d   1      59.843  -0.398  29.261  0.00  0.00     0.044 A 
ATOM     11  O   UNL d   1      61.098   0.001  29.856  0.00  0.00    -0.287 OA
ATOM     12  C   UNL d   1      59.025  -0.420  29.297  0.00  0.00     0.022 A 
ATOM     13  C   UNL d   1      58.617  -0.783  28.689  0.00  0.00     0.002 C 
ENDBRANCH   4   5
ENDBRANCH   1   4
BRANCH   1  14
ATOM     14  C   UNL d   1      56.979  -0.133  31.401  0.00  0.00     0.105 A 
ATOM     15  C   UNL d   1      56.776  -0.849  31.737  0.00  0.00     0.013 A 
ATOM     16  C   UNL d   1      56.387  -0.862  32.444  0.00  0.00     0.001 A 
ATOM     17  C   UNL d   1      56.187  -0.142  32.840  0.00  0.00     0.000 A 
ATOM     18  C   UNL d   1      56.394   0.577  32.498  0.00  0.00     0.001 A 
ATOM     19  C   UNL d   1      55.777  -0.131  33.585  0.00  0.00     0.000 C 
ATOM     20  C   UNL d   1      56.795   0.580  31.771  0.00  0.00     0.013 A 
ENDBRANCH   1  14
TORSDOF 3
ENDMDL
MODEL 2
REMARK VINA RESULT:      -4.4      0.921      1.603
REMARK  3 active torsions:
REMARK  status: ('A' for Active; 'I' for Inactive)
REMARK    1  A    between atoms: N_2  and  S_1 
REMARK    2  A    between atoms: C_4  and  S_1 
REMARK    3  A    between atoms: C_3  and  N_2 
ROOT
ATOM      1  S   UNL d   1      57.857   0.242  30.728  0.00  0.00     0.285 S 
ATOM      2  O   UNL d   1      57.215   0.152  30.213  0.00  0.00    -0.198 OA
ATOM      3  O   UNL d   1      58.502   0.332  31.247  0.00  0.00    -0.198 OA
ENDROOT
BRANCH   1   4
ATOM      4  N   UNL d   1      58.355   0.404  30.081  0.00  0.00    -0.158 NA
BRANCH   4   5
ATOM      5  C   UNL d   1      58.820  -0.201  29.759  0.00  0.00     0.094 A 
ATOM      6  C   UNL d   1      58.509  -0.956  29.619  0.00  0.00     0.023 A 
ATOM      7  C   UNL d   1      58.969  -1.547  29.302  0.00  0.00     0.041 A 
ATOM      8  C   UNL d   1      58.625  -2.282  29.177  0.00  0.00     0.003 C 
ATOM      9  C   UNL d   1      59.780  -1.394  29.112  0.00  0.00     0.196 A 
ATOM     10  C   UNL d   1      60.090  -0.640  29.252  0.00  0.00     0.044 A 
ATOM     11  O   UNL d   1      60.245  -2.000  28.790  0.00  0.00    -0.287 OA
ATOM     12  C   UNL d   1      59.610  -0.057  29.572  0.00  0.00     0.022 A 
ATOM     13  C   UNL d   1      59.931   0.682  29.705  0.00  0.00     0.002 C 
ENDBRANCH   4   5
ENDBRANCH   1   4
BRANCH   1  14
ATOM     14  C   UNL d   1      57.361   0.080  31.379  0.00  0.00     0.105 A 
ATOM     15  C   UNL d   1      57.232   0.666  31.933  0.00  0.00     0.013 A 
ATOM     16  C   UNL d   1      56.753   0.518  32.565  0.00  0.00     0.001 A 
ATOM     17  C   UNL d   1      56.384  -0.237  32.661  0.00  0.00     0.000 A 
ATOM     18  C   UNL d   1      56.518  -0.824  32.100  0.00  0.00     0.001 A 
ATOM     19  C   UNL d   1      55.877  -0.415  33.319  0.00  0.00     0.000 C 
ATOM     20  C   UNL d   1      57.012  -0.662  31.453  0.00  0.00     0.013 A 
ENDBRANCH   1  14
TORSDOF 3
ENDMDL
MODEL 3
REMARK VINA RESULT:      -3.1      1.544      3.984
REMARK  3 active torsions:
REMARK  status: ('A' for Active; 'I' for Inactive)
REMARK    1  A    between atoms: N_2  and  S_1 
REMARK    2  A    between atoms: C_4  and  S_1 
REMARK    3  A    between atoms: C_3  and  N_2 
ROOT
ATOM      1  S   UNL d   1      56.881  -0.326  31.409  0.00  0.00     0.285 S 
ATOM      2  O   UNL d   1      56.917   0.490  31.271  0.00  0.00    -0.198 OA
ATOM      3  O   UNL d   1      56.846  -1.147  31.547  0.00  0.00    -0.198 OA
ENDROOT
BRANCH   1   4
ATOM      4  N   UNL d   1      56.284  -0.205  31.976  0.00  0.00    -0.158 NA
BRANCH   4   5
ATOM      5  C   UNL d   1      56.489   0.016  32.747  0.00  0.00     0.094 A 
ATOM      6  C   UNL d   1      57.261   0.245  32.939  0.00  0.00     0.023 A 
ATOM      7  C   UNL d   1      57.458   0.462  33.698  0.00  0.00     0.041 A 
ATOM      8  C   UNL d   1      58.234   0.682  33.850  0.00  0.00     0.003 C 
ATOM      9  C   UNL d   1      56.867   0.455  34.305  0.00  0.00     0.196 A 
ATOM     10  C   UNL d   1      56.095   0.227  34.112  0.00  0.00     0.044 A 
ATOM     11  O   UNL d   1      57.072   0.677  35.077  0.00  0.00    -0.287 OA
ATOM     12  C   UNL d   1      55.917   0.012  33.342  0.00  0.00     0.022 A 
ATOM     13  C   UNL d   1      55.151  -0.211  33.167  0.00  0.00     0.002 C 
ENDBRANCH   4   5
ENDBRANCH   1   4
BRANCH   1  14
ATOM     14  C   UNL d   1      57.479  -0.451  30.841  0.00  0.00     0.105 A 
ATOM     15  C   UNL d   1      57.763   0.187  30.418  0.00  0.00     0.013 A 
ATOM     16  C   UNL d   1      58.341   0.075  29.867  0.00  0.00     0.001 A 
ATOM     17  C   UNL d   1      58.657  -0.696  29.723  0.00  0.00     0.000 A 
ATOM     18  C   UNL d   1      58.368  -1.336  30.152  0.00  0.00     0.001 A 
ATOM     19  C   UNL d   1      59.266  -0.838  29.148  0.00  0.00     0.000 C 
ATOM     20  C   UNL d   1      57.773  -1.211  30.717  0.00  0.00     0.013 A 
ENDBRANCH   1  14
TORSDOF 3
ENDMDL
MODEL 4
REMARK VINA RESULT:      -2.8      9.346      9.845
REMARK  3 active torsions:
REMARK  status: ('A' for Active; 'I' for Inactive)
REMARK    1  A    between atoms: N_2  and  S_1 
REMARK    2  A    between atoms: C_4  and  S_1 
REMARK    3  A    between atoms: C_3  and  N_2 
ROOT
ATOM      1  S   UNL d   1      59.483  -9.269  34.160  0.00  0.00     0.285 S 
ATOM      2  O   UNL d   1      60.095  -9.818  34.258  0.00  0.00    -0.198 OA
ATOM      3  O   UNL d   1      58.867  -8.717  34.061  0.00  0.00    -0.198 OA
ENDROOT
BRANCH   1   4
ATOM      4  N   UNL d   1      59.096  -9.792  33.640  0.00  0.00    -0.158 NA
BRANCH   4   5
ATOM      5  C   UNL d   1      59.292  -9.792  32.836  0.00  0.00     0.094 A 
ATOM      6  C   UNL d   1      60.081  -9.783  32.584  0.00  0.00     0.023 A 
ATOM      7  C   UNL d   1      60.270  -9.782  31.793  0.00  0.00     0.041 A 
ATOM      8  C   UNL d   1      61.063  -9.773  31.582  0.00  0.00     0.003 C 
ATOM      9  C   UNL d   1      59.652  -9.791  31.213  0.00  0.00     0.196 A 
ATOM     10  C   UNL d   1      58.864  -9.801  31.465  0.00  0.00     0.044 A 
ATOM     11  O   UNL d   1      59.849  -9.791  30.408  0.00  0.00    -0.287 OA
ATOM     12  C   UNL d   1      58.695  -9.801  32.267  0.00  0.00     0.022 A 
ATOM     13  C   UNL d   1      57.912  -9.810  32.500  0.00  0.00     0.002 C 
ENDBRANCH   4   5
ENDBRANCH   1   4
BRANCH   1  14
ATOM     14  C   UNL d   1      59.867  -8.743  34.680  0.00  0.00     0.105 A 
ATOM     15  C   UNL d   1      59.436  -8.141  35.024  0.00  0.00     0.013 A 
ATOM     16  C   UNL d   1      59.800  -7.627  35.528  0.00  0.00     0.001 A 
ATOM     17  C   UNL d   1      60.624  -7.706  35.704  0.00  0.00     0.000 A 
ATOM     18  C   UNL d   1      61.054  -8.314  35.355  0.00  0.00     0.001 A 
ATOM     19  C   UNL d   1      61.028  -7.177  36.232  0.00  0.00     0.000 C 
ATOM     20  C   UNL d   1      60.670  -8.838  34.838  0.00  0.00     0.013 A 
ENDBRANCH   1  14
TORSDOF 3
ENDMDL
