MODEL 1
REMARK VINA RESULT:      -2.2      0.000      0.000
REMARK  5 active torsions:
REMARK  status: ('A' for Active; 'I' for Inactive)
REMARK    1  A    between atoms: C_2  and  S_1 
REMARK    2  A    between atoms: N_3  and  S_1 
REMARK    3  A    between atoms: C_5  and  N_3 
REMARK    4  A    between atoms: C_14  and  C_9 
REMARK    5  A    between atoms: O_18  and  C_10 
ROOT
ATOM      1  C   UNL d   1      31.919  17.240 -24.427  0.00  0.00     0.128 A 
ATOM      2  C   UNL d   1      31.143  17.497 -24.288  0.00  0.00     0.015 A 
ATOM      3  C   UNL d   1      30.507  17.010 -24.489  0.00  0.00     0.001 A 
ATOM      4  C   UNL d   1      32.049  16.495 -24.767  0.00  0.00     0.106 A 
ATOM      5  C   UNL d   1      30.640  16.276 -24.824  0.00  0.00     0.002 A 
ATOM      6  C   UNL d   1      31.409  16.014 -24.965  0.00  0.00     0.025 A 
ENDROOT
BRANCH   1   7
ATOM      7  S   UNL d   1      32.559  17.721 -24.229  0.00  0.00     0.288 S 
ATOM      8  O   UNL d   1      32.376  18.222 -24.859  0.00  0.00    -0.198 OA
ATOM      9  O   UNL d   1      32.735  17.216 -23.602  0.00  0.00    -0.198 OA
BRANCH   7  10
ATOM     10  N   UNL d   1      33.200  18.198 -24.027  0.00  0.00    -0.139 NA
BRANCH  10  11
ATOM     11  C   UNL d   1      33.109  18.775 -23.446  0.00  0.00     0.175 A 
ATOM     12  N   UNL d   1      32.960  19.557 -23.661  0.00  0.00    -0.224 NA
ATOM     13  C   UNL d   1      32.868  20.136 -23.089  0.00  0.00     0.112 A 
ATOM     14  C   UNL d   1      32.924  19.939 -22.289  0.00  0.00     0.077 A 
ATOM     15  C   UNL d   1      33.072  19.156 -22.073  0.00  0.00     0.016 A 
ATOM     16 CL   UNL d   1      32.832  20.514 -21.712  0.00  0.00    -0.081 Cl
ATOM     17  C   UNL d   1      33.165  18.575 -22.644  0.00  0.00     0.041 A 
ENDBRANCH  10  11
ENDBRANCH   7  10
ENDBRANCH   1   7
BRANCH   4  18
ATOM     18  O   UNL d   1      32.816  16.241 -24.904  0.00  0.00    -0.327 OA
ATOM     19  C   UNL d   1      32.963  15.453 -25.097  0.00  0.00     0.181 C 
ENDBRANCH   4  18
BRANCH   3  20
ATOM     20  C   UNL d   1      29.733  17.273 -24.347  0.00  0.00     0.000 C 
ATOM     21  C   UNL d   1      29.340  17.729 -24.907  0.00  0.00     0.000 C 
ATOM     22  C   UNL d   1      29.357  17.074 -23.640  0.00  0.00     0.000 C 
ENDBRANCH   3  20
TORSDOF 5
ENDMDL
MODEL 2
REMARK VINA RESULT:      -2.0      2.045      3.624
REMARK  5 active torsions:
REMARK  status: ('A' for Active; 'I' for Inactive)
REMARK    1  A    between atoms: C_2  and  S_1 
REMARK    2  A    between atoms: N_3  and  S_1 
REMARK    3  A    between atoms: C_5  and  N_3 
REMARK    4  A    between atoms: C_14  and  C_9 
REMARK    5  A    between atoms: O_18  and  C_10 
ROOT
ATOM      1  C   UNL d   1      31.911  17.195 -23.833  0.00  0.00     0.128 A 
ATOM      2  C   UNL d   1      31.937  18.000 -23.639  0.00  0.00     0.015 A 
ATOM      3  C   UNL d   1      32.605  18.311 -23.267  0.00  0.00     0.001 A 
ATOM      4  C   UNL d   1      32.557  16.708 -23.652  0.00  0.00     0.106 A 
ATOM      5  C   UNL d   1      33.241  17.827 -23.090  0.00  0.00     0.002 A 
ATOM      6  C   UNL d   1      33.221  17.026 -23.280  0.00  0.00     0.025 A 
ENDROOT
BRANCH   1   7
ATOM      7  S   UNL d   1      31.246  16.877 -24.205  0.00  0.00     0.288 S 
ATOM      8  O   UNL d   1      31.417  17.315 -24.883  0.00  0.00    -0.198 OA
ATOM      9  O   UNL d   1      31.082  16.443 -23.524  0.00  0.00    -0.198 OA
BRANCH   7  10
ATOM     10  N   UNL d   1      30.581  16.556 -24.571  0.00  0.00    -0.139 NA
BRANCH  10  11
ATOM     11  C   UNL d   1      29.839  16.661 -24.227  0.00  0.00     0.175 A 
ATOM     12  N   UNL d   1      29.568  16.127 -23.661  0.00  0.00    -0.224 NA
ATOM     13  C   UNL d   1      28.832  16.226 -23.315  0.00  0.00     0.112 A 
ATOM     14  C   UNL d   1      28.354  16.863 -23.533  0.00  0.00     0.077 A 
ATOM     15  C   UNL d   1      28.626  17.397 -24.100  0.00  0.00     0.016 A 
ATOM     16 CL   UNL d   1      27.616  16.967 -23.191  0.00  0.00    -0.081 Cl
ATOM     17  C   UNL d   1      29.363  17.301 -24.448  0.00  0.00     0.041 A 
ENDBRANCH  10  11
ENDBRANCH   7  10
ENDBRANCH   1   7
BRANCH   4  18
ATOM     18  O   UNL d   1      32.531  15.912 -23.845  0.00  0.00    -0.327 OA
ATOM     19  C   UNL d   1      33.215  15.453 -23.801  0.00  0.00     0.181 C 
ENDBRANCH   4  18
BRANCH   3  20
ATOM     20  C   UNL d   1      32.626  19.118 -23.074  0.00  0.00     0.000 C 
ATOM     21  C   UNL d   1      32.833  19.675 -23.641  0.00  0.00     0.000 C 
ATOM     22  C   UNL d   1      32.438  19.360 -22.308  0.00  0.00     0.000 C 
ENDBRANCH   3  20
TORSDOF 5
ENDMDL
MODEL 3
REMARK VINA RESULT:       0.4      1.732      4.103
REMARK  5 active torsions:
REMARK  status: ('A' for Active; 'I' for Inactive)
REMARK    1  A    between atoms: C_2  and  S_1 
REMARK    2  A    between atoms: N_3  and  S_1 
REMARK    3  A    between atoms: C_5  and  N_3 
REMARK    4  A    between atoms: C_14  and  C_9 
REMARK    5  A    between atoms: O_18  and  C_10 
ROOT
ATOM      1  C   UNL d   1      32.889  19.689 -23.516  0.00  0.00     0.128 A 
ATOM      2  C   UNL d   1      32.884  19.618 -22.690  0.00  0.00     0.015 A 
ATOM      3  C   UNL d   1      33.040  20.279 -22.220  0.00  0.00     0.001 A 
ATOM      4  C   UNL d   1      33.051  20.424 -23.863  0.00  0.00     0.106 A 
ATOM      5  C   UNL d   1      33.199  21.002 -22.566  0.00  0.00     0.002 A 
ATOM      6  C   UNL d   1      33.206  21.080 -23.387  0.00  0.00     0.025 A 
ENDROOT
BRANCH   1   7
ATOM      7  S   UNL d   1      32.734  19.033 -23.992  0.00  0.00     0.288 S 
ATOM      8  O   UNL d   1      33.205  18.566 -23.500  0.00  0.00    -0.198 OA
ATOM      9  O   UNL d   1      32.266  19.506 -24.477  0.00  0.00    -0.198 OA
BRANCH   7  10
ATOM     10  N   UNL d   1      32.576  18.382 -24.471  0.00  0.00    -0.139 NA
BRANCH  10  11
ATOM     11  C   UNL d   1      31.985  17.851 -24.251  0.00  0.00     0.175 A 
ATOM     12  N   UNL d   1      32.125  17.303 -23.652  0.00  0.00    -0.224 NA
ATOM     13  C   UNL d   1      31.543  16.772 -23.428  0.00  0.00     0.112 A 
ATOM     14  C   UNL d   1      30.807  16.783 -23.804  0.00  0.00     0.077 A 
ATOM     15  C   UNL d   1      30.667  17.331 -24.404  0.00  0.00     0.016 A 
ATOM     16 CL   UNL d   1      30.220  16.254 -23.584  0.00  0.00    -0.081 Cl
ATOM     17  C   UNL d   1      31.249  17.864 -24.630  0.00  0.00     0.041 A 
ENDBRANCH  10  11
ENDBRANCH   7  10
ENDBRANCH   1   7
BRANCH   4  18
ATOM     18  O   UNL d   1      33.056  20.494 -24.679  0.00  0.00    -0.327 OA
ATOM     19  C   UNL d   1      33.096  21.240 -25.031  0.00  0.00     0.181 C 
ENDBRANCH   4  18
BRANCH   3  20
ATOM     20  C   UNL d   1      33.034  20.202 -21.394  0.00  0.00     0.000 C 
ATOM     21  C   UNL d   1      33.239  19.489 -21.041  0.00  0.00     0.000 C 
ATOM     22  C   UNL d   1      32.820  20.846 -20.925  0.00  0.00     0.000 C 
ENDBRANCH   3  20
TORSDOF 5
ENDMDL
