MODEL 1
REMARK VINA RESULT:      50.6      0.000      0.000
REMARK  2 active torsions:
REMARK  status: ('A' for Active; 'I' for Inactive)
REMARK    1  A    between atoms: N_2  and  S_1 
REMARK    2  A    between atoms: C_3  and  S_1 
ROOT
ATOM      1  S   UNL d   1     -51.797  24.662  33.683  0.00  0.00     0.273 S 
ATOM      2  O   UNL d   1     -52.223  25.281  34.058  0.00  0.00    -0.200 OA
ATOM      3  O   UNL d   1     -51.385  24.045  33.315  0.00  0.00    -0.200 OA
ENDROOT
BRANCH   1   4
ATOM      4  N   UNL d   1     -52.440  24.142  33.808  0.00  0.00    -0.231 N 
ATOM      5  C   UNL d   1     -52.718  24.013  34.579  0.00  0.00     0.075 A 
ATOM      6  C   UNL d   1     -53.343  23.483  34.528  0.00  0.00     0.018 A 
ATOM      7  C   UNL d   1     -52.482  24.306  35.294  0.00  0.00     0.018 A 
ATOM      8  C   UNL d   1     -53.729  23.250  35.196  0.00  0.00     0.002 A 
ATOM      9  C   UNL d   1     -53.453  23.288  33.765  0.00  0.00     0.021 A 
ATOM     10  C   UNL d   1     -53.497  23.544  35.936  0.00  0.00     0.000 A 
ATOM     11  C   UNL d   1     -52.867  24.075  35.965  0.00  0.00     0.002 A 
ATOM     12  C   UNL d   1     -52.892  23.696  33.310  0.00  0.00     0.092 A 
ENDBRANCH   1   4
BRANCH   1  13
ATOM     13  C   UNL d   1     -51.168  25.181  33.563  0.00  0.00     0.121 A 
ATOM     14  C   UNL d   1     -51.289  25.995  33.498  0.00  0.00     0.093 A 
ATOM     15  N   UNL d   1     -52.056  26.302  33.553  0.00  0.00    -0.243 NA
ATOM     16  C   UNL d   1     -50.641  26.498  33.378  0.00  0.00     0.018 A 
ATOM     17  C   UNL d   1     -52.176  27.111  33.489  0.00  0.00     0.099 A 
ATOM     18  C   UNL d   1     -51.531  27.622  33.368  0.00  0.00     0.021 A 
ATOM     19  C   UNL d   1     -50.761  27.308  33.313  0.00  0.00     0.003 A 
ATOM     20  C   UNL d   1     -49.875  26.191  33.323  0.00  0.00     0.002 A 
ATOM     21  C   UNL d   1     -49.754  25.378  33.388  0.00  0.00     0.001 A 
ATOM     22  C   UNL d   1     -50.400  24.878  33.508  0.00  0.00     0.014 A 
ENDBRANCH   1  13
TORSDOF 2
ENDMDL
