MODEL 1
REMARK VINA RESULT:      -8.7      0.000      0.000
REMARK  3 active torsions:
REMARK  status: ('A' for Active; 'I' for Inactive)
REMARK    1  A    between atoms: S_6  and  C_1 
REMARK    2  A    between atoms: C_9  and  S_6 
REMARK    3  A    between atoms: C_7  and  C_9 
REMARK       I    between atoms: N_8  and  C_7 
ROOT
ATOM      1  C   UNL d   1      53.718  33.443  53.917  0.00  0.00     0.049 A 
ATOM      2  N   UNL d   1      54.076  34.293  54.885  0.00  0.00    -0.245 NA
ATOM      3  C   UNL d   1      54.264  33.576  54.519  0.00  0.00     0.087 A 
ATOM      4  C   UNL d   1      53.188  34.071  53.902  0.00  0.00     0.025 A 
ATOM      5  C   UNL d   1      53.404  34.599  54.497  0.00  0.00     0.082 A 
ATOM      6  C   UNL d   1      54.888  33.075  54.716  0.00  0.00     0.021 C 
ATOM      7  C   UNL d   1      52.536  34.237  53.428  0.00  0.00     0.002 A 
ATOM      8  C   UNL d   1      52.970  35.292  54.619  0.00  0.00     0.019 A 
ATOM      9  C   UNL d   1      52.096  34.924  53.539  0.00  0.00     0.000 A 
ATOM     10  C   UNL d   1      52.322  35.454  54.145  0.00  0.00     0.002 A 
ENDROOT
BRANCH   1  11
ATOM     11  S   UNL d   1      53.701  32.785  53.407  0.00  0.00    -0.080 SA
BRANCH  11  12
ATOM     12  C   UNL d   1      53.453  32.051  53.700  0.00  0.00     0.097 C 
BRANCH  12  13
ATOM     13  C   UNL d   1      53.197  31.469  53.167  0.00  0.00     0.272 C 
ATOM     14  N   UNL d   1      53.112  30.685  53.436  0.00  0.00    -0.267 N 
ATOM     15  C   UNL d   1      52.857  30.102  52.907  0.00  0.00     0.110 A 
ATOM     16  C   UNL d   1      53.281  30.488  54.223  0.00  0.00     0.110 A 
ATOM     17  C   UNL d   1      52.772  29.322  53.172  0.00  0.00     0.142 A 
ATOM     18  O   UNL d   1      52.940  29.121  53.959  0.00  0.00    -0.300 OA
ATOM     19  C   UNL d   1      53.196  29.713  54.484  0.00  0.00     0.142 A 
ATOM     20  O   UNL d   1      53.027  31.661  52.378  0.00  0.00    -0.266 OA
ENDBRANCH  12  13
ENDBRANCH  11  12
ENDBRANCH   1  11
TORSDOF 3
ENDMDL
MODEL 2
REMARK VINA RESULT:      -8.3      2.163      3.826
REMARK  3 active torsions:
REMARK  status: ('A' for Active; 'I' for Inactive)
REMARK    1  A    between atoms: S_6  and  C_1 
REMARK    2  A    between atoms: C_9  and  S_6 
REMARK    3  A    between atoms: C_7  and  C_9 
REMARK       I    between atoms: N_8  and  C_7 
ROOT
ATOM      1  C   UNL d   1      53.047  34.219  53.790  0.00  0.00     0.049 A 
ATOM      2  N   UNL d   1      53.633  34.513  54.956  0.00  0.00    -0.245 NA
ATOM      3  C   UNL d   1      53.199  34.826  54.326  0.00  0.00     0.087 A 
ATOM      4  C   UNL d   1      53.382  33.526  54.079  0.00  0.00     0.025 A 
ATOM      5  C   UNL d   1      53.745  33.701  54.799  0.00  0.00     0.082 A 
ATOM      6  C   UNL d   1      52.957  35.609  54.239  0.00  0.00     0.021 C 
ATOM      7  C   UNL d   1      53.407  32.757  53.788  0.00  0.00     0.002 A 
ATOM      8  C   UNL d   1      54.132  33.109  55.226  0.00  0.00     0.019 A 
ATOM      9  C   UNL d   1      53.790  32.158  54.204  0.00  0.00     0.000 A 
ATOM     10  C   UNL d   1      54.156  32.345  54.933  0.00  0.00     0.002 A 
ENDROOT
BRANCH   1  11
ATOM     11  S   UNL d   1      52.626  34.289  53.075  0.00  0.00    -0.080 SA
BRANCH  11  12
ATOM     12  C   UNL d   1      51.798  34.312  53.093  0.00  0.00     0.097 C 
BRANCH  12  13
ATOM     13  C   UNL d   1      51.377  34.233  52.383  0.00  0.00     0.272 C 
ATOM     14  N   UNL d   1      50.565  34.421  52.372  0.00  0.00    -0.267 N 
ATOM     15  C   UNL d   1      50.142  34.343  51.665  0.00  0.00     0.110 A 
ATOM     16  C   UNL d   1      50.183  34.681  53.060  0.00  0.00     0.110 A 
ATOM     17  C   UNL d   1      49.335  34.529  51.652  0.00  0.00     0.142 A 
ATOM     18  O   UNL d   1      48.949  34.790  52.339  0.00  0.00    -0.300 OA
ATOM     19  C   UNL d   1      49.382  34.865  53.045  0.00  0.00     0.142 A 
ATOM     20  O   UNL d   1      51.754  33.973  51.691  0.00  0.00    -0.266 OA
ENDBRANCH  12  13
ENDBRANCH  11  12
ENDBRANCH   1  11
TORSDOF 3
ENDMDL
MODEL 3
REMARK VINA RESULT:      -8.0      1.825      3.933
REMARK  3 active torsions:
REMARK  status: ('A' for Active; 'I' for Inactive)
REMARK    1  A    between atoms: S_6  and  C_1 
REMARK    2  A    between atoms: C_9  and  S_6 
REMARK    3  A    between atoms: C_7  and  C_9 
REMARK       I    between atoms: N_8  and  C_7 
ROOT
ATOM      1  C   UNL d   1      53.296  32.156  53.444  0.00  0.00     0.049 A 
ATOM      2  N   UNL d   1      53.941  31.598  54.474  0.00  0.00    -0.245 NA
ATOM      3  C   UNL d   1      53.756  32.316  54.109  0.00  0.00     0.087 A 
ATOM      4  C   UNL d   1      53.191  31.342  53.389  0.00  0.00     0.025 A 
ATOM      5  C   UNL d   1      53.586  30.992  54.022  0.00  0.00     0.082 A 
ATOM      6  C   UNL d   1      53.986  33.066  54.360  0.00  0.00     0.021 C 
ATOM      7  C   UNL d   1      52.789  30.869  52.849  0.00  0.00     0.002 A 
ATOM      8  C   UNL d   1      53.581  30.171  54.115  0.00  0.00     0.019 A 
ATOM      9  C   UNL d   1      52.775  30.050  52.931  0.00  0.00     0.000 A 
ATOM     10  C   UNL d   1      53.179  29.703  53.576  0.00  0.00     0.002 A 
ENDROOT
BRANCH   1  11
ATOM     11  S   UNL d   1      52.987  32.719  52.915  0.00  0.00    -0.080 SA
BRANCH  11  12
ATOM     12  C   UNL d   1      52.278  33.106  53.101  0.00  0.00     0.097 C 
BRANCH  12  13
ATOM     13  C   UNL d   1      51.922  33.593  52.532  0.00  0.00     0.272 C 
ATOM     14  N   UNL d   1      51.164  33.903  52.683  0.00  0.00    -0.267 N 
ATOM     15  C   UNL d   1      50.806  34.389  52.118  0.00  0.00     0.110 A 
ATOM     16  C   UNL d   1      50.770  33.728  53.392  0.00  0.00     0.110 A 
ATOM     17  C   UNL d   1      50.052  34.699  52.266  0.00  0.00     0.142 A 
ATOM     18  O   UNL d   1      49.655  34.525  52.974  0.00  0.00    -0.300 OA
ATOM     19  C   UNL d   1      50.022  34.036  53.537  0.00  0.00     0.142 A 
ATOM     20  O   UNL d   1      52.312  33.771  51.821  0.00  0.00    -0.266 OA
ENDBRANCH  12  13
ENDBRANCH  11  12
ENDBRANCH   1  11
TORSDOF 3
ENDMDL
MODEL 4
REMARK VINA RESULT:      -6.9      1.775      3.294
REMARK  3 active torsions:
REMARK  status: ('A' for Active; 'I' for Inactive)
REMARK    1  A    between atoms: S_6  and  C_1 
REMARK    2  A    between atoms: C_9  and  S_6 
REMARK    3  A    between atoms: C_7  and  C_9 
REMARK       I    between atoms: N_8  and  C_7 
ROOT
ATOM      1  C   UNL d   1      52.419  32.630  53.025  0.00  0.00     0.049 A 
ATOM      2  N   UNL d   1      51.201  32.084  53.101  0.00  0.00    -0.245 NA
ATOM      3  C   UNL d   1      52.011  31.920  53.114  0.00  0.00     0.087 A 
ATOM      4  C   UNL d   1      51.872  33.239  52.957  0.00  0.00     0.025 A 
ATOM      5  C   UNL d   1      51.118  32.908  53.003  0.00  0.00     0.082 A 
ATOM      6  C   UNL d   1      52.359  31.177  53.199  0.00  0.00     0.021 C 
ATOM      7  C   UNL d   1      51.954  34.052  52.860  0.00  0.00     0.002 A 
ATOM      8  C   UNL d   1      50.447  33.388  52.952  0.00  0.00     0.019 A 
ATOM      9  C   UNL d   1      51.293  34.541  52.807  0.00  0.00     0.000 A 
ATOM     10  C   UNL d   1      50.532  34.197  52.855  0.00  0.00     0.002 A 
ENDROOT
BRANCH   1  11
ATOM     11  S   UNL d   1      53.247  32.721  53.007  0.00  0.00    -0.080 SA
BRANCH  11  12
ATOM     12  C   UNL d   1      53.671  32.721  53.719  0.00  0.00     0.097 C 
BRANCH  12  13
ATOM     13  C   UNL d   1      54.461  32.973  53.719  0.00  0.00     0.272 C 
ATOM     14  N   UNL d   1      54.776  33.314  54.410  0.00  0.00    -0.267 N 
ATOM     15  C   UNL d   1      55.564  33.566  54.414  0.00  0.00     0.110 A 
ATOM     16  C   UNL d   1      54.307  33.401  55.089  0.00  0.00     0.110 A 
ATOM     17  C   UNL d   1      55.879  33.906  55.100  0.00  0.00     0.142 A 
ATOM     18  O   UNL d   1      55.413  33.995  55.781  0.00  0.00    -0.300 OA
ATOM     19  C   UNL d   1      54.622  33.739  55.769  0.00  0.00     0.142 A 
ATOM     20  O   UNL d   1      54.934  32.887  53.042  0.00  0.00    -0.266 OA
ENDBRANCH  12  13
ENDBRANCH  11  12
ENDBRANCH   1  11
TORSDOF 3
ENDMDL
MODEL 5
REMARK VINA RESULT:      -6.8      1.517      4.150
REMARK  3 active torsions:
REMARK  status: ('A' for Active; 'I' for Inactive)
REMARK    1  A    between atoms: S_6  and  C_1 
REMARK    2  A    between atoms: C_9  and  S_6 
REMARK    3  A    between atoms: C_7  and  C_9 
REMARK       I    between atoms: N_8  and  C_7 
ROOT
ATOM      1  C   UNL d   1      53.378  31.814  53.225  0.00  0.00     0.049 A 
ATOM      2  N   UNL d   1      54.306  30.869  53.414  0.00  0.00    -0.245 NA
ATOM      3  C   UNL d   1      54.188  31.678  53.288  0.00  0.00     0.087 A 
ATOM      4  C   UNL d   1      52.985  31.097  53.309  0.00  0.00     0.025 A 
ATOM      5  C   UNL d   1      53.553  30.510  53.426  0.00  0.00     0.082 A 
ATOM      6  C   UNL d   1      54.774  32.255  53.235  0.00  0.00     0.021 C 
ATOM      7  C   UNL d   1      52.188  30.894  53.296  0.00  0.00     0.002 A 
ATOM      8  C   UNL d   1      53.324  29.722  53.530  0.00  0.00     0.019 A 
ATOM      9  C   UNL d   1      51.947  30.113  53.398  0.00  0.00     0.000 A 
ATOM     10  C   UNL d   1      52.529  29.524  53.516  0.00  0.00     0.002 A 
ENDROOT
BRANCH   1  11
ATOM     11  S   UNL d   1      53.013  32.551  53.096  0.00  0.00    -0.080 SA
BRANCH  11  12
ATOM     12  C   UNL d   1      53.040  33.126  53.692  0.00  0.00     0.097 C 
BRANCH  12  13
ATOM     13  C   UNL d   1      52.705  33.872  53.550  0.00  0.00     0.272 C 
ATOM     14  N   UNL d   1      52.834  34.484  54.099  0.00  0.00    -0.267 N 
ATOM     15  C   UNL d   1      52.501  35.228  53.960  0.00  0.00     0.110 A 
ATOM     16  C   UNL d   1      53.291  34.352  54.778  0.00  0.00     0.110 A 
ATOM     17  C   UNL d   1      52.629  35.839  54.505  0.00  0.00     0.142 A 
ATOM     18  O   UNL d   1      53.086  35.711  55.186  0.00  0.00    -0.300 OA
ATOM     19  C   UNL d   1      53.417  34.959  55.318  0.00  0.00     0.142 A 
ATOM     20  O   UNL d   1      52.247  34.008  52.872  0.00  0.00    -0.266 OA
ENDBRANCH  12  13
ENDBRANCH  11  12
ENDBRANCH   1  11
TORSDOF 3
ENDMDL
