MODEL 1
REMARK VINA RESULT:      -7.9      0.000      0.000
REMARK  1 active torsions:
REMARK  status: ('A' for Active; 'I' for Inactive)
REMARK       I    between atoms: C_2  and  N_1 
REMARK    1  A    between atoms: C_4  and  C_2 
ROOT
ATOM      1  N   UNL d   1     -48.385  12.633  23.023  0.00  0.00    -0.272 N 
ATOM      2  C   UNL d   1     -48.061  13.293  22.643  0.00  0.00     0.287 C 
ATOM      3  C   UNL d   1     -49.189  12.463  23.112  0.00  0.00     0.067 A 
ATOM      4  C   UNL d   1     -47.951  12.045  23.369  0.00  0.00     0.083 A 
ATOM      5  O   UNL d   1     -48.560  13.860  22.308  0.00  0.00    -0.264 OA
ATOM      6  C   UNL d   1     -49.258  11.758  23.521  0.00  0.00     0.018 A 
ATOM      7  C   UNL d   1     -48.492  11.490  23.685  0.00  0.00     0.021 A 
ATOM      8  C   UNL d   1     -49.862  12.857  22.876  0.00  0.00     0.018 A 
ATOM      9  C   UNL d   1     -49.998  11.439  23.698  0.00  0.00     0.002 A 
ATOM     10  C   UNL d   1     -50.610  12.550  23.045  0.00  0.00     0.002 A 
ATOM     11  C   UNL d   1     -50.675  11.841  23.456  0.00  0.00     0.000 A 
ENDROOT
BRANCH   2  12
ATOM     12  C   UNL d   1     -47.239  13.386  22.599  0.00  0.00     0.156 A 
ATOM     13  O   UNL d   1     -46.637  12.926  22.262  0.00  0.00    -0.300 OA
ATOM     14  C   UNL d   1     -45.925  13.304  22.396  0.00  0.00     0.123 A 
ATOM     15  C   UNL d   1     -46.068  13.992  22.810  0.00  0.00     0.029 A 
ATOM     16  C   UNL d   1     -46.878  14.051  22.940  0.00  0.00     0.032 A 
ENDBRANCH   2  12
TORSDOF 1
ENDMDL
MODEL 2
REMARK VINA RESULT:      -7.9      1.462      2.767
REMARK  1 active torsions:
REMARK  status: ('A' for Active; 'I' for Inactive)
REMARK       I    between atoms: C_2  and  N_1 
REMARK    1  A    between atoms: C_4  and  C_2 
ROOT
ATOM      1  N   UNL d   1     -47.908  13.363  23.126  0.00  0.00    -0.272 N 
ATOM      2  C   UNL d   1     -48.712  13.552  23.082  0.00  0.00     0.287 C 
ATOM      3  C   UNL d   1     -47.585  12.628  23.324  0.00  0.00     0.067 A 
ATOM      4  C   UNL d   1     -47.306  13.883  22.978  0.00  0.00     0.083 A 
ATOM      5  O   UNL d   1     -49.279  12.974  23.245  0.00  0.00    -0.264 OA
ATOM      6  C   UNL d   1     -46.770  12.690  23.300  0.00  0.00     0.018 A 
ATOM      7  C   UNL d   1     -46.587  13.468  23.085  0.00  0.00     0.021 A 
ATOM      8  C   UNL d   1     -47.928  11.915  23.523  0.00  0.00     0.018 A 
ATOM      9  C   UNL d   1     -46.288  12.043  23.472  0.00  0.00     0.002 A 
ATOM     10  C   UNL d   1     -47.459  11.259  23.698  0.00  0.00     0.002 A 
ATOM     11  C   UNL d   1     -46.640  11.325  23.672  0.00  0.00     0.000 A 
ENDROOT
BRANCH   2  12
ATOM     12  C   UNL d   1     -48.948  14.319  22.874  0.00  0.00     0.156 A 
ATOM     13  O   UNL d   1     -48.778  14.805  22.225  0.00  0.00    -0.300 OA
ATOM     14  C   UNL d   1     -49.177  15.511  22.326  0.00  0.00     0.123 A 
ATOM     15  C   UNL d   1     -49.593  15.478  23.027  0.00  0.00     0.029 A 
ATOM     16  C   UNL d   1     -49.457  14.744  23.373  0.00  0.00     0.032 A 
ENDBRANCH   2  12
TORSDOF 1
ENDMDL
MODEL 3
REMARK VINA RESULT:      -7.9      0.991      3.468
REMARK  1 active torsions:
REMARK  status: ('A' for Active; 'I' for Inactive)
REMARK       I    between atoms: C_2  and  N_1 
REMARK    1  A    between atoms: C_4  and  C_2 
ROOT
ATOM      1  N   UNL d   1     -48.406  13.027  22.984  0.00  0.00    -0.272 N 
ATOM      2  C   UNL d   1     -48.851  12.332  23.032  0.00  0.00     0.287 C 
ATOM      3  C   UNL d   1     -47.581  13.083  22.961  0.00  0.00     0.067 A 
ATOM      4  C   UNL d   1     -48.721  13.771  22.950  0.00  0.00     0.083 A 
ATOM      5  O   UNL d   1     -48.469  11.601  23.064  0.00  0.00    -0.264 OA
ATOM      6  C   UNL d   1     -47.378  13.874  22.913  0.00  0.00     0.018 A 
ATOM      7  C   UNL d   1     -48.082  14.311  22.905  0.00  0.00     0.021 A 
ATOM      8  C   UNL d   1     -46.994  12.518  22.979  0.00  0.00     0.018 A 
ATOM      9  C   UNL d   1     -46.588  14.109  22.881  0.00  0.00     0.002 A 
ATOM     10  C   UNL d   1     -46.199  12.738  22.948  0.00  0.00     0.002 A 
ATOM     11  C   UNL d   1     -45.999  13.534  22.899  0.00  0.00     0.000 A 
ENDROOT
BRANCH   2  12
ATOM     12  C   UNL d   1     -49.679  12.369  23.050  0.00  0.00     0.156 A 
ATOM     13  O   UNL d   1     -50.241  12.672  22.522  0.00  0.00    -0.300 OA
ATOM     14  C   UNL d   1     -50.983  12.547  22.842  0.00  0.00     0.123 A 
ATOM     15  C   UNL d   1     -50.897  12.171  23.562  0.00  0.00     0.029 A 
ATOM     16  C   UNL d   1     -50.094  12.057  23.698  0.00  0.00     0.032 A 
ENDBRANCH   2  12
TORSDOF 1
ENDMDL
MODEL 4
REMARK VINA RESULT:      -7.6      1.391      1.662
REMARK  1 active torsions:
REMARK  status: ('A' for Active; 'I' for Inactive)
REMARK       I    between atoms: C_2  and  N_1 
REMARK    1  A    between atoms: C_4  and  C_2 
ROOT
ATOM      1  N   UNL d   1     -48.731  13.492  22.375  0.00  0.00    -0.272 N 
ATOM      2  C   UNL d   1     -48.175  13.949  22.781  0.00  0.00     0.287 C 
ATOM      3  C   UNL d   1     -49.506  13.711  22.186  0.00  0.00     0.067 A 
ATOM      4  C   UNL d   1     -48.594  12.745  22.096  0.00  0.00     0.083 A 
ATOM      5  O   UNL d   1     -48.377  14.707  23.041  0.00  0.00    -0.264 OA
ATOM      6  C   UNL d   1     -49.857  13.092  21.784  0.00  0.00     0.018 A 
ATOM      7  C   UNL d   1     -49.297  12.486  21.722  0.00  0.00     0.021 A 
ATOM      8  C   UNL d   1     -49.932  14.391  22.329  0.00  0.00     0.018 A 
ATOM      9  C   UNL d   1     -50.637  13.145  21.520  0.00  0.00     0.002 A 
ATOM     10  C   UNL d   1     -50.713  14.459  22.072  0.00  0.00     0.002 A 
ATOM     11  C   UNL d   1     -51.063  13.834  21.667  0.00  0.00     0.000 A 
ENDROOT
BRANCH   2  12
ATOM     12  C   UNL d   1     -47.417  13.649  22.928  0.00  0.00     0.156 A 
ATOM     13  O   UNL d   1     -47.145  12.961  23.301  0.00  0.00    -0.300 OA
ATOM     14  C   UNL d   1     -46.328  12.965  23.278  0.00  0.00     0.123 A 
ATOM     15  C   UNL d   1     -46.081  13.643  22.897  0.00  0.00     0.029 A 
ATOM     16  C   UNL d   1     -46.748  14.072  22.677  0.00  0.00     0.032 A 
ENDBRANCH   2  12
TORSDOF 1
ENDMDL
