MODEL 1
REMARK VINA RESULT:      -8.6      0.000      0.000
REMARK  2 active torsions:
REMARK  status: ('A' for Active; 'I' for Inactive)
REMARK    1  A    between atoms: C_5  and  C_1 
REMARK    2  A    between atoms: C_7  and  N_2 
ROOT
ATOM      1  C   UNL d   1     -48.734  14.649  22.820  0.00  0.00     0.129 A 
ATOM      2  N   UNL d   1     -48.655  13.820  22.819  0.00  0.00    -0.302 N 
ATOM      3  C   UNL d   1     -47.973  14.972  22.794  0.00  0.00     0.025 A 
ATOM      4  C   UNL d   1     -47.850  13.637  22.793  0.00  0.00     0.064 A 
ATOM      5  C   UNL d   1     -47.426  14.353  22.778  0.00  0.00     0.018 A 
ATOM      6  C   UNL d   1     -47.441  12.916  22.782  0.00  0.00     0.018 A 
ATOM      7  C   UNL d   1     -46.597  14.340  22.751  0.00  0.00     0.002 A 
ATOM      8  C   UNL d   1     -46.619  12.908  22.755  0.00  0.00     0.002 A 
ATOM      9  C   UNL d   1     -46.200  13.617  22.740  0.00  0.00     0.000 A 
ENDROOT
BRANCH   2  10
ATOM     10  C   UNL d   1     -49.274  13.272  22.840  0.00  0.00     0.064 A 
ATOM     11  C   UNL d   1     -49.596  13.002  22.133  0.00  0.00     0.018 A 
ATOM     12  C   UNL d   1     -50.212  12.457  22.152  0.00  0.00     0.002 A 
ATOM     13  C   UNL d   1     -50.503  12.184  22.874  0.00  0.00     0.000 A 
ATOM     14  C   UNL d   1     -50.176  12.458  23.584  0.00  0.00     0.002 A 
ATOM     15  C   UNL d   1     -49.559  13.004  23.559  0.00  0.00     0.018 A 
ENDBRANCH   2  10
BRANCH   1  16
ATOM     16  C   UNL d   1     -49.443  15.069  22.842  0.00  0.00     0.228 C 
ATOM     17  O   UNL d   1     -49.780  15.271  23.565  0.00  0.00    -0.643 OA
ATOM     18  O   UNL d   1     -49.816  15.286  22.134  0.00  0.00    -0.643 OA
ENDBRANCH   1  16
TORSDOF 2
ENDMDL
MODEL 2
REMARK VINA RESULT:      -8.5      1.664      2.200
REMARK  2 active torsions:
REMARK  status: ('A' for Active; 'I' for Inactive)
REMARK    1  A    between atoms: C_5  and  C_1 
REMARK    2  A    between atoms: C_7  and  N_2 
ROOT
ATOM      1  C   UNL d   1     -48.081  12.102  22.934  0.00  0.00     0.129 A 
ATOM      2  N   UNL d   1     -48.435  12.820  22.703  0.00  0.00    -0.302 N 
ATOM      3  C   UNL d   1     -47.287  12.261  23.107  0.00  0.00     0.025 A 
ATOM      4  C   UNL d   1     -47.861  13.413  22.735  0.00  0.00     0.064 A 
ATOM      5  C   UNL d   1     -47.148  13.066  22.986  0.00  0.00     0.018 A 
ATOM      6  C   UNL d   1     -47.888  14.226  22.570  0.00  0.00     0.018 A 
ATOM      7  C   UNL d   1     -46.469  13.534  23.069  0.00  0.00     0.002 A 
ATOM      8  C   UNL d   1     -47.212  14.686  22.653  0.00  0.00     0.002 A 
ATOM      9  C   UNL d   1     -46.506  14.342  22.902  0.00  0.00     0.000 A 
ENDROOT
BRANCH   2  10
ATOM     10  C   UNL d   1     -49.224  12.923  22.480  0.00  0.00     0.064 A 
ATOM     11  C   UNL d   1     -49.433  12.840  21.688  0.00  0.00     0.018 A 
ATOM     12  C   UNL d   1     -50.218  12.942  21.465  0.00  0.00     0.002 A 
ATOM     13  C   UNL d   1     -50.790  13.126  22.030  0.00  0.00     0.000 A 
ATOM     14  C   UNL d   1     -50.577  13.209  22.826  0.00  0.00     0.002 A 
ATOM     15  C   UNL d   1     -49.788  13.106  23.045  0.00  0.00     0.018 A 
ENDBRANCH   2  10
BRANCH   1  16
ATOM     16  C   UNL d   1     -48.454  11.369  22.981  0.00  0.00     0.228 C 
ATOM     17  O   UNL d   1     -48.472  10.873  22.325  0.00  0.00    -0.643 OA
ATOM     18  O   UNL d   1     -48.812  11.134  23.690  0.00  0.00    -0.643 OA
ENDBRANCH   1  16
TORSDOF 2
ENDMDL
MODEL 3
REMARK VINA RESULT:      -8.0      1.538      3.167
REMARK  2 active torsions:
REMARK  status: ('A' for Active; 'I' for Inactive)
REMARK    1  A    between atoms: C_5  and  C_1 
REMARK    2  A    between atoms: C_7  and  N_2 
ROOT
ATOM      1  C   UNL d   1     -49.101  12.560  22.966  0.00  0.00     0.129 A 
ATOM      2  N   UNL d   1     -48.587  13.213  22.919  0.00  0.00    -0.302 N 
ATOM      3  C   UNL d   1     -49.870  12.854  23.044  0.00  0.00     0.025 A 
ATOM      4  C   UNL d   1     -49.039  13.903  22.967  0.00  0.00     0.064 A 
ATOM      5  C   UNL d   1     -49.836  13.679  23.045  0.00  0.00     0.018 A 
ATOM      6  C   UNL d   1     -48.836  14.707  22.951  0.00  0.00     0.018 A 
ATOM      7  C   UNL d   1     -50.423  14.262  23.106  0.00  0.00     0.002 A 
ATOM      8  C   UNL d   1     -49.420  15.281  23.011  0.00  0.00     0.002 A 
ATOM      9  C   UNL d   1     -50.210  15.060  23.088  0.00  0.00     0.000 A 
ENDROOT
BRANCH   2  10
ATOM     10  C   UNL d   1     -47.764  13.180  22.837  0.00  0.00     0.064 A 
ATOM     11  C   UNL d   1     -47.434  13.194  22.083  0.00  0.00     0.018 A 
ATOM     12  C   UNL d   1     -46.617  13.160  22.001  0.00  0.00     0.002 A 
ATOM     13  C   UNL d   1     -46.133  13.114  22.667  0.00  0.00     0.000 A 
ATOM     14  C   UNL d   1     -46.469  13.100  23.424  0.00  0.00     0.002 A 
ATOM     15  C   UNL d   1     -47.289  13.134  23.502  0.00  0.00     0.018 A 
ENDBRANCH   2  10
BRANCH   1  16
ATOM     16  C   UNL d   1     -48.881  11.766  22.941  0.00  0.00     0.228 C 
ATOM     17  O   UNL d   1     -48.825  11.377  22.218  0.00  0.00    -0.643 OA
ATOM     18  O   UNL d   1     -48.718  11.361  23.645  0.00  0.00    -0.643 OA
ENDBRANCH   1  16
TORSDOF 2
ENDMDL
