MODEL 1
REMARK VINA RESULT:     121.0      0.000      0.000
REMARK  6 active torsions:
REMARK  status: ('A' for Active; 'I' for Inactive)
REMARK    1  A    between atoms: S_6  and  N_1 
REMARK    2  A    between atoms: C_2  and  C_4 
REMARK    3  A    between atoms: C_12  and  C_3 
REMARK    4  A    between atoms: C_17  and  N_8 
REMARK    5  A    between atoms: C_16  and  C_10 
REMARK    6  A    between atoms: O_27  and  C_24 
ROOT
ATOM      1  N   UNL d   1      60.514  47.537  51.414  0.00  0.00    -0.155 N 
ATOM      2  C   UNL d   1      60.107  47.658  50.705  0.00  0.00     0.099 A 
ATOM      3  N   UNL d   1      60.955  46.852  51.316  0.00  0.00    -0.156 NA
ATOM      4  C   UNL d   1      60.823  46.551  50.554  0.00  0.00     0.103 A 
ATOM      5  C   UNL d   1      60.292  47.070  50.193  0.00  0.00     0.041 A 
ENDROOT
BRANCH   2   6
ATOM      6  C   UNL d   1      59.583  48.325  50.590  0.00  0.00     0.058 A 
ATOM      7  C   UNL d   1      59.800  49.058  50.339  0.00  0.00     0.110 A 
ATOM      8  N   UNL d   1      59.083  49.498  50.321  0.00  0.00    -0.165 NA
ATOM      9  N   UNL d   1      58.457  49.012  50.563  0.00  0.00    -0.228 N 
ATOM     10  C   UNL d   1      58.770  48.273  50.732  0.00  0.00     0.103 A 
BRANCH   7  11
ATOM     11  C   UNL d   1      60.548  49.330  50.143  0.00  0.00     0.049 A 
ATOM     12  S   UNL d   1      61.173  49.533  50.207  0.00  0.00    -0.085 SA
ATOM     13  C   UNL d   1      61.436  49.704  49.429  0.00  0.00     0.035 A 
ATOM     14  C   UNL d   1      60.917  49.593  48.836  0.00  0.00     0.007 A 
ATOM     15  C   UNL d   1      60.307  49.346  49.240  0.00  0.00     0.009 A 
ENDBRANCH   7  11
BRANCH   9  16
ATOM     16  C   UNL d   1      57.670  49.240  50.618  0.00  0.00     0.083 A 
ATOM     17  C   UNL d   1      57.326  49.376  51.345  0.00  0.00     0.019 A 
ATOM     18  C   UNL d   1      56.573  49.591  51.320  0.00  0.00     0.002 A 
ATOM     19  C   UNL d   1      56.058  49.707  50.682  0.00  0.00     0.000 A 
ATOM     20  C   UNL d   1      56.446  49.558  49.953  0.00  0.00     0.002 A 
ATOM     21  C   UNL d   1      57.235  49.329  49.900  0.00  0.00     0.019 A 
ENDBRANCH   9  16
ENDBRANCH   2   6
BRANCH   1  22
ATOM     22  S   UNL d   1      60.499  47.998  52.101  0.00  0.00     0.266 S 
ATOM     23  O   UNL d   1      61.250  47.717  52.305  0.00  0.00    -0.203 OA
ATOM     24  O   UNL d   1      59.751  48.277  51.897  0.00  0.00    -0.203 OA
ATOM     25  C   UNL d   1      60.485  48.460  52.790  0.00  0.00     0.165 C 
ENDBRANCH   1  22
BRANCH   4  26
ATOM     26  C   UNL d   1      61.146  45.875  50.211  0.00  0.00     0.020 A 
ATOM     27  C   UNL d   1      61.265  45.176  50.634  0.00  0.00     0.004 A 
ATOM     28  C   UNL d   1      61.588  44.520  50.267  0.00  0.00     0.024 A 
ATOM     29  C   UNL d   1      61.796  44.561  49.469  0.00  0.00     0.094 A 
ATOM     30  C   UNL d   1      61.678  45.261  49.046  0.00  0.00     0.024 A 
ATOM     31  C   UNL d   1      61.366  45.884  49.411  0.00  0.00     0.004 A 
BRANCH  29  32
ATOM     32  O   UNL d   1      62.127  43.878  49.107  0.00  0.00    -0.328 OA
ATOM     33  C   UNL d   1      61.696  43.182  49.074  0.00  0.00     0.181 C 
ENDBRANCH  29  32
ENDBRANCH   4  26
TORSDOF 6
ENDMDL
