MODEL 1
REMARK VINA RESULT:      45.7      0.000      0.000
REMARK  4 active torsions:
REMARK  status: ('A' for Active; 'I' for Inactive)
REMARK       I    between atoms: N_3  and  C_1 
REMARK    1  A    between atoms: C_4  and  C_1 
REMARK    2  A    between atoms: N_2  and  C_4 
REMARK    3  A    between atoms: C_6  and  N_3 
REMARK    4  A    between atoms: O_17  and  C_9 
ROOT
ATOM      1  C   UNL d   1     -50.678  26.519  33.535  0.00  0.00     0.297 C 
ATOM      2  N   UNL d   1     -51.480  26.391  33.381  0.00  0.00    -0.207 NA
ATOM      3  O   UNL d   1     -50.196  25.886  33.747  0.00  0.00    -0.264 OA
ENDROOT
BRANCH   1   4
ATOM      4  C   UNL d   1     -50.362  27.275  33.478  0.00  0.00     0.144 C 
BRANCH   4   5
ATOM      5  N   UNL d   1     -49.765  27.519  34.008  0.00  0.00    -0.299 N 
ATOM      6  C   UNL d   1     -49.086  27.916  33.722  0.00  0.00     0.080 A 
ATOM      7  C   UNL d   1     -48.491  28.161  34.241  0.00  0.00     0.019 A 
ATOM      8  C   UNL d   1     -48.566  28.012  35.062  0.00  0.00     0.003 A 
ATOM      9  C   UNL d   1     -49.245  27.614  35.357  0.00  0.00     0.019 A 
ATOM     10  C   UNL d   1     -47.976  28.254  35.581  0.00  0.00     0.000 C 
ATOM     11  C   UNL d   1     -49.848  27.367  34.822  0.00  0.00     0.080 A 
ENDBRANCH   4   5
ENDBRANCH   1   4
BRANCH   2  12
ATOM     12  C   UNL d   1     -51.796  25.635  33.438  0.00  0.00     0.085 A 
ATOM     13  C   UNL d   1     -52.587  25.541  33.602  0.00  0.00     0.021 A 
ATOM     14  C   UNL d   1     -52.909  24.780  33.660  0.00  0.00     0.026 A 
ATOM     15  C   UNL d   1     -52.426  24.123  33.552  0.00  0.00     0.094 A 
ATOM     16  C   UNL d   1     -51.628  24.222  33.387  0.00  0.00     0.026 A 
ATOM     17  C   UNL d   1     -51.307  24.982  33.329  0.00  0.00     0.021 A 
BRANCH  15  18
ATOM     18  O   UNL d   1     -52.739  23.364  33.609  0.00  0.00    -0.328 OA
ATOM     19  C   UNL d   1     -53.487  23.200  33.308  0.00  0.00     0.181 C 
ENDBRANCH  15  18
ENDBRANCH   2  12
TORSDOF 4
ENDMDL
MODEL 2
REMARK VINA RESULT:      46.8      1.196      4.748
REMARK  4 active torsions:
REMARK  status: ('A' for Active; 'I' for Inactive)
REMARK       I    between atoms: N_3  and  C_1 
REMARK    1  A    between atoms: C_4  and  C_1 
REMARK    2  A    between atoms: N_2  and  C_4 
REMARK    3  A    between atoms: C_6  and  N_3 
REMARK    4  A    between atoms: O_17  and  C_9 
ROOT
ATOM      1  C   UNL d   1     -50.098  25.819  33.732  0.00  0.00     0.297 C 
ATOM      2  N   UNL d   1     -49.345  26.163  33.726  0.00  0.00    -0.207 NA
ATOM      3  O   UNL d   1     -50.703  26.170  34.165  0.00  0.00    -0.264 OA
ENDROOT
BRANCH   1   4
ATOM      4  C   UNL d   1     -50.241  25.131  33.307  0.00  0.00     0.144 C 
BRANCH   4   5
ATOM      5  N   UNL d   1     -51.001  24.786  33.315  0.00  0.00    -0.299 N 
ATOM      6  C   UNL d   1     -51.084  23.954  33.329  0.00  0.00     0.080 A 
ATOM      7  C   UNL d   1     -51.833  23.604  33.337  0.00  0.00     0.019 A 
ATOM      8  C   UNL d   1     -52.518  24.087  33.332  0.00  0.00     0.003 A 
ATOM      9  C   UNL d   1     -52.443  24.924  33.319  0.00  0.00     0.019 A 
ATOM     10  C   UNL d   1     -53.265  23.743  33.341  0.00  0.00     0.000 C 
ATOM     11  C   UNL d   1     -51.675  25.273  33.310  0.00  0.00     0.080 A 
ENDBRANCH   4   5
ENDBRANCH   1   4
BRANCH   2  12
ATOM     12  C   UNL d   1     -49.202  26.851  34.150  0.00  0.00     0.085 A 
ATOM     13  C   UNL d   1     -49.275  27.573  33.783  0.00  0.00     0.021 A 
ATOM     14  C   UNL d   1     -49.131  28.269  34.208  0.00  0.00     0.026 A 
ATOM     15  C   UNL d   1     -48.915  28.226  35.001  0.00  0.00     0.094 A 
ATOM     16  C   UNL d   1     -48.842  27.495  35.368  0.00  0.00     0.026 A 
ATOM     17  C   UNL d   1     -48.986  26.800  34.943  0.00  0.00     0.021 A 
BRANCH  15  18
ATOM     18  O   UNL d   1     -48.770  28.913  35.429  0.00  0.00    -0.328 OA
ATOM     19  C   UNL d   1     -48.038  29.286  35.382  0.00  0.00     0.181 C 
ENDBRANCH  15  18
ENDBRANCH   2  12
TORSDOF 4
ENDMDL
