MODEL 1
REMARK VINA RESULT:       6.4      0.000      0.000
REMARK  6 active torsions:
REMARK  status: ('A' for Active; 'I' for Inactive)
REMARK    1  A    between atoms: C_4  and  C_1 
REMARK    2  A    between atoms: N_7  and  C_2 
REMARK    3  A    between atoms: C_6  and  C_4 
REMARK    4  A    between atoms: C_8  and  C_4 
REMARK    5  A    between atoms: O_13  and  C_6 
REMARK    6  A    between atoms: C_19  and  O_13 
ROOT
ATOM      1  C   UNL d   1      31.265  18.017 -24.107  0.00  0.00     0.122 A 
ATOM      2  C   UNL d   1      31.015  17.383 -23.641  0.00  0.00     0.166 A 
ATOM      3  N   UNL d   1      30.204  17.237 -23.550  0.00  0.00    -0.225 NA
ATOM      4  N   UNL d   1      30.713  18.507 -24.484  0.00  0.00    -0.241 NA
ATOM      5  C   UNL d   1      29.651  17.723 -23.924  0.00  0.00     0.101 A 
ATOM      6  C   UNL d   1      29.910  18.360 -24.392  0.00  0.00     0.099 A 
ATOM      7  C   UNL d   1      28.844  17.577 -23.833  0.00  0.00     0.021 A 
ATOM      8  C   UNL d   1      29.355  18.843 -24.764  0.00  0.00     0.021 A 
ATOM      9  C   UNL d   1      28.549  18.696 -24.673  0.00  0.00     0.002 A 
ATOM     10  C   UNL d   1      28.292  18.067 -24.210  0.00  0.00     0.002 A 
ENDROOT
BRANCH   1  11
ATOM     11  C   UNL d   1      32.079  18.172 -24.204  0.00  0.00     0.105 C 
BRANCH  11  12
ATOM     12  C   UNL d   1      32.375  18.936 -24.122  0.00  0.00     0.303 C 
ATOM     13  O   UNL d   1      32.689  19.326 -24.779  0.00  0.00    -0.259 OA
BRANCH  12  14
ATOM     14  O   UNL d   1      32.359  19.311 -23.388  0.00  0.00    -0.273 OA
BRANCH  14  15
ATOM     15  C   UNL d   1      32.507  19.977 -22.928  0.00  0.00     0.103 A 
ATOM     16  C   UNL d   1      33.069  20.522 -23.178  0.00  0.00     0.025 A 
ATOM     17  C   UNL d   1      33.217  21.185 -22.722  0.00  0.00     0.002 A 
ATOM     18  C   UNL d   1      32.812  21.315 -22.017  0.00  0.00     0.000 A 
ATOM     19  C   UNL d   1      32.248  20.759 -21.776  0.00  0.00     0.002 A 
ATOM     20  C   UNL d   1      32.097  20.093 -22.231  0.00  0.00     0.025 A 
ENDBRANCH  14  15
ENDBRANCH  12  14
ENDBRANCH  11  12
BRANCH  11  21
ATOM     21  C   UNL d   1      32.604  17.546 -24.386  0.00  0.00     0.129 C 
ATOM     22  N   UNL d   1      33.240  17.597 -25.097  0.00  0.00    -0.146 N 
ENDBRANCH  11  21
ENDBRANCH   1  11
BRANCH   2  23
ATOM     23  N   UNL d   1      31.569  16.899 -23.268  0.00  0.00    -0.285 N 
ATOM     24  C   UNL d   1      31.857  17.108 -22.518  0.00  0.00     0.101 A 
ATOM     25  C   UNL d   1      32.409  16.633 -22.138  0.00  0.00     0.100 A 
ATOM     26  N   UNL d   1      32.678  15.942 -22.509  0.00  0.00    -0.299 N 
ATOM     27  C   UNL d   1      32.390  15.733 -23.259  0.00  0.00     0.100 A 
ATOM     28  C   UNL d   1      33.240  15.453 -22.129  0.00  0.00     0.100 C 
ATOM     29  C   UNL d   1      31.833  16.215 -23.639  0.00  0.00     0.101 A 
ENDBRANCH   2  23
TORSDOF 6
ENDMDL
