MODEL 1
REMARK VINA RESULT:      72.9      0.000      0.000
REMARK  5 active torsions:
REMARK  status: ('A' for Active; 'I' for Inactive)
REMARK    1  A    between atoms: C_8  and  N_1 
REMARK    2  A    between atoms: S_4  and  C_10 
REMARK    3  A    between atoms: C_5  and  C_8 
REMARK       I    between atoms: N_9  and  C_5 
REMARK    4  A    between atoms: C_20  and  C_8 
REMARK    5  A    between atoms: C_19  and  N_9 
ROOT
ATOM      1  C   UNL d   1     -56.183 -98.989 -45.230  0.00  0.00     0.140 C 
ENDROOT
BRANCH   1   2
ATOM      2  C   UNL d   1     -55.431 -99.181 -44.952  0.00  0.00     0.344 C 
ATOM      3  N   UNL d   1     -55.344 -99.793 -44.412  0.00  0.00    -0.363 NA
ATOM      4  O   UNL d   1     -54.772 -98.760 -45.217  0.00  0.00    -0.249 OA
BRANCH   3   5
ATOM      5  C   UNL d   1     -55.227-100.396 -43.875  0.00  0.00     0.135 A 
ATOM      6  C   UNL d   1     -55.465-101.170 -44.035  0.00  0.00     0.033 A 
ATOM      7  C   UNL d   1     -55.341-101.770 -43.483  0.00  0.00     0.016 A 
ATOM      8  C   UNL d   1     -54.973-101.587 -42.760  0.00  0.00     0.107 A 
ATOM      9  C   UNL d   1     -54.736-100.814 -42.601  0.00  0.00     0.016 A 
ATOM     10  C   UNL d   1     -54.864-100.220 -43.160  0.00  0.00     0.033 A 
BRANCH   8  11
ATOM     11  S   UNL d   1     -54.849-102.188 -42.208  0.00  0.00     0.302 S 
ATOM     12  O   UNL d   1     -54.870-102.726 -42.788  0.00  0.00    -0.197 OA
ATOM     13  O   UNL d   1     -54.827-101.624 -41.606  0.00  0.00    -0.197 OA
ATOM     14  N   UNL d   1     -54.726-102.782 -41.655  0.00  0.00    -0.043 N 
ENDBRANCH   8  11
ENDBRANCH   3   5
ENDBRANCH   1   2
BRANCH   1  15
ATOM     15  N   UNL d   1     -56.818 -98.944 -44.704  0.00  0.00    -0.236 N 
ATOM     16  C   UNL d   1     -57.620 -98.975 -44.900  0.00  0.00     0.267 A 
ATOM     17  C   UNL d   1     -58.060 -98.910 -44.198  0.00  0.00     0.061 A 
ATOM     18  O   UNL d   1     -57.929 -99.057 -45.659  0.00  0.00    -0.267 OA
ATOM     19  C   UNL d   1     -58.877 -98.906 -44.040  0.00  0.00     0.005 A 
ATOM     20  C   UNL d   1     -57.522 -98.838 -43.563  0.00  0.00     0.061 A 
ATOM     21  C   UNL d   1     -59.152 -98.831 -43.271  0.00  0.00     0.000 A 
ATOM     22  C   UNL d   1     -58.616 -98.760 -42.646  0.00  0.00     0.000 A 
ATOM     23  C   UNL d   1     -57.806 -98.763 -42.791  0.00  0.00     0.005 A 
ATOM     24  C   UNL d   1     -56.754 -98.859 -43.874  0.00  0.00     0.267 A 
ATOM     25  O   UNL d   1     -56.060 -98.805 -43.442  0.00  0.00    -0.267 OA
ENDBRANCH   1  15
BRANCH   1  26
ATOM     26  C   UNL d   1     -56.294 -98.843 -46.026  0.00  0.00     0.022 C 
ATOM     27  C   UNL d   1     -57.050 -98.776 -46.339  0.00  0.00     0.002 C 
ATOM     28  C   UNL d   1     -55.640 -98.762 -46.521  0.00  0.00     0.002 C 
ENDBRANCH   1  26
TORSDOF 5
ENDMDL
