MODEL 1
REMARK VINA RESULT:      -3.3      0.000      0.000
REMARK  7 active torsions:
REMARK  status: ('A' for Active; 'I' for Inactive)
REMARK    1  A    between atoms: C_5  and  N_1 
REMARK    2  A    between atoms: S_12  and  C_2 
REMARK       I    between atoms: N_3  and  C_9 
REMARK    3  A    between atoms: C_15  and  C_4 
REMARK    4  A    between atoms: C_9  and  C_20 
REMARK       I    between atoms: C_10  and  N_14 
REMARK    5  A    between atoms: C_11  and  C_10 
REMARK    6  A    between atoms: C_20  and  S_12 
REMARK    7  A    between atoms: N_14  and  C_15 
ROOT
ATOM      1  N   UNL d   1     -40.740  14.287  20.292  0.00  0.00    -0.268 N 
ATOM      2  C   UNL d   1     -41.442  13.851  20.325  0.00  0.00     0.201 A 
ATOM      3  C   UNL d   1     -40.545  14.403  19.493  0.00  0.00     0.190 A 
ATOM      4  N   UNL d   1     -41.686  13.694  19.544  0.00  0.00    -0.121 NA
ATOM      5  N   UNL d   1     -41.133  14.035  19.031  0.00  0.00    -0.126 NA
ENDROOT
BRANCH   2   6
ATOM      6  S   UNL d   1     -41.829  13.613  21.003  0.00  0.00    -0.043 SA
BRANCH   6   7
ATOM      7  C   UNL d   1     -42.618  13.363  20.972  0.00  0.00     0.099 C 
BRANCH   7   8
ATOM      8  C   UNL d   1     -42.894  12.792  21.485  0.00  0.00     0.271 C 
ATOM      9  N   UNL d   1     -43.682  12.786  21.713  0.00  0.00    -0.273 N 
ATOM     10  C   UNL d   1     -44.032  12.243  22.225  0.00  0.00     0.067 A 
ATOM     11  C   UNL d   1     -44.257  13.320  21.468  0.00  0.00     0.083 A 
ATOM     12  C   UNL d   1     -44.832  12.447  22.296  0.00  0.00     0.018 A 
ATOM     13  C   UNL d   1     -43.720  11.594  22.631  0.00  0.00     0.018 A 
ATOM     14  C   UNL d   1     -45.320  11.995  22.779  0.00  0.00     0.002 A 
ATOM     15  C   UNL d   1     -44.964  13.104  21.833  0.00  0.00     0.021 A 
ATOM     16  C   UNL d   1     -45.015  11.338  23.192  0.00  0.00     0.000 A 
ATOM     17  C   UNL d   1     -44.219  11.142  23.117  0.00  0.00     0.002 A 
ATOM     18  O   UNL d   1     -42.376  12.215  21.778  0.00  0.00    -0.266 OA
ENDBRANCH   7   8
ENDBRANCH   6   7
ENDBRANCH   2   6
BRANCH   1  19
ATOM     19  C   UNL d   1     -40.312  14.556  20.931  0.00  0.00     0.067 A 
ATOM     20  C   UNL d   1     -40.464  15.299  21.244  0.00  0.00     0.016 A 
ATOM     21  C   UNL d   1     -40.030  15.573  21.893  0.00  0.00     0.001 A 
ATOM     22  C   UNL d   1     -41.045  15.777  20.917  0.00  0.00     0.002 C 
ATOM     23  C   UNL d   1     -39.449  15.100  22.222  0.00  0.00     0.000 A 
ATOM     24  C   UNL d   1     -39.298  14.346  21.903  0.00  0.00     0.001 A 
ATOM     25  C   UNL d   1     -39.723  14.073  21.264  0.00  0.00     0.018 A 
ATOM     26  C   UNL d   1     -38.710  13.876  22.243  0.00  0.00     0.000 C 
ENDBRANCH   1  19
BRANCH   3  27
ATOM     27  C   UNL d   1     -39.888  14.810  19.206  0.00  0.00     0.141 C 
BRANCH  27  28
ATOM     28  N   UNL d   1     -39.630  14.681  18.435  0.00  0.00    -0.202 NA
ATOM     29  C   UNL d   1     -38.991  15.117  18.142  0.00  0.00     0.302 C 
ATOM     30  O   UNL d   1     -38.620  15.675  18.625  0.00  0.00    -0.263 OA
BRANCH  29  31
ATOM     31  C   UNL d   1     -38.721  14.998  17.369  0.00  0.00     0.158 A 
ATOM     32  O   UNL d   1     -38.987  15.406  16.711  0.00  0.00    -0.300 OA
ATOM     33  C   UNL d   1     -38.579  15.122  16.054  0.00  0.00     0.123 A 
ATOM     34  C   UNL d   1     -38.059  14.533  16.322  0.00  0.00     0.029 A 
ATOM     35  C   UNL d   1     -38.150  14.460  17.137  0.00  0.00     0.032 A 
ENDBRANCH  29  31
ENDBRANCH  27  28
ENDBRANCH   3  27
TORSDOF 7
ENDMDL
MODEL 2
REMARK VINA RESULT:      -3.2      1.052      6.076
REMARK  7 active torsions:
REMARK  status: ('A' for Active; 'I' for Inactive)
REMARK    1  A    between atoms: C_5  and  N_1 
REMARK    2  A    between atoms: S_12  and  C_2 
REMARK       I    between atoms: N_3  and  C_9 
REMARK    3  A    between atoms: C_15  and  C_4 
REMARK    4  A    between atoms: C_9  and  C_20 
REMARK       I    between atoms: C_10  and  N_14 
REMARK    5  A    between atoms: C_11  and  C_10 
REMARK    6  A    between atoms: C_20  and  S_12 
REMARK    7  A    between atoms: N_14  and  C_15 
ROOT
ATOM      1  N   UNL d   1     -40.656  14.327  20.212  0.00  0.00    -0.268 N 
ATOM      2  C   UNL d   1     -40.496  14.413  19.406  0.00  0.00     0.201 A 
ATOM      3  C   UNL d   1     -41.398  13.964  20.291  0.00  0.00     0.190 A 
ATOM      4  N   UNL d   1     -41.141  14.103  18.979  0.00  0.00    -0.121 NA
ATOM      5  N   UNL d   1     -41.698  13.826  19.525  0.00  0.00    -0.126 NA
ENDROOT
BRANCH   2   6
ATOM      6  S   UNL d   1     -39.824  14.744  19.081  0.00  0.00    -0.043 SA
BRANCH   6   7
ATOM      7  C   UNL d   1     -39.457  14.395  18.427  0.00  0.00     0.099 C 
BRANCH   7   8
ATOM      8  C   UNL d   1     -39.222  14.848  17.790  0.00  0.00     0.271 C 
ATOM      9  N   UNL d   1     -38.852  14.499  17.146  0.00  0.00    -0.273 N 
ATOM     10  C   UNL d   1     -38.588  14.890  16.470  0.00  0.00     0.067 A 
ATOM     11  C   UNL d   1     -38.683  13.698  17.065  0.00  0.00     0.083 A 
ATOM     12  C   UNL d   1     -38.253  14.323  15.968  0.00  0.00     0.018 A 
ATOM     13  C   UNL d   1     -38.614  15.688  16.255  0.00  0.00     0.018 A 
ATOM     14  C   UNL d   1     -37.941  14.560  15.246  0.00  0.00     0.002 A 
ATOM     15  C   UNL d   1     -38.313  13.598  16.336  0.00  0.00     0.021 A 
ATOM     16  C   UNL d   1     -37.962  15.362  15.019  0.00  0.00     0.000 A 
ATOM     17  C   UNL d   1     -38.297  15.920  15.523  0.00  0.00     0.002 A 
ATOM     18  O   UNL d   1     -39.357  15.666  17.793  0.00  0.00    -0.266 OA
ENDBRANCH   7   8
ENDBRANCH   6   7
ENDBRANCH   2   6
BRANCH   1  19
ATOM     19  C   UNL d   1     -40.170  14.557  20.824  0.00  0.00     0.067 A 
ATOM     20  C   UNL d   1     -40.213  15.323  21.117  0.00  0.00     0.016 A 
ATOM     21  C   UNL d   1     -39.720  15.557  21.738  0.00  0.00     0.001 A 
ATOM     22  C   UNL d   1     -40.742  15.861  20.797  0.00  0.00     0.002 C 
ATOM     23  C   UNL d   1     -39.190  15.023  22.060  0.00  0.00     0.000 A 
ATOM     24  C   UNL d   1     -39.149  14.247  21.762  0.00  0.00     0.001 A 
ATOM     25  C   UNL d   1     -39.632  14.013  21.150  0.00  0.00     0.018 A 
ATOM     26  C   UNL d   1     -38.611  13.716  22.094  0.00  0.00     0.000 C 
ENDBRANCH   1  19
BRANCH   3  27
ATOM     27  C   UNL d   1     -41.775  13.773  21.000  0.00  0.00     0.141 C 
BRANCH  27  28
ATOM     28  N   UNL d   1     -42.593  13.683  21.018  0.00  0.00    -0.202 NA
ATOM     29  C   UNL d   1     -42.933  13.182  21.582  0.00  0.00     0.302 C 
ATOM     30  O   UNL d   1     -42.450  12.780  22.119  0.00  0.00    -0.263 OA
BRANCH  29  31
ATOM     31  C   UNL d   1     -43.754  13.081  21.612  0.00  0.00     0.158 A 
ATOM     32  O   UNL d   1     -44.166  12.471  21.254  0.00  0.00    -0.300 OA
ATOM     33  C   UNL d   1     -44.967  12.574  21.418  0.00  0.00     0.123 A 
ATOM     34  C   UNL d   1     -45.038  13.258  21.883  0.00  0.00     0.029 A 
ATOM     35  C   UNL d   1     -44.284  13.569  22.001  0.00  0.00     0.032 A 
ENDBRANCH  29  31
ENDBRANCH  27  28
ENDBRANCH   3  27
TORSDOF 7
ENDMDL
