MODEL 1
REMARK VINA RESULT:      52.4      0.000      0.000
REMARK  5 active torsions:
REMARK  status: ('A' for Active; 'I' for Inactive)
REMARK    1  A    between atoms: C_6  and  C_3 
REMARK    2  A    between atoms: C_7  and  C_6 
REMARK    3  A    between atoms: C_8  and  C_7 
REMARK    4  A    between atoms: O_16  and  C_10 
REMARK    5  A    between atoms: O_17  and  C_12 
ROOT
ATOM      1  C   UNL d   1     -51.359  26.652  34.018  0.00  0.00     0.198 C 
ATOM      2  O   UNL d   1     -52.117  26.742  34.338  0.00  0.00    -0.286 OA
ENDROOT
BRANCH   1   3
ATOM      3  C   UNL d   1     -51.260  26.236  33.306  0.00  0.00     0.067 C 
BRANCH   3   4
ATOM      4  C   UNL d   1     -51.275  25.414  33.307  0.00  0.00     0.107 A 
ATOM      5  O   UNL d   1     -50.613  24.905  33.307  0.00  0.00    -0.273 OA
ATOM      6  C   UNL d   1     -50.885  24.132  33.308  0.00  0.00     0.300 A 
ATOM      7  C   UNL d   1     -51.714  24.151  33.309  0.00  0.00     0.065 A 
ATOM      8  O   UNL d   1     -50.418  23.448  33.309  0.00  0.00    -0.259 OA
ATOM      9  C   UNL d   1     -51.950  24.942  33.308  0.00  0.00     0.028 A 
ATOM     10  C   UNL d   1     -52.277  23.549  33.309  0.00  0.00     0.005 A 
ATOM     11  C   UNL d   1     -52.759  25.136  33.308  0.00  0.00     0.002 A 
ATOM     12  C   UNL d   1     -53.322  24.534  33.309  0.00  0.00     0.000 A 
ATOM     13  C   UNL d   1     -53.079  23.738  33.310  0.00  0.00     0.000 A 
ENDBRANCH   3   4
ENDBRANCH   1   3
BRANCH   1  14
ATOM     14  C   UNL d   1     -50.705  26.971  34.399  0.00  0.00     0.041 A 
ATOM     15  C   UNL d   1     -50.719  27.068  35.216  0.00  0.00     0.029 A 
ATOM     16  C   UNL d   1     -50.067  27.387  35.609  0.00  0.00     0.116 A 
ATOM     17  C   UNL d   1     -49.398  27.610  35.178  0.00  0.00     0.116 A 
ATOM     18  C   UNL d   1     -49.387  27.511  34.355  0.00  0.00     0.026 A 
ATOM     19  C   UNL d   1     -50.042  27.192  33.973  0.00  0.00     0.005 A 
BRANCH  16  20
ATOM     20  O   UNL d   1     -50.081  27.484  36.425  0.00  0.00    -0.326 OA
ATOM     21  C   UNL d   1     -50.438  26.908  36.904  0.00  0.00     0.181 C 
ENDBRANCH  16  20
BRANCH  17  22
ATOM     22  O   UNL d   1     -48.743  27.929  35.560  0.00  0.00    -0.326 OA
ATOM     23  C   UNL d   1     -48.229  28.438  35.157  0.00  0.00     0.181 C 
ENDBRANCH  17  22
ENDBRANCH   1  14
TORSDOF 5
ENDMDL
