MODEL 1
REMARK VINA RESULT:      22.5      0.000      0.000
REMARK  3 active torsions:
REMARK  status: ('A' for Active; 'I' for Inactive)
REMARK    1  A    between atoms: N_4  and  C_1 
REMARK       I    between atoms: C_8  and  N_4 
REMARK    2  A    between atoms: C_16  and  C_8 
REMARK       I    between atoms: C_9  and  N_10 
REMARK    3  A    between atoms: N_10  and  C_11 
ROOT
ATOM      1  C   UNL d   1      15.054  14.291  -0.453  0.00  0.00     0.197 A 
ATOM      2  N   UNL d   1      15.054  13.588  -0.075  0.00  0.00    -0.221 NA
ATOM      3  S   UNL d   1      14.777  14.216  -1.192  0.00  0.00    -0.047 SA
ATOM      4  C   UNL d   1      14.588  13.451  -1.312  0.00  0.00     0.051 A 
ATOM      5  C   UNL d   1      14.762  13.055  -0.609  0.00  0.00     0.090 A 
ATOM      6  C   UNL d   1      14.283  13.031  -1.946  0.00  0.00     0.027 A 
ATOM      7  C   UNL d   1      14.149  12.226  -1.892  0.00  0.00     0.085 A 
ATOM      8  C   UNL d   1      14.633  12.238  -0.536  0.00  0.00     0.021 A 
ATOM      9  C   UNL d   1      14.323  11.830  -1.189  0.00  0.00     0.021 A 
ENDROOT
BRANCH   1  10
ATOM     10  N   UNL d   1      15.315  14.994  -0.095  0.00  0.00    -0.183 NA
ATOM     11  C   UNL d   1      15.311  15.726  -0.487  0.00  0.00     0.281 C 
ATOM     12  O   UNL d   1      15.032  15.748  -1.270  0.00  0.00    -0.265 OA
BRANCH  11  13
ATOM     13  C   UNL d   1      15.568  16.392  -0.122  0.00  0.00     0.063 C 
ATOM     14  C   UNL d   1      15.849  17.038  -0.562  0.00  0.00     0.005 C 
ENDBRANCH  11  13
ENDBRANCH   1  10
BRANCH   7  15
ATOM     15  N   UNL d   1      13.835  11.781  -2.538  0.00  0.00    -0.208 NA
ATOM     16  C   UNL d   1      13.549  12.186  -3.190  0.00  0.00     0.279 C 
ATOM     17  O   UNL d   1      13.567  13.017  -3.218  0.00  0.00    -0.265 OA
ATOM     18  C   UNL d   1      13.234  11.780  -3.842  0.00  0.00     0.068 C 
ENDBRANCH   7  15
TORSDOF 3
ENDMDL
MODEL 2
REMARK VINA RESULT:      23.2      2.423      3.523
REMARK  3 active torsions:
REMARK  status: ('A' for Active; 'I' for Inactive)
REMARK    1  A    between atoms: N_4  and  C_1 
REMARK       I    between atoms: C_8  and  N_4 
REMARK    2  A    between atoms: C_16  and  C_8 
REMARK       I    between atoms: C_9  and  N_10 
REMARK    3  A    between atoms: N_10  and  C_11 
ROOT
ATOM      1  C   UNL d   1      13.765  12.191  -2.388  0.00  0.00     0.197 A 
ATOM      2  N   UNL d   1      13.455  11.779  -2.998  0.00  0.00    -0.221 NA
ATOM      3  S   UNL d   1      13.796  12.966  -2.556  0.00  0.00    -0.047 SA
ATOM      4  C   UNL d   1      13.503  13.074  -3.290  0.00  0.00     0.051 A 
ATOM      5  C   UNL d   1      13.288  12.327  -3.567  0.00  0.00     0.090 A 
ATOM      6  C   UNL d   1      13.389  13.730  -3.767  0.00  0.00     0.027 A 
ATOM      7  C   UNL d   1      13.066  13.655  -4.515  0.00  0.00     0.085 A 
ATOM      8  C   UNL d   1      12.958  12.232  -4.324  0.00  0.00     0.021 A 
ATOM      9  C   UNL d   1      12.851  12.909  -4.793  0.00  0.00     0.021 A 
ENDROOT
BRANCH   1  10
ATOM     10  N   UNL d   1      14.014  11.831  -1.681  0.00  0.00    -0.183 NA
ATOM     11  C   UNL d   1      14.609  12.152  -1.200  0.00  0.00     0.281 C 
ATOM     12  O   UNL d   1      14.966  12.863  -1.441  0.00  0.00    -0.265 OA
BRANCH  11  13
ATOM     13  C   UNL d   1      14.834  11.787  -0.523  0.00  0.00     0.063 C 
ATOM     14  C   UNL d   1      15.405  12.127  -0.024  0.00  0.00     0.005 C 
ENDBRANCH  11  13
ENDBRANCH   1  10
BRANCH   7  15
ATOM     15  N   UNL d   1      12.943  14.323  -5.018  0.00  0.00    -0.208 NA
ATOM     16  C   UNL d   1      13.113  15.069  -4.725  0.00  0.00     0.279 C 
ATOM     17  O   UNL d   1      13.401  15.170  -3.952  0.00  0.00    -0.265 OA
ATOM     18  C   UNL d   1      13.004  15.747  -5.193  0.00  0.00     0.068 C 
ENDBRANCH   7  15
TORSDOF 3
ENDMDL
