MODEL 1
REMARK VINA RESULT:      54.0      0.000      0.000
REMARK  5 active torsions:
REMARK  status: ('A' for Active; 'I' for Inactive)
REMARK    1  A    between atoms: C_12  and  C_4 
REMARK    2  A    between atoms: N_10  and  C_5 
REMARK    3  A    between atoms: C_11  and  C_8 
REMARK    4  A    between atoms: C_14  and  N_10 
REMARK    5  A    between atoms: C_15  and  C_14 
ROOT
ATOM      1  C   UNL d   1      13.620  14.123  -4.083  0.00  0.00     0.167 A 
ATOM      2  N   UNL d   1      13.571  13.722  -3.348  0.00  0.00    -0.195 N 
ATOM      3  N   UNL d   1      13.554  13.702  -4.780  0.00  0.00    -0.231 NA
ATOM      4  C   UNL d   1      13.734  14.923  -4.102  0.00  0.00     0.057 A 
ATOM      5  C   UNL d   1      13.458  12.924  -3.353  0.00  0.00     0.167 A 
ATOM      6  N   UNL d   1      13.750  14.942  -2.686  0.00  0.00    -0.161 NA
ATOM      7  C   UNL d   1      13.390  12.492  -4.046  0.00  0.00     0.054 A 
ATOM      8  C   UNL d   1      13.438  12.886  -4.769  0.00  0.00     0.063 A 
ATOM      9  C   UNL d   1      13.799  15.336  -3.410  0.00  0.00     0.124 A 
ENDROOT
BRANCH   5  10
ATOM     10  N   UNL d   1      13.407  12.517  -2.606  0.00  0.00    -0.224 NA
BRANCH  10  11
ATOM     11  C   UNL d   1      13.661  11.812  -2.215  0.00  0.00     0.120 C 
BRANCH  11  12
ATOM     12  C   UNL d   1      14.098  11.849  -1.492  0.00  0.00     0.101 A 
ATOM     13  N   UNL d   1      14.942  11.954  -1.509  0.00  0.00    -0.242 NA
ATOM     14  C   UNL d   1      15.374  11.991  -0.778  0.00  0.00     0.099 A 
ATOM     15  C   UNL d   1      14.964  11.921  -0.034  0.00  0.00     0.021 A 
ATOM     16  C   UNL d   1      14.113  11.815  -0.028  0.00  0.00     0.003 A 
ATOM     17  C   UNL d   1      13.687  11.780  -0.754  0.00  0.00     0.021 A 
ENDBRANCH  11  12
ENDBRANCH  10  11
ENDBRANCH   5  10
BRANCH   8  18
ATOM     18  C   UNL d   1      13.370  12.450  -5.500  0.00  0.00     0.036 C 
ATOM     19  C   UNL d   1      13.298  12.024  -6.222  0.00  0.00     0.006 C 
ATOM     20  C   UNL d   1      13.877  11.783  -5.641  0.00  0.00     0.006 C 
ATOM     21  C   UNL d   1      12.792  12.687  -6.083  0.00  0.00     0.006 C 
ENDBRANCH   8  18
BRANCH   4  22
ATOM     22  C   UNL d   1      13.782  15.317  -4.825  0.00  0.00     0.004 A 
ATOM     23  C   UNL d   1      13.108  15.559  -5.187  0.00  0.00     0.000 A 
ATOM     24  C   UNL d   1      13.157  15.953  -5.911  0.00  0.00     0.000 A 
ATOM     25  C   UNL d   1      13.879  16.093  -6.249  0.00  0.00     0.000 A 
ATOM     26  C   UNL d   1      14.560  15.844  -5.875  0.00  0.00     0.000 A 
ATOM     27  C   UNL d   1      14.511  15.450  -5.152  0.00  0.00     0.000 A 
ENDBRANCH   4  22
TORSDOF 5
ENDMDL
