MODEL 1
REMARK VINA RESULT:      59.6      0.000      0.000
REMARK  9 active torsions:
REMARK  status: ('A' for Active; 'I' for Inactive)
REMARK    1  A    between atoms: C_9  and  N_1 
REMARK    2  A    between atoms: C_6  and  C_2 
REMARK    3  A    between atoms: S_11  and  C_3 
REMARK    4  A    between atoms: C_7  and  C_6 
REMARK    5  A    between atoms: C_20  and  C_9 
REMARK       I    between atoms: N_10  and  C_12 
REMARK    6  A    between atoms: C_13  and  N_10 
REMARK    7  A    between atoms: C_19  and  S_11 
REMARK    8  A    between atoms: C_12  and  C_19 
REMARK    9  A    between atoms: C_23  and  C_20 
ROOT
ATOM      1  N   UNL d   1      13.961  15.189  -3.959  0.00  0.00    -0.268 N 
ATOM      2  C   UNL d   1      13.524  14.488  -3.991  0.00  0.00     0.172 A 
ATOM      3  C   UNL d   1      13.815  15.616  -4.648  0.00  0.00     0.201 A 
ATOM      4  N   UNL d   1      13.108  14.482  -4.699  0.00  0.00    -0.128 NA
ATOM      5  N   UNL d   1      13.284  15.175  -5.110  0.00  0.00    -0.121 NA
ENDROOT
BRANCH   3   6
ATOM      6  S   UNL d   1      14.135  16.344  -4.847  0.00  0.00    -0.043 SA
BRANCH   6   7
ATOM      7  C   UNL d   1      14.040  16.646  -5.608  0.00  0.00     0.101 C 
BRANCH   7   8
ATOM      8  C   UNL d   1      13.841  17.441  -5.716  0.00  0.00     0.286 C 
ATOM      9  N   UNL d   1      14.443  18.002  -5.782  0.00  0.00    -0.205 NA
ATOM     10  O   UNL d   1      13.054  17.672  -5.758  0.00  0.00    -0.265 OA
BRANCH   9  11
ATOM     11  C   UNL d   1      14.252  18.783  -5.888  0.00  0.00     0.112 A 
ATOM     12  C   UNL d   1      14.756  19.365  -5.593  0.00  0.00     0.158 A 
ATOM     13  F   UNL d   1      15.452  19.158  -5.193  0.00  0.00    -0.203 F 
ATOM     14  C   UNL d   1      14.576  20.163  -5.692  0.00  0.00     0.031 A 
ATOM     15  C   UNL d   1      13.879  20.373  -6.093  0.00  0.00     0.002 A 
ATOM     16  C   UNL d   1      13.375  19.787  -6.387  0.00  0.00     0.002 A 
ATOM     17  C   UNL d   1      13.567  18.989  -6.281  0.00  0.00     0.021 A 
ENDBRANCH   9  11
ENDBRANCH   7   8
ENDBRANCH   6   7
ENDBRANCH   3   6
BRANCH   1  18
ATOM     18  C   UNL d   1      14.458  15.419  -3.341  0.00  0.00     0.084 C 
BRANCH  18  19
ATOM     19  C   UNL d   1      14.173  15.935  -2.750  0.00  0.00     0.019 C 
BRANCH  19  20
ATOM     20  C   UNL d   1      14.645  16.114  -2.093  0.00  0.00     0.002 A 
ATOM     21  C   UNL d   1      14.771  15.543  -1.520  0.00  0.00     0.000 A 
ATOM     22  C   UNL d   1      15.241  15.726  -0.868  0.00  0.00     0.000 A 
ATOM     23  C   UNL d   1      15.578  16.480  -0.798  0.00  0.00     0.000 A 
ATOM     24  C   UNL d   1      15.446  17.052  -1.381  0.00  0.00     0.000 A 
ATOM     25  C   UNL d   1      14.975  16.858  -2.030  0.00  0.00     0.000 A 
ENDBRANCH  19  20
ENDBRANCH  18  19
ENDBRANCH   1  18
BRANCH   2  26
ATOM     26  C   UNL d   1      13.507  13.897  -3.413  0.00  0.00     0.057 C 
BRANCH  26  27
ATOM     27  C   UNL d   1      13.363  13.116  -3.624  0.00  0.00     0.067 A 
ATOM     28  N   UNL d   1      13.559  12.445  -3.184  0.00  0.00    -0.303 N 
ATOM     29  C   UNL d   1      13.312  11.779  -3.606  0.00  0.00     0.080 A 
ATOM     30  C   UNL d   1      13.936  12.445  -2.452  0.00  0.00     0.100 C 
ATOM     31  C   UNL d   1      12.963  12.034  -4.307  0.00  0.00     0.021 A 
ATOM     32  C   UNL d   1      12.993  12.856  -4.321  0.00  0.00     0.019 A 
ENDBRANCH  26  27
ENDBRANCH   2  26
TORSDOF 9
ENDMDL
