MODEL 1
REMARK VINA RESULT:      -8.5      0.000      0.000
REMARK  3 active torsions:
REMARK  status: ('A' for Active; 'I' for Inactive)
REMARK    1  A    between atoms: C_2  and  C_1 
REMARK    2  A    between atoms: C_4  and  C_1 
REMARK       I    between atoms: N_3  and  C_2 
REMARK    3  A    between atoms: C_6  and  N_5 
ROOT
ATOM      1  C   UNL d   1     -49.671  13.216  22.040  0.00  0.00     0.253 C 
ATOM      2  N   UNL d   1     -48.862  13.128  22.168  0.00  0.00    -0.272 N 
ATOM      3  N   UNL d   1     -47.253  12.937  22.331  0.00  0.00    -0.299 N 
ATOM      4  O   UNL d   1     -49.981  13.122  21.285  0.00  0.00    -0.271 OA
ATOM      5  C   UNL d   1     -48.392  12.946  21.521  0.00  0.00     0.102 A 
ATOM      6  C   UNL d   1     -48.523  13.212  22.893  0.00  0.00     0.102 A 
ATOM      7  C   UNL d   1     -47.593  12.850  21.593  0.00  0.00     0.100 A 
ATOM      8  C   UNL d   1     -47.713  13.118  22.984  0.00  0.00     0.100 A 
ENDROOT
BRANCH   1   9
ATOM      9  C   UNL d   1     -50.177  13.398  22.667  0.00  0.00     0.137 A 
ATOM     10  C   UNL d   1     -50.675  13.580  23.285  0.00  0.00     0.018 A 
ATOM     11  C   UNL d   1     -51.064  12.971  23.698  0.00  0.00     0.119 A 
ATOM     12  O   UNL d   1     -50.949  12.194  23.487  0.00  0.00    -0.304 OA
ATOM     13  C   UNL d   1     -50.446  12.008  22.863  0.00  0.00     0.119 A 
ATOM     14  C   UNL d   1     -50.057  12.610  22.450  0.00  0.00     0.018 A 
BRANCH   9  15
ATOM     15  C   UNL d   1     -50.293  14.189  22.880  0.00  0.00     0.023 A 
ATOM     16  S   UNL d   1     -50.531  14.808  22.381  0.00  0.00    -0.090 SA
ATOM     17  C   UNL d   1     -50.578  15.503  22.820  0.00  0.00     0.035 A 
ATOM     18  C   UNL d   1     -50.373  15.336  23.596  0.00  0.00     0.007 A 
ATOM     19  C   UNL d   1     -50.195  14.521  23.636  0.00  0.00     0.004 A 
ENDBRANCH   9  15
ENDBRANCH   1   9
BRANCH   3  20
ATOM     20  C   UNL d   1     -46.455  12.844  22.423  0.00  0.00     0.092 A 
ATOM     21  C   UNL d   1     -46.160  12.196  22.834  0.00  0.00     0.156 A 
ATOM     22  F   UNL d   1     -46.664  11.646  23.150  0.00  0.00    -0.203 F 
ATOM     23  C   UNL d   1     -45.358  12.103  22.926  0.00  0.00     0.031 A 
ATOM     24  C   UNL d   1     -44.838  12.658  22.607  0.00  0.00     0.002 A 
ATOM     25  C   UNL d   1     -45.137  13.309  22.195  0.00  0.00     0.002 A 
ATOM     26  C   UNL d   1     -45.951  13.401  22.103  0.00  0.00     0.020 A 
ENDBRANCH   3  20
TORSDOF 3
ENDMDL
MODEL 2
REMARK VINA RESULT:      -8.4      1.048      1.827
REMARK  3 active torsions:
REMARK  status: ('A' for Active; 'I' for Inactive)
REMARK    1  A    between atoms: C_2  and  C_1 
REMARK    2  A    between atoms: C_4  and  C_1 
REMARK       I    between atoms: N_3  and  C_2 
REMARK    3  A    between atoms: C_6  and  N_5 
ROOT
ATOM      1  C   UNL d   1     -49.372  14.111  22.927  0.00  0.00     0.253 C 
ATOM      2  N   UNL d   1     -48.609  13.823  22.812  0.00  0.00    -0.272 N 
ATOM      3  N   UNL d   1     -47.069  13.321  22.641  0.00  0.00    -0.299 N 
ATOM      4  O   UNL d   1     -49.499  14.758  23.417  0.00  0.00    -0.271 OA
ATOM      5  C   UNL d   1     -47.996  14.205  23.201  0.00  0.00     0.102 A 
ATOM      6  C   UNL d   1     -48.447  13.193  22.340  0.00  0.00     0.102 A 
ATOM      7  C   UNL d   1     -47.229  13.962  23.122  0.00  0.00     0.100 A 
ATOM      8  C   UNL d   1     -47.673  12.933  22.248  0.00  0.00     0.100 A 
ENDROOT
BRANCH   1   9
ATOM      9  C   UNL d   1     -50.015  13.753  22.552  0.00  0.00     0.137 A 
ATOM     10  C   UNL d   1     -50.650  13.400  22.183  0.00  0.00     0.018 A 
ATOM     11  C   UNL d   1     -50.948  13.717  21.474  0.00  0.00     0.119 A 
ATOM     12  O   UNL d   1     -50.609  14.380  21.147  0.00  0.00    -0.304 OA
ATOM     13  C   UNL d   1     -49.968  14.739  21.518  0.00  0.00     0.119 A 
ATOM     14  C   UNL d   1     -49.668  14.427  22.223  0.00  0.00     0.018 A 
BRANCH   9  15
ATOM     15  C   UNL d   1     -50.359  13.079  22.886  0.00  0.00     0.023 A 
ATOM     16  S   UNL d   1     -50.842  13.051  23.560  0.00  0.00    -0.090 SA
ATOM     17  C   UNL d   1     -51.064  12.270  23.698  0.00  0.00     0.035 A 
ATOM     18  C   UNL d   1     -50.728  11.798  23.119  0.00  0.00     0.007 A 
ATOM     19  C   UNL d   1     -50.289  12.297  22.613  0.00  0.00     0.004 A 
ENDBRANCH   9  15
ENDBRANCH   1   9
BRANCH   3  20
ATOM     20  C   UNL d   1     -46.308  13.063  22.550  0.00  0.00     0.092 A 
ATOM     21  C   UNL d   1     -46.027  12.439  23.004  0.00  0.00     0.156 A 
ATOM     22  F   UNL d   1     -46.508  12.076  23.546  0.00  0.00    -0.203 F 
ATOM     23  C   UNL d   1     -45.262  12.180  22.911  0.00  0.00     0.031 A 
ATOM     24  C   UNL d   1     -44.766  12.544  22.362  0.00  0.00     0.002 A 
ATOM     25  C   UNL d   1     -45.051  13.171  21.907  0.00  0.00     0.002 A 
ATOM     26  C   UNL d   1     -45.827  13.432  22.003  0.00  0.00     0.020 A 
ENDBRANCH   3  20
TORSDOF 3
ENDMDL
MODEL 3
REMARK VINA RESULT:      -8.1      9.133     10.373
REMARK  3 active torsions:
REMARK  status: ('A' for Active; 'I' for Inactive)
REMARK    1  A    between atoms: C_2  and  C_1 
REMARK    2  A    between atoms: C_4  and  C_1 
REMARK       I    between atoms: N_3  and  C_2 
REMARK    3  A    between atoms: C_6  and  N_5 
ROOT
ATOM      1  C   UNL d   1     -40.327  14.248  18.273  0.00  0.00     0.253 C 
ATOM      2  N   UNL d   1     -40.082  14.452  19.032  0.00  0.00    -0.272 N 
ATOM      3  N   UNL d   1     -39.672  14.814  20.566  0.00  0.00    -0.299 N 
ATOM      4  O   UNL d   1     -41.024  13.827  18.165  0.00  0.00    -0.271 OA
ATOM      5  C   UNL d   1     -40.556  14.221  19.660  0.00  0.00     0.102 A 
ATOM      6  C   UNL d   1     -39.406  14.864  19.176  0.00  0.00     0.102 A 
ATOM      7  C   UNL d   1     -40.360  14.396  20.424  0.00  0.00     0.100 A 
ATOM      8  C   UNL d   1     -39.192  15.050  19.946  0.00  0.00     0.100 A 
ENDROOT
BRANCH   1   9
ATOM      9  C   UNL d   1     -39.877  14.463  17.615  0.00  0.00     0.137 A 
ATOM     10  C   UNL d   1     -39.432  14.675  16.966  0.00  0.00     0.018 A 
ATOM     11  C   UNL d   1     -39.641  15.344  16.518  0.00  0.00     0.119 A 
ATOM     12  O   UNL d   1     -40.290  15.790  16.725  0.00  0.00    -0.304 OA
ATOM     13  C   UNL d   1     -40.741  15.578  17.381  0.00  0.00     0.119 A 
ATOM     14  C   UNL d   1     -40.536  14.913  17.828  0.00  0.00     0.018 A 
BRANCH   9  15
ATOM     15  C   UNL d   1     -39.217  14.010  17.405  0.00  0.00     0.023 A 
ATOM     16  S   UNL d   1     -38.466  14.294  17.197  0.00  0.00    -0.090 SA
ATOM     17  C   UNL d   1     -37.975  13.655  17.029  0.00  0.00     0.035 A 
ATOM     18  C   UNL d   1     -38.404  12.964  17.128  0.00  0.00     0.007 A 
ATOM     19  C   UNL d   1     -39.176  13.181  17.361  0.00  0.00     0.004 A 
ENDBRANCH   9  15
ENDBRANCH   1   9
BRANCH   3  20
ATOM     20  C   UNL d   1     -39.459  14.999  21.324  0.00  0.00     0.092 A 
ATOM     21  C   UNL d   1     -39.042  14.456  21.779  0.00  0.00     0.156 A 
ATOM     22  F   UNL d   1     -38.840  13.734  21.473  0.00  0.00    -0.203 F 
ATOM     23  C   UNL d   1     -38.828  14.643  22.541  0.00  0.00     0.031 A 
ATOM     24  C   UNL d   1     -39.030  15.376  22.859  0.00  0.00     0.002 A 
ATOM     25  C   UNL d   1     -39.449  15.920  22.400  0.00  0.00     0.002 A 
ATOM     26  C   UNL d   1     -39.665  15.728  21.628  0.00  0.00     0.020 A 
ENDBRANCH   3  20
TORSDOF 3
ENDMDL
MODEL 4
REMARK VINA RESULT:      -7.3      9.365     10.720
REMARK  3 active torsions:
REMARK  status: ('A' for Active; 'I' for Inactive)
REMARK    1  A    between atoms: C_2  and  C_1 
REMARK    2  A    between atoms: C_4  and  C_1 
REMARK       I    between atoms: N_3  and  C_2 
REMARK    3  A    between atoms: C_6  and  N_5 
ROOT
ATOM      1  C   UNL d   1     -39.793  14.064  17.966  0.00  0.00     0.253 C 
ATOM      2  N   UNL d   1     -39.655  14.289  18.746  0.00  0.00    -0.272 N 
ATOM      3  N   UNL d   1     -39.473  14.714  20.307  0.00  0.00    -0.299 N 
ATOM      4  O   UNL d   1     -40.536  13.797  17.738  0.00  0.00    -0.271 OA
ATOM      5  C   UNL d   1     -40.282  14.236  19.273  0.00  0.00     0.102 A 
ATOM      6  C   UNL d   1     -38.941  14.555  19.005  0.00  0.00     0.102 A 
ATOM      7  C   UNL d   1     -40.200  14.445  20.049  0.00  0.00     0.100 A 
ATOM      8  C   UNL d   1     -38.840  14.771  19.790  0.00  0.00     0.100 A 
ENDROOT
BRANCH   1   9
ATOM      9  C   UNL d   1     -39.187  14.103  17.406  0.00  0.00     0.137 A 
ATOM     10  C   UNL d   1     -38.589  14.143  16.853  0.00  0.00     0.018 A 
ATOM     11  C   UNL d   1     -38.128  13.471  16.690  0.00  0.00     0.119 A 
ATOM     12  O   UNL d   1     -38.271  12.771  17.080  0.00  0.00    -0.304 OA
ATOM     13  C   UNL d   1     -38.874  12.728  17.639  0.00  0.00     0.119 A 
ATOM     14  C   UNL d   1     -39.335  13.395  17.804  0.00  0.00     0.018 A 
BRANCH   9  15
ATOM     15  C   UNL d   1     -39.042  14.815  17.010  0.00  0.00     0.023 A 
ATOM     16  S   UNL d   1     -39.585  15.250  16.557  0.00  0.00    -0.090 SA
ATOM     17  C   UNL d   1     -39.210  15.922  16.263  0.00  0.00     0.035 A 
ATOM     18  C   UNL d   1     -38.433  15.922  16.523  0.00  0.00     0.007 A 
ATOM     19  C   UNL d   1     -38.325  15.236  16.987  0.00  0.00     0.004 A 
ENDBRANCH   9  15
ENDBRANCH   1   9
BRANCH   3  20
ATOM     20  C   UNL d   1     -39.371  14.928  21.081  0.00  0.00     0.092 A 
ATOM     21  C   UNL d   1     -39.095  14.379  21.627  0.00  0.00     0.156 A 
ATOM     22  F   UNL d   1     -38.923  13.621  21.397  0.00  0.00    -0.203 F 
ATOM     23  C   UNL d   1     -38.994  14.595  22.404  0.00  0.00     0.031 A 
ATOM     24  C   UNL d   1     -39.167  15.363  22.647  0.00  0.00     0.002 A 
ATOM     25  C   UNL d   1     -39.444  15.913  22.096  0.00  0.00     0.002 A 
ATOM     26  C   UNL d   1     -39.546  15.692  21.308  0.00  0.00     0.020 A 
ENDBRANCH   3  20
TORSDOF 3
ENDMDL
MODEL 5
REMARK VINA RESULT:      -6.8      8.689     10.583
REMARK  3 active torsions:
REMARK  status: ('A' for Active; 'I' for Inactive)
REMARK    1  A    between atoms: C_2  and  C_1 
REMARK    2  A    between atoms: C_4  and  C_1 
REMARK       I    between atoms: N_3  and  C_2 
REMARK    3  A    between atoms: C_6  and  N_5 
ROOT
ATOM      1  C   UNL d   1     -38.695  15.150  20.325  0.00  0.00     0.253 C 
ATOM      2  N   UNL d   1     -38.658  14.899  19.541  0.00  0.00    -0.272 N 
ATOM      3  N   UNL d   1     -38.516  14.467  17.978  0.00  0.00    -0.299 N 
ATOM      4  O   UNL d   1     -38.195  15.744  20.592  0.00  0.00    -0.271 OA
ATOM      5  C   UNL d   1     -38.110  15.264  19.052  0.00  0.00     0.102 A 
ATOM      6  C   UNL d   1     -39.131  14.321  19.245  0.00  0.00     0.102 A 
ATOM      7  C   UNL d   1     -38.033  15.055  18.275  0.00  0.00     0.100 A 
ATOM      8  C   UNL d   1     -39.067  14.096  18.458  0.00  0.00     0.100 A 
ENDROOT
BRANCH   1   9
ATOM      9  C   UNL d   1     -39.234  14.807  20.848  0.00  0.00     0.137 A 
ATOM     10  C   UNL d   1     -39.767  14.469  21.365  0.00  0.00     0.018 A 
ATOM     11  C   UNL d   1     -39.528  13.845  21.860  0.00  0.00     0.119 A 
ATOM     12  O   UNL d   1     -38.763  13.569  21.832  0.00  0.00    -0.304 OA
ATOM     13  C   UNL d   1     -38.223  13.909  21.311  0.00  0.00     0.119 A 
ATOM     14  C   UNL d   1     -38.457  14.529  20.817  0.00  0.00     0.018 A 
BRANCH   9  15
ATOM     15  C   UNL d   1     -40.012  15.088  20.877  0.00  0.00     0.023 A 
ATOM     16  S   UNL d   1     -40.254  15.857  21.074  0.00  0.00    -0.090 SA
ATOM     17  C   UNL d   1     -41.076  15.897  21.033  0.00  0.00     0.035 A 
ATOM     18  C   UNL d   1     -41.362  15.162  20.811  0.00  0.00     0.007 A 
ATOM     19  C   UNL d   1     -40.704  14.657  20.713  0.00  0.00     0.004 A 
ENDBRANCH   9  15
ENDBRANCH   1   9
BRANCH   3  20
ATOM     20  C   UNL d   1     -38.454  14.244  17.202  0.00  0.00     0.092 A 
ATOM     21  C   UNL d   1     -38.839  14.675  16.618  0.00  0.00     0.156 A 
ATOM     22  F   UNL d   1     -39.284  15.324  16.812  0.00  0.00    -0.203 F 
ATOM     23  C   UNL d   1     -38.776  14.451  15.839  0.00  0.00     0.031 A 
ATOM     24  C   UNL d   1     -38.326  13.791  15.633  0.00  0.00     0.002 A 
ATOM     25  C   UNL d   1     -37.940  13.361  16.223  0.00  0.00     0.002 A 
ATOM     26  C   UNL d   1     -38.005  13.590  17.012  0.00  0.00     0.020 A 
ENDBRANCH   3  20
TORSDOF 3
ENDMDL
