MODEL 1
REMARK VINA RESULT:      58.6      0.000      0.000
REMARK  4 active torsions:
REMARK  status: ('A' for Active; 'I' for Inactive)
REMARK       I    between atoms: C_4  and  N_1 
REMARK    1  A    between atoms: C_7  and  C_3 
REMARK    2  A    between atoms: C_8  and  C_4 
REMARK    3  A    between atoms: C_10  and  C_5 
REMARK    4  A    between atoms: O_23  and  C_18 
ROOT
ATOM      1  N   UNL d   1      13.842  13.107  -2.668  0.00  0.00    -0.194 N 
ATOM      2  N   UNL d   1      13.590  13.398  -3.390  0.00  0.00    -0.163 NA
ATOM      3  C   UNL d   1      14.242  13.712  -2.271  0.00  0.00     0.091 A 
ATOM      4  C   UNL d   1      13.718  12.323  -2.369  0.00  0.00     0.286 C 
ATOM      5  C   UNL d   1      13.836  14.184  -3.439  0.00  0.00     0.103 A 
ATOM      6  C   UNL d   1      14.231  14.370  -2.757  0.00  0.00     0.040 A 
ATOM      7  O   UNL d   1      13.303  11.779  -2.839  0.00  0.00    -0.265 OA
ENDROOT
BRANCH   5   8
ATOM      8  C   UNL d   1      13.699  14.689  -4.079  0.00  0.00     0.019 A 
ATOM      9  C   UNL d   1      13.071  14.550  -4.594  0.00  0.00     0.004 A 
ATOM     10  C   UNL d   1      12.933  15.054  -5.233  0.00  0.00     0.024 A 
ATOM     11  C   UNL d   1      13.431  15.704  -5.357  0.00  0.00     0.094 A 
ATOM     12  C   UNL d   1      14.062  15.846  -4.842  0.00  0.00     0.024 A 
ATOM     13  C   UNL d   1      14.197  15.339  -4.203  0.00  0.00     0.004 A 
BRANCH  11  14
ATOM     14  O   UNL d   1      13.297  16.211  -5.996  0.00  0.00    -0.328 OA
ATOM     15  C   UNL d   1      13.875  16.758  -6.221  0.00  0.00     0.181 C 
ENDBRANCH  11  14
ENDBRANCH   5   8
BRANCH   3  16
ATOM     16  C   UNL d   1      14.585  13.646  -1.517  0.00  0.00     0.057 A 
ATOM     17  C   UNL d   1      15.384  13.500  -1.462  0.00  0.00     0.197 A 
ATOM     18  O   UNL d   1      15.844  13.419  -2.123  0.00  0.00    -0.286 OA
ATOM     19  C   UNL d   1      15.734  13.433  -0.705  0.00  0.00     0.042 A 
ATOM     20  C   UNL d   1      15.281  13.512  -0.016  0.00  0.00     0.003 A 
ATOM     21  C   UNL d   1      14.480  13.659  -0.108  0.00  0.00     0.000 A 
ATOM     22  C   UNL d   1      14.141  13.724  -0.831  0.00  0.00     0.005 A 
ENDBRANCH   3  16
BRANCH   4  23
ATOM     23  C   UNL d   1      13.999  12.113  -1.642  0.00  0.00     0.087 A 
ATOM     24  S   UNL d   1      14.767  11.990  -1.468  0.00  0.00    -0.082 SA
ATOM     25  C   UNL d   1      14.812  11.783  -0.652  0.00  0.00     0.036 A 
ATOM     26  C   UNL d   1      14.037  11.788  -0.348  0.00  0.00     0.008 A 
ATOM     27  C   UNL d   1      13.534  11.993  -0.965  0.00  0.00     0.012 A 
ENDBRANCH   4  23
TORSDOF 4
ENDMDL
