MODEL 1
REMARK VINA RESULT:      -9.3      0.000      0.000
REMARK  5 active torsions:
REMARK  status: ('A' for Active; 'I' for Inactive)
REMARK    1  A    between atoms: C_13  and  C_2 
REMARK       I    between atoms: N_7  and  C_10 
REMARK    2  A    between atoms: S_14  and  C_8 
REMARK    3  A    between atoms: C_20  and  N_9 
REMARK    4  A    between atoms: C_10  and  C_19 
REMARK    5  A    between atoms: C_19  and  S_14 
ROOT
ATOM      1  S   UNL d   1      51.740  34.250  52.762  0.00  0.00    -0.061 SA
ENDROOT
BRANCH   1   2
ATOM      2  C   UNL d   1      52.315  34.174  53.350  0.00  0.00     0.131 A 
ATOM      3  N   UNL d   1      52.676  33.445  53.484  0.00  0.00    -0.156 NA
ATOM      4  N   UNL d   1      53.260  33.368  54.081  0.00  0.00    -0.191 N 
ATOM      5  C   UNL d   1      53.701  32.723  54.330  0.00  0.00     0.187 A 
ATOM      6  C   UNL d   1      53.467  34.023  54.527  0.00  0.00     0.187 A 
ATOM      7  N   UNL d   1      54.191  32.974  54.939  0.00  0.00    -0.127 NA
ATOM      8  N   UNL d   1      54.051  33.778  55.067  0.00  0.00    -0.127 NA
ATOM      9  C   UNL d   1      53.105  34.753  54.393  0.00  0.00     0.043 A 
ATOM     10  C   UNL d   1      52.530  34.828  53.805  0.00  0.00     0.031 A 
BRANCH   5  11
ATOM     11  C   UNL d   1      53.666  31.961  54.030  0.00  0.00     0.038 A 
ATOM     12  C   UNL d   1      54.036  31.776  53.323  0.00  0.00     0.003 A 
ATOM     13  C   UNL d   1      54.002  31.008  53.018  0.00  0.00     0.000 A 
ATOM     14  C   UNL d   1      53.589  30.425  53.437  0.00  0.00     0.000 A 
ATOM     15  C   UNL d   1      53.216  30.606  54.150  0.00  0.00     0.000 A 
ATOM     16  C   UNL d   1      53.254  31.378  54.449  0.00  0.00     0.003 A 
ENDBRANCH   5  11
ENDBRANCH   1   2
BRANCH   1  17
ATOM     17  C   UNL d   1      50.969  34.458  52.966  0.00  0.00     0.098 C 
BRANCH  17  18
ATOM     18  C   UNL d   1      50.384  34.452  52.396  0.00  0.00     0.272 C 
ATOM     19  N   UNL d   1      49.666  34.831  52.547  0.00  0.00    -0.269 N 
ATOM     20  C   UNL d   1      49.083  34.825  51.978  0.00  0.00     0.102 A 
ATOM     21  C   UNL d   1      49.547  35.212  53.270  0.00  0.00     0.102 A 
ATOM     22  C   UNL d   1      48.376  35.198  52.123  0.00  0.00     0.100 A 
ATOM     23  N   UNL d   1      48.241  35.583  52.842  0.00  0.00    -0.301 N 
ATOM     24  C   UNL d   1      48.835  35.586  53.414  0.00  0.00     0.100 A 
ATOM     25  O   UNL d   1      50.506  34.072  51.677  0.00  0.00    -0.266 OA
BRANCH  23  26
ATOM     26  C   UNL d   1      47.525  35.957  52.982  0.00  0.00     0.064 A 
ATOM     27  C   UNL d   1      47.204  35.971  53.738  0.00  0.00     0.018 A 
ATOM     28  C   UNL d   1      46.481  36.350  53.873  0.00  0.00     0.002 A 
ATOM     29  C   UNL d   1      46.089  36.709  53.252  0.00  0.00     0.000 A 
ATOM     30  C   UNL d   1      46.411  36.697  52.482  0.00  0.00     0.002 A 
ATOM     31  C   UNL d   1      47.129  36.320  52.354  0.00  0.00     0.018 A 
ENDBRANCH  23  26
ENDBRANCH  17  18
ENDBRANCH   1  17
TORSDOF 5
ENDMDL
MODEL 2
REMARK VINA RESULT:      -8.8      1.265      2.073
REMARK  5 active torsions:
REMARK  status: ('A' for Active; 'I' for Inactive)
REMARK    1  A    between atoms: C_13  and  C_2 
REMARK       I    between atoms: N_7  and  C_10 
REMARK    2  A    between atoms: S_14  and  C_8 
REMARK    3  A    between atoms: C_20  and  N_9 
REMARK    4  A    between atoms: C_10  and  C_19 
REMARK    5  A    between atoms: C_19  and  S_14 
ROOT
ATOM      1  S   UNL d   1      51.548  34.104  52.921  0.00  0.00    -0.061 SA
ENDROOT
BRANCH   1   2
ATOM      2  C   UNL d   1      51.921  33.369  52.973  0.00  0.00     0.131 A 
ATOM      3  N   UNL d   1      52.614  33.286  53.415  0.00  0.00    -0.156 NA
ATOM      4  N   UNL d   1      52.993  32.540  53.468  0.00  0.00    -0.191 N 
ATOM      5  C   UNL d   1      53.672  32.302  53.860  0.00  0.00     0.187 A 
ATOM      6  C   UNL d   1      52.668  31.897  53.077  0.00  0.00     0.187 A 
ATOM      7  N   UNL d   1      53.778  31.502  53.715  0.00  0.00    -0.127 NA
ATOM      8  N   UNL d   1      53.161  31.243  53.231  0.00  0.00    -0.127 NA
ATOM      9  C   UNL d   1      51.976  31.980  52.635  0.00  0.00     0.043 A 
ATOM     10  C   UNL d   1      51.603  32.715  52.584  0.00  0.00     0.031 A 
BRANCH   5  11
ATOM     11  C   UNL d   1      54.164  32.772  54.316  0.00  0.00     0.038 A 
ATOM     12  C   UNL d   1      54.029  32.857  55.119  0.00  0.00     0.003 A 
ATOM     13  C   UNL d   1      54.523  33.332  55.582  0.00  0.00     0.000 A 
ATOM     14  C   UNL d   1      55.160  33.722  55.225  0.00  0.00     0.000 A 
ATOM     15  C   UNL d   1      55.300  33.640  54.416  0.00  0.00     0.000 A 
ATOM     16  C   UNL d   1      54.800  33.163  53.958  0.00  0.00     0.003 A 
ENDBRANCH   5  11
ENDBRANCH   1   2
BRANCH   1  17
ATOM     17  C   UNL d   1      50.731  34.143  52.832  0.00  0.00     0.098 C 
BRANCH  17  18
ATOM     18  C   UNL d   1      50.316  34.764  53.166  0.00  0.00     0.272 C 
ATOM     19  N   UNL d   1      49.576  34.968  52.862  0.00  0.00    -0.269 N 
ATOM     20  C   UNL d   1      49.164  35.586  53.197  0.00  0.00     0.102 A 
ATOM     21  C   UNL d   1      49.263  34.545  52.226  0.00  0.00     0.102 A 
ATOM     22  C   UNL d   1      48.435  35.790  52.900  0.00  0.00     0.100 A 
ATOM     23  N   UNL d   1      48.107  35.377  52.262  0.00  0.00    -0.301 N 
ATOM     24  C   UNL d   1      48.530  34.752  51.929  0.00  0.00     0.100 A 
ATOM     25  O   UNL d   1      50.631  35.182  53.800  0.00  0.00    -0.266 OA
BRANCH  23  26
ATOM     26  C   UNL d   1      47.372  35.587  51.969  0.00  0.00     0.064 A 
ATOM     27  C   UNL d   1      47.136  35.339  51.222  0.00  0.00     0.018 A 
ATOM     28  C   UNL d   1      46.393  35.555  50.930  0.00  0.00     0.002 A 
ATOM     29  C   UNL d   1      45.895  36.016  51.388  0.00  0.00     0.000 A 
ATOM     30  C   UNL d   1      46.130  36.271  52.147  0.00  0.00     0.002 A 
ATOM     31  C   UNL d   1      46.870  36.053  52.431  0.00  0.00     0.018 A 
ENDBRANCH  23  26
ENDBRANCH  17  18
ENDBRANCH   1  17
TORSDOF 5
ENDMDL
MODEL 3
REMARK VINA RESULT:      -8.0      1.365      6.710
REMARK  5 active torsions:
REMARK  status: ('A' for Active; 'I' for Inactive)
REMARK    1  A    between atoms: C_13  and  C_2 
REMARK       I    between atoms: N_7  and  C_10 
REMARK    2  A    between atoms: S_14  and  C_8 
REMARK    3  A    between atoms: C_20  and  N_9 
REMARK    4  A    between atoms: C_10  and  C_19 
REMARK    5  A    between atoms: C_19  and  S_14 
ROOT
ATOM      1  S   UNL d   1      48.883  35.211  52.444  0.00  0.00    -0.061 SA
ENDROOT
BRANCH   1   2
ATOM      2  C   UNL d   1      48.333  35.596  52.925  0.00  0.00     0.131 A 
ATOM      3  N   UNL d   1      47.542  35.646  52.691  0.00  0.00    -0.156 NA
ATOM      4  N   UNL d   1      46.983  36.036  53.180  0.00  0.00    -0.191 N 
ATOM      5  C   UNL d   1      46.179  36.167  53.088  0.00  0.00     0.187 A 
ATOM      6  C   UNL d   1      47.230  36.366  53.888  0.00  0.00     0.187 A 
ATOM      7  N   UNL d   1      45.917  36.582  53.745  0.00  0.00    -0.127 NA
ATOM      8  N   UNL d   1      46.561  36.709  54.245  0.00  0.00    -0.127 NA
ATOM      9  C   UNL d   1      48.021  36.315  54.121  0.00  0.00     0.043 A 
ATOM     10  C   UNL d   1      48.571  35.931  53.640  0.00  0.00     0.031 A 
BRANCH   5  11
ATOM     11  C   UNL d   1      45.714  35.928  52.458  0.00  0.00     0.038 A 
ATOM     12  C   UNL d   1      45.716  36.352  51.757  0.00  0.00     0.003 A 
ATOM     13  C   UNL d   1      45.246  36.114  51.119  0.00  0.00     0.000 A 
ATOM     14  C   UNL d   1      44.773  35.440  51.195  0.00  0.00     0.000 A 
ATOM     15  C   UNL d   1      44.767  35.009  51.899  0.00  0.00     0.000 A 
ATOM     16  C   UNL d   1      45.240  35.254  52.534  0.00  0.00     0.003 A 
ENDBRANCH   5  11
ENDBRANCH   1   2
BRANCH   1  17
ATOM     17  C   UNL d   1      49.522  34.819  52.784  0.00  0.00     0.098 C 
BRANCH  17  18
ATOM     18  C   UNL d   1      50.096  34.488  52.305  0.00  0.00     0.272 C 
ATOM     19  N   UNL d   1      50.783  34.184  52.646  0.00  0.00    -0.269 N 
ATOM     20  C   UNL d   1      51.355  33.855  52.168  0.00  0.00     0.102 A 
ATOM     21  C   UNL d   1      50.885  34.217  53.465  0.00  0.00     0.102 A 
ATOM     22  C   UNL d   1      52.033  33.555  52.501  0.00  0.00     0.100 A 
ATOM     23  N   UNL d   1      52.150  33.580  53.319  0.00  0.00    -0.301 N 
ATOM     24  C   UNL d   1      51.568  33.915  53.798  0.00  0.00     0.100 A 
ATOM     25  O   UNL d   1      49.991  34.457  51.490  0.00  0.00    -0.266 OA
BRANCH  23  26
ATOM     26  C   UNL d   1      52.836  33.276  53.647  0.00  0.00     0.064 A 
ATOM     27  C   UNL d   1      53.375  33.772  54.020  0.00  0.00     0.018 A 
ATOM     28  C   UNL d   1      54.066  33.460  54.350  0.00  0.00     0.002 A 
ATOM     29  C   UNL d   1      54.210  32.656  54.303  0.00  0.00     0.000 A 
ATOM     30  C   UNL d   1      53.667  32.147  53.925  0.00  0.00     0.002 A 
ATOM     31  C   UNL d   1      52.982  32.464  53.600  0.00  0.00     0.018 A 
ENDBRANCH  23  26
ENDBRANCH  17  18
ENDBRANCH   1  17
TORSDOF 5
ENDMDL
MODEL 4
REMARK VINA RESULT:      -7.3      1.262      6.652
REMARK  5 active torsions:
REMARK  status: ('A' for Active; 'I' for Inactive)
REMARK    1  A    between atoms: C_13  and  C_2 
REMARK       I    between atoms: N_7  and  C_10 
REMARK    2  A    between atoms: S_14  and  C_8 
REMARK    3  A    between atoms: C_20  and  N_9 
REMARK    4  A    between atoms: C_10  and  C_19 
REMARK    5  A    between atoms: C_19  and  S_14 
ROOT
ATOM      1  S   UNL d   1      49.940  34.804  52.833  0.00  0.00    -0.061 SA
ENDROOT
BRANCH   1   2
ATOM      2  C   UNL d   1      49.266  34.910  52.368  0.00  0.00     0.131 A 
ATOM      3  N   UNL d   1      48.572  35.206  52.704  0.00  0.00    -0.156 NA
ATOM      4  N   UNL d   1      47.888  35.314  52.231  0.00  0.00    -0.191 N 
ATOM      5  C   UNL d   1      47.139  35.592  52.415  0.00  0.00     0.187 A 
ATOM      6  C   UNL d   1      47.916  35.122  51.436  0.00  0.00     0.187 A 
ATOM      7  N   UNL d   1      46.690  35.576  51.729  0.00  0.00    -0.127 NA
ATOM      8  N   UNL d   1      47.164  35.286  51.117  0.00  0.00    -0.127 NA
ATOM      9  C   UNL d   1      48.609  34.826  51.099  0.00  0.00     0.043 A 
ATOM     10  C   UNL d   1      49.283  34.720  51.565  0.00  0.00     0.031 A 
BRANCH   5  11
ATOM     11  C   UNL d   1      46.877  35.843  53.150  0.00  0.00     0.038 A 
ATOM     12  C   UNL d   1      47.259  36.454  53.540  0.00  0.00     0.003 A 
ATOM     13  C   UNL d   1      46.997  36.709  54.282  0.00  0.00     0.000 A 
ATOM     14  C   UNL d   1      46.341  36.341  54.628  0.00  0.00     0.000 A 
ATOM     15  C   UNL d   1      45.953  35.726  54.238  0.00  0.00     0.000 A 
ATOM     16  C   UNL d   1      46.222  35.475  53.496  0.00  0.00     0.003 A 
ENDBRANCH   5  11
ENDBRANCH   1   2
BRANCH   1  17
ATOM     17  C   UNL d   1      50.505  34.247  52.615  0.00  0.00     0.098 C 
BRANCH  17  18
ATOM     18  C   UNL d   1      51.244  34.260  52.966  0.00  0.00     0.272 C 
ATOM     19  N   UNL d   1      51.668  33.557  53.046  0.00  0.00    -0.269 N 
ATOM     20  C   UNL d   1      52.403  33.571  53.396  0.00  0.00     0.102 A 
ATOM     21  C   UNL d   1      51.344  32.848  52.771  0.00  0.00     0.102 A 
ATOM     22  C   UNL d   1      52.824  32.880  53.476  0.00  0.00     0.100 A 
ATOM     23  N   UNL d   1      52.514  32.162  53.206  0.00  0.00    -0.301 N 
ATOM     24  C   UNL d   1      51.768  32.154  52.852  0.00  0.00     0.100 A 
ATOM     25  O   UNL d   1      51.563  34.967  53.238  0.00  0.00    -0.266 OA
BRANCH  23  26
ATOM     26  C   UNL d   1      52.943  31.470  53.290  0.00  0.00     0.064 A 
ATOM     27  C   UNL d   1      52.632  30.754  53.034  0.00  0.00     0.018 A 
ATOM     28  C   UNL d   1      53.069  30.058  53.121  0.00  0.00     0.002 A 
ATOM     29  C   UNL d   1      53.812  30.086  53.463  0.00  0.00     0.000 A 
ATOM     30  C   UNL d   1      54.134  30.811  53.724  0.00  0.00     0.002 A 
ATOM     31  C   UNL d   1      53.694  31.498  53.635  0.00  0.00     0.018 A 
ENDBRANCH  23  26
ENDBRANCH  17  18
ENDBRANCH   1  17
TORSDOF 5
ENDMDL
