MODEL 1
REMARK VINA RESULT:       6.9      0.000      0.000
REMARK  4 active torsions:
REMARK  status: ('A' for Active; 'I' for Inactive)
REMARK    1  A    between atoms: C_9  and  C_3 
REMARK    2  A    between atoms: C_6  and  C_10 
REMARK    3  A    between atoms: S_7  and  C_9 
REMARK    4  A    between atoms: C_10  and  S_7 
ROOT
ATOM      1  N   UNL d   1      46.197 -17.923  43.091  0.00  0.00    -0.218 NA
ATOM      2  N   UNL d   1      46.296 -18.519  44.266  0.00  0.00    -0.218 NA
ATOM      3  C   UNL d   1      46.166 -17.789  43.902  0.00  0.00     0.206 A 
ATOM      4  C   UNL d   1      46.341 -18.707  42.959  0.00  0.00     0.101 A 
ATOM      5  C   UNL d   1      46.403 -19.079  43.693  0.00  0.00     0.101 A 
ATOM      6  C   UNL d   1      46.428 -19.158  42.292  0.00  0.00     0.021 A 
ATOM      7  C   UNL d   1      46.550 -19.889  43.733  0.00  0.00     0.021 A 
ATOM      8  C   UNL d   1      46.574 -19.956  42.306  0.00  0.00     0.002 A 
ATOM      9  C   UNL d   1      46.636 -20.328  43.040  0.00  0.00     0.002 A 
ENDROOT
BRANCH   3  10
ATOM     10  C   UNL d   1      46.031 -17.068  44.279  0.00  0.00    -0.027 C 
BRANCH  10  11
ATOM     11  S   UNL d   1      45.896 -16.346  44.656  0.00  0.00    -0.041 SA
BRANCH  11  12
ATOM     12  C   UNL d   1      45.619 -15.700  44.223  0.00  0.00     0.043 C 
BRANCH  12  13
ATOM     13  C   UNL d   1      45.441 -14.992  44.608  0.00  0.00     0.007 C 
ATOM     14  C   UNL d   1      46.010 -14.391  44.649  0.00  0.00     0.001 C 
ATOM     15  C   UNL d   1      44.697 -14.885  44.950  0.00  0.00     0.001 C 
ENDBRANCH  12  13
ENDBRANCH  11  12
ENDBRANCH  10  11
ENDBRANCH   3  10
TORSDOF 4
ENDMDL
MODEL 2
REMARK VINA RESULT:       8.4      1.246      4.516
REMARK  4 active torsions:
REMARK  status: ('A' for Active; 'I' for Inactive)
REMARK    1  A    between atoms: C_9  and  C_3 
REMARK    2  A    between atoms: C_6  and  C_10 
REMARK    3  A    between atoms: S_7  and  C_9 
REMARK    4  A    between atoms: C_10  and  S_7 
ROOT
ATOM      1  N   UNL d   1      45.072 -15.758  44.787  0.00  0.00    -0.218 NA
ATOM      2  N   UNL d   1      46.283 -15.499  44.327  0.00  0.00    -0.218 NA
ATOM      3  C   UNL d   1      45.763 -16.113  44.518  0.00  0.00     0.206 A 
ATOM      4  C   UNL d   1      45.160 -14.956  44.764  0.00  0.00     0.101 A 
ATOM      5  C   UNL d   1      45.916 -14.794  44.476  0.00  0.00     0.101 A 
ATOM      6  C   UNL d   1      44.681 -14.331  44.955  0.00  0.00     0.021 A 
ATOM      7  C   UNL d   1      46.166 -14.014  44.390  0.00  0.00     0.021 A 
ATOM      8  C   UNL d   1      44.904 -13.555  44.879  0.00  0.00     0.002 A 
ATOM      9  C   UNL d   1      45.661 -13.393  44.592  0.00  0.00     0.002 A 
ENDROOT
BRANCH   3  10
ATOM     10  C   UNL d   1      45.910 -16.922  44.451  0.00  0.00    -0.027 C 
BRANCH  10  11
ATOM     11  S   UNL d   1      46.058 -17.731  44.384  0.00  0.00    -0.041 SA
BRANCH  11  12
ATOM     12  C   UNL d   1      46.352 -18.040  43.678  0.00  0.00     0.043 C 
BRANCH  12  13
ATOM     13  C   UNL d   1      46.465 -18.853  43.598  0.00  0.00     0.007 C 
ATOM     14  C   UNL d   1      46.598 -19.318  44.271  0.00  0.00     0.001 C 
ATOM     15  C   UNL d   1      46.446 -19.201  42.850  0.00  0.00     0.001 C 
ENDBRANCH  12  13
ENDBRANCH  11  12
ENDBRANCH  10  11
ENDBRANCH   3  10
TORSDOF 4
ENDMDL
