MODEL 1
REMARK VINA RESULT:      -5.4      0.000      0.000
REMARK  6 active torsions:
REMARK  status: ('A' for Active; 'I' for Inactive)
REMARK    1  A    between atoms: S_2  and  C_1 
REMARK    2  A    between atoms: C_7  and  S_2 
REMARK    3  A    between atoms: N_10  and  C_6 
REMARK    4  A    between atoms: C_18  and  N_10 
REMARK    5  A    between atoms: N_14  and  C_19 
REMARK    6  A    between atoms: C_19  and  C_18 
ROOT
ATOM      1  C   UNL d   1     -41.630-122.718 -51.142  0.00  0.00     0.187 A 
ATOM      2  N   UNL d   1     -41.726-123.162 -51.791  0.00  0.00    -0.208 NA
ATOM      3  C   UNL d   1     -41.314-122.022 -51.365  0.00  0.00     0.118 A 
ATOM      4  S   UNL d   1     -41.216-122.040 -52.155  0.00  0.00    -0.035 SA
ATOM      5  C   UNL d   1     -41.472-122.747 -52.420  0.00  0.00     0.196 A 
ATOM      6 CL   UNL d   1     -41.123-121.397 -50.869  0.00  0.00    -0.073 Cl
ENDROOT
BRANCH   1   7
ATOM      7  S   UNL d   1     -41.821-122.934 -50.376  0.00  0.00     0.228 S 
ATOM      8  O   UNL d   1     -41.155-123.612 -50.311  0.00  0.00    -0.216 OA
ATOM      9  O   UNL d   1     -42.490-122.279 -50.392  0.00  0.00    -0.216 OA
BRANCH   7  10
ATOM     10  C   UNL d   1     -42.025-123.138 -49.608  0.00  0.00     0.089 A 
ATOM     11  C   UNL d   1     -41.467-123.084 -49.004  0.00  0.00     0.011 A 
ATOM     12  C   UNL d   1     -41.667-123.287 -48.232  0.00  0.00     0.001 A 
ATOM     13  C   UNL d   1     -42.433-123.546 -48.064  0.00  0.00     0.000 A 
ATOM     14  C   UNL d   1     -42.998-123.601 -48.668  0.00  0.00     0.001 A 
ATOM     15  C   UNL d   1     -42.637-123.750 -47.291  0.00  0.00     0.000 C 
ATOM     16  C   UNL d   1     -42.786-123.394 -49.441  0.00  0.00     0.011 A 
ENDBRANCH   7  10
ENDBRANCH   1   7
BRANCH   5  17
ATOM     17  N   UNL d   1     -41.470-122.998 -53.205  0.00  0.00    -0.218 NA
BRANCH  17  18
ATOM     18  C   UNL d   1     -41.683-122.484 -53.796  0.00  0.00     0.120 C 
BRANCH  18  19
ATOM     19  C   UNL d   1     -41.704-122.742 -54.587  0.00  0.00     0.101 C 
BRANCH  19  20
ATOM     20  N   UNL d   1     -41.984-122.241 -55.179  0.00  0.00    -0.299 N 
ATOM     21  C   UNL d   1     -42.789-122.141 -55.290  0.00  0.00     0.100 C 
ATOM     22  C   UNL d   1     -41.452-121.837 -55.661  0.00  0.00     0.100 C 
ENDBRANCH  19  20
ENDBRANCH  18  19
ENDBRANCH  17  18
ENDBRANCH   5  17
TORSDOF 6
ENDMDL
MODEL 2
REMARK VINA RESULT:      -4.2      1.353      5.019
REMARK  6 active torsions:
REMARK  status: ('A' for Active; 'I' for Inactive)
REMARK    1  A    between atoms: S_2  and  C_1 
REMARK    2  A    between atoms: C_7  and  S_2 
REMARK    3  A    between atoms: N_10  and  C_6 
REMARK    4  A    between atoms: C_18  and  N_10 
REMARK    5  A    between atoms: N_14  and  C_19 
REMARK    6  A    between atoms: C_19  and  C_18 
ROOT
ATOM      1  C   UNL d   1     -41.386-122.420 -51.975  0.00  0.00     0.187 A 
ATOM      2  N   UNL d   1     -41.382-123.071 -51.525  0.00  0.00    -0.208 NA
ATOM      3  C   UNL d   1     -41.226-121.796 -51.507  0.00  0.00     0.118 A 
ATOM      4  S   UNL d   1     -41.123-122.068 -50.766  0.00  0.00    -0.035 SA
ATOM      5  C   UNL d   1     -41.220-122.859 -50.776  0.00  0.00     0.196 A 
ATOM      6 CL   UNL d   1     -41.176-121.012 -51.745  0.00  0.00    -0.073 Cl
ENDROOT
BRANCH   1   7
ATOM      7  S   UNL d   1     -41.530-122.389 -52.781  0.00  0.00     0.228 S 
ATOM      8  O   UNL d   1     -41.176-121.512 -52.896  0.00  0.00    -0.216 OA
ATOM      9  O   UNL d   1     -41.889-123.252 -52.718  0.00  0.00    -0.216 OA
BRANCH   7  10
ATOM     10  C   UNL d   1     -41.681-122.375 -53.587  0.00  0.00     0.089 A 
ATOM     11  C   UNL d   1     -42.252-121.863 -53.892  0.00  0.00     0.011 A 
ATOM     12  C   UNL d   1     -42.407-121.846 -54.699  0.00  0.00     0.001 A 
ATOM     13  C   UNL d   1     -41.987-122.344 -55.206  0.00  0.00     0.000 A 
ATOM     14  C   UNL d   1     -41.413-122.860 -54.905  0.00  0.00     0.001 A 
ATOM     15  C   UNL d   1     -42.141-122.328 -56.017  0.00  0.00     0.000 C 
ATOM     16  C   UNL d   1     -41.265-122.869 -54.091  0.00  0.00     0.011 A 
ENDBRANCH   7  10
ENDBRANCH   1   7
BRANCH   5  17
ATOM     17  N   UNL d   1     -41.161-123.362 -50.127  0.00  0.00    -0.218 NA
BRANCH  17  18
ATOM     18  C   UNL d   1     -41.544-123.178 -49.435  0.00  0.00     0.120 C 
BRANCH  18  19
ATOM     19  C   UNL d   1     -41.824-123.784 -48.938  0.00  0.00     0.101 C 
BRANCH  19  20
ATOM     20  N   UNL d   1     -42.101-123.605 -48.182  0.00  0.00    -0.299 N 
ATOM     21  C   UNL d   1     -41.598-123.283 -47.622  0.00  0.00     0.100 C 
ATOM     22  C   UNL d   1     -42.889-123.750 -47.988  0.00  0.00     0.100 C 
ENDBRANCH  19  20
ENDBRANCH  18  19
ENDBRANCH  17  18
ENDBRANCH   5  17
TORSDOF 6
ENDMDL
