MODEL 1
REMARK VINA RESULT:      46.0      0.000      0.000
REMARK  6 active torsions:
REMARK  status: ('A' for Active; 'I' for Inactive)
REMARK    1  A    between atoms: C_6  and  C_1 
REMARK    2  A    between atoms: C_8  and  N_2 
REMARK    3  A    between atoms: C_12  and  C_5 
REMARK    4  A    between atoms: C_7  and  C_6 
REMARK    5  A    between atoms: C_18  and  C_8 
REMARK    6  A    between atoms: N_10  and  C_18 
ROOT
ATOM      1  C   UNL d   1      13.652  13.119  -3.230  0.00  0.00     0.099 A 
ATOM      2  N   UNL d   1      14.166  14.128  -2.514  0.00  0.00    -0.269 N 
ATOM      3  C   UNL d   1      13.565  13.799  -3.686  0.00  0.00     0.256 A 
ATOM      4  C   UNL d   1      13.880  14.415  -3.247  0.00  0.00     0.304 A 
ATOM      5  C   UNL d   1      14.013  13.317  -2.525  0.00  0.00     0.073 A 
ATOM      6  O   UNL d   1      13.914  15.199  -3.484  0.00  0.00    -0.263 OA
ATOM      7  O   UNL d   1      13.226  13.844  -4.440  0.00  0.00    -0.281 OA
ENDROOT
BRANCH   2   8
ATOM      8  C   UNL d   1      14.528  14.557  -1.899  0.00  0.00     0.102 C 
BRANCH   8   9
ATOM      9  C   UNL d   1      15.052  15.159  -2.082  0.00  0.00     0.100 C 
BRANCH   9  10
ATOM     10  N   UNL d   1      15.154  15.795  -1.572  0.00  0.00    -0.298 N 
ATOM     11  C   UNL d   1      15.026  16.575  -1.875  0.00  0.00     0.107 A 
ATOM     12  C   UNL d   1      15.127  17.233  -1.364  0.00  0.00     0.142 A 
ATOM     13  O   UNL d   1      15.351  17.100  -0.572  0.00  0.00    -0.300 OA
ATOM     14  C   UNL d   1      15.474  16.343  -0.280  0.00  0.00     0.142 A 
ATOM     15  C   UNL d   1      15.372  15.681  -0.795  0.00  0.00     0.107 A 
ENDBRANCH   9  10
ENDBRANCH   8   9
ENDBRANCH   2   8
BRANCH   5  16
ATOM     16  C   UNL d   1      14.205  12.803  -1.906  0.00  0.00     0.016 A 
ATOM     17  C   UNL d   1      14.960  12.474  -1.861  0.00  0.00     0.001 A 
ATOM     18  C   UNL d   1      15.152  11.966  -1.249  0.00  0.00     0.000 A 
ATOM     19  C   UNL d   1      14.585  11.779  -0.672  0.00  0.00     0.000 A 
ATOM     20  C   UNL d   1      13.834  12.111  -0.724  0.00  0.00     0.000 A 
ATOM     21  C   UNL d   1      13.646  12.626  -1.347  0.00  0.00     0.001 A 
ENDBRANCH   5  16
BRANCH   1  22
ATOM     22  C   UNL d   1      13.408  12.366  -3.462  0.00  0.00     0.206 C 
ATOM     23  O   UNL d   1      13.149  11.839  -2.903  0.00  0.00    -0.286 OA
BRANCH  22  24
ATOM     24  C   UNL d   1      13.427  12.143  -4.277  0.00  0.00     0.069 A 
ATOM     25  S   UNL d   1      12.771  11.968  -4.751  0.00  0.00    -0.083 SA
ATOM     26  C   UNL d   1      13.047  11.780  -5.504  0.00  0.00     0.035 A 
ATOM     27  C   UNL d   1      13.865  11.835  -5.508  0.00  0.00     0.008 A 
ATOM     28  C   UNL d   1      14.102  12.061  -4.744  0.00  0.00     0.010 A 
ENDBRANCH  22  24
ENDBRANCH   1  22
TORSDOF 6
ENDMDL
