MODEL 1
REMARK VINA RESULT:      41.7      0.000      0.000
REMARK  6 active torsions:
REMARK  status: ('A' for Active; 'I' for Inactive)
REMARK    1  A    between atoms: C_5  and  N_1 
REMARK    2  A    between atoms: C_4  and  C_5 
REMARK       I    between atoms: N_8  and  C_4 
REMARK    3  A    between atoms: C_6  and  C_9 
REMARK    4  A    between atoms: O_19  and  C_6 
REMARK    5  A    between atoms: C_16  and  N_8 
REMARK    6  A    between atoms: C_22  and  O_19 
ROOT
ATOM      1  C   UNL d   1      45.126 -17.127  38.663  0.00  0.00     0.297 C 
ATOM      2  N   UNL d   1      45.471 -17.843  38.894  0.00  0.00    -0.207 NA
ATOM      3  O   UNL d   1      44.972 -16.546  39.229  0.00  0.00    -0.264 OA
ENDROOT
BRANCH   2   4
ATOM      4  C   UNL d   1      45.662 -17.976  39.687  0.00  0.00     0.085 A 
ATOM      5  C   UNL d   1      45.062 -18.039  40.251  0.00  0.00     0.019 A 
ATOM      6  C   UNL d   1      45.267 -18.171  41.035  0.00  0.00     0.007 A 
ATOM      7  C   UNL d   1      46.050 -18.241  41.263  0.00  0.00     0.064 A 
ATOM      8  C   UNL d   1      46.647 -18.179  40.697  0.00  0.00     0.007 A 
ATOM      9  C   UNL d   1      46.456 -18.045  39.903  0.00  0.00     0.019 A 
BRANCH   7  10
ATOM     10  C   UNL d   1      46.246 -18.375  42.057  0.00  0.00     0.300 C 
ATOM     11  O   UNL d   1      46.533 -17.753  42.516  0.00  0.00    -0.259 OA
BRANCH  10  12
ATOM     12  O   UNL d   1      46.157 -19.116  42.384  0.00  0.00    -0.271 OA
BRANCH  12  13
ATOM     13  C   UNL d   1      46.548 -19.324  43.076  0.00  0.00     0.126 C 
ATOM     14  C   UNL d   1      46.356 -20.005  43.480  0.00  0.00     0.029 C 
ENDBRANCH  12  13
ENDBRANCH  10  12
ENDBRANCH   7  10
ENDBRANCH   2   4
BRANCH   1  15
ATOM     15  C   UNL d   1      44.935 -16.989  37.882  0.00  0.00     0.148 C 
BRANCH  15  16
ATOM     16  N   UNL d   1      44.941 -16.219  37.584  0.00  0.00    -0.235 N 
ATOM     17  C   UNL d   1      44.225 -15.841  37.408  0.00  0.00     0.274 A 
ATOM     18  O   UNL d   1      43.509 -16.235  37.531  0.00  0.00    -0.266 OA
ATOM     19  C   UNL d   1      44.231 -15.079  37.113  0.00  0.00     0.097 A 
ATOM     20  S   UNL d   1      44.935 -14.680  36.988  0.00  0.00    -0.076 SA
ATOM     21  C   UNL d   1      45.646 -15.051  37.161  0.00  0.00     0.097 A 
ATOM     22  C   UNL d   1      45.657 -15.821  37.460  0.00  0.00     0.274 A 
ATOM     23  O   UNL d   1      46.369 -16.195  37.634  0.00  0.00    -0.266 OA
ENDBRANCH  15  16
ENDBRANCH   1  15
TORSDOF 6
ENDMDL
MODEL 2
REMARK VINA RESULT:      43.2      5.002      6.918
REMARK  6 active torsions:
REMARK  status: ('A' for Active; 'I' for Inactive)
REMARK    1  A    between atoms: C_5  and  N_1 
REMARK    2  A    between atoms: C_4  and  C_5 
REMARK       I    between atoms: N_8  and  C_4 
REMARK    3  A    between atoms: C_6  and  C_9 
REMARK    4  A    between atoms: O_19  and  C_6 
REMARK    5  A    between atoms: C_16  and  N_8 
REMARK    6  A    between atoms: C_22  and  O_19 
ROOT
ATOM      1  C   UNL d   1      45.139 -12.451  42.494  0.00  0.00     0.297 C 
ATOM      2  N   UNL d   1      44.646 -12.086  41.938  0.00  0.00    -0.207 NA
ATOM      3  O   UNL d   1      45.730 -12.968  42.240  0.00  0.00    -0.264 OA
ENDROOT
BRANCH   2   4
ATOM      4  C   UNL d   1      44.745 -12.239  41.131  0.00  0.00     0.085 A 
ATOM      5  C   UNL d   1      44.090 -12.246  40.629  0.00  0.00     0.019 A 
ATOM      6  C   UNL d   1      44.205 -12.399  39.830  0.00  0.00     0.007 A 
ATOM      7  C   UNL d   1      44.951 -12.545  39.528  0.00  0.00     0.064 A 
ATOM      8  C   UNL d   1      45.603 -12.537  40.034  0.00  0.00     0.007 A 
ATOM      9  C   UNL d   1      45.504 -12.384  40.840  0.00  0.00     0.019 A 
BRANCH   7  10
ATOM     10  C   UNL d   1      45.056 -12.698  38.721  0.00  0.00     0.300 C 
ATOM     11  O   UNL d   1      45.276 -12.086  38.214  0.00  0.00    -0.259 OA
BRANCH  10  12
ATOM     12  O   UNL d   1      44.943 -13.450  38.427  0.00  0.00    -0.271 OA
BRANCH  12  13
ATOM     13  C   UNL d   1      45.221 -13.660  37.683  0.00  0.00     0.126 C 
ATOM     14  C   UNL d   1      45.224 -14.438  37.440  0.00  0.00     0.029 C 
ENDBRANCH  12  13
ENDBRANCH  10  12
ENDBRANCH   7  10
ENDBRANCH   2   4
BRANCH   1  15
ATOM     15  C   UNL d   1      45.047 -12.305  43.292  0.00  0.00     0.148 C 
BRANCH  15  16
ATOM     16  N   UNL d   1      45.241 -12.886  43.844  0.00  0.00    -0.235 N 
ATOM     17  C   UNL d   1      45.895 -12.779  44.341  0.00  0.00     0.274 A 
ATOM     18  O   UNL d   1      46.350 -12.091  44.282  0.00  0.00    -0.266 OA
ATOM     19  C   UNL d   1      46.087 -13.355  44.888  0.00  0.00     0.097 A 
ATOM     20  S   UNL d   1      45.641 -14.039  44.954  0.00  0.00    -0.076 SA
ATOM     21  C   UNL d   1      44.993 -14.148  44.464  0.00  0.00     0.097 A 
ATOM     22  C   UNL d   1      44.786 -13.576  43.906  0.00  0.00     0.274 A 
ATOM     23  O   UNL d   1      44.136 -13.684  43.413  0.00  0.00    -0.266 OA
ENDBRANCH  15  16
ENDBRANCH   1  15
TORSDOF 6
ENDMDL
MODEL 3
REMARK VINA RESULT:      43.8      2.112      5.289
REMARK  6 active torsions:
REMARK  status: ('A' for Active; 'I' for Inactive)
REMARK    1  A    between atoms: C_5  and  N_1 
REMARK    2  A    between atoms: C_4  and  C_5 
REMARK       I    between atoms: N_8  and  C_4 
REMARK    3  A    between atoms: C_6  and  C_9 
REMARK    4  A    between atoms: O_19  and  C_6 
REMARK    5  A    between atoms: C_16  and  N_8 
REMARK    6  A    between atoms: C_22  and  O_19 
ROOT
ATOM      1  C   UNL d   1      46.199 -18.064  41.103  0.00  0.00     0.297 C 
ATOM      2  N   UNL d   1      46.543 -17.908  40.366  0.00  0.00    -0.207 NA
ATOM      3  O   UNL d   1      45.396 -17.915  41.220  0.00  0.00    -0.264 OA
ENDROOT
BRANCH   2   4
ATOM      4  C   UNL d   1      46.084 -17.604  39.750  0.00  0.00     0.085 A 
ATOM      5  C   UNL d   1      45.337 -17.920  39.596  0.00  0.00     0.019 A 
ATOM      6  C   UNL d   1      44.893 -17.607  38.980  0.00  0.00     0.007 A 
ATOM      7  C   UNL d   1      45.178 -16.993  38.520  0.00  0.00     0.064 A 
ATOM      8  C   UNL d   1      45.925 -16.680  38.676  0.00  0.00     0.007 A 
ATOM      9  C   UNL d   1      46.384 -16.984  39.293  0.00  0.00     0.019 A 
BRANCH   7  10
ATOM     10  C   UNL d   1      44.722 -16.685  37.901  0.00  0.00     0.300 C 
ATOM     11  O   UNL d   1      44.070 -17.108  37.625  0.00  0.00    -0.259 OA
BRANCH  10  12
ATOM     12  O   UNL d   1      44.915 -15.968  37.565  0.00  0.00    -0.271 OA
BRANCH  12  13
ATOM     13  C   UNL d   1      44.332 -15.436  37.336  0.00  0.00     0.126 C 
ATOM     14  C   UNL d   1      44.293 -15.158  36.571  0.00  0.00     0.029 C 
ENDBRANCH  12  13
ENDBRANCH  10  12
ENDBRANCH   7  10
ENDBRANCH   2   4
BRANCH   1  15
ATOM     15  C   UNL d   1      46.646 -18.364  41.717  0.00  0.00     0.148 C 
BRANCH  15  16
ATOM     16  N   UNL d   1      46.339 -18.957  42.201  0.00  0.00    -0.235 N 
ATOM     17  C   UNL d   1      46.337 -19.743  41.939  0.00  0.00     0.274 A 
ATOM     18  O   UNL d   1      46.643 -19.930  41.194  0.00  0.00    -0.266 OA
ATOM     19  C   UNL d   1      46.033 -20.330  42.419  0.00  0.00     0.097 A 
ATOM     20  S   UNL d   1      45.728 -20.154  43.159  0.00  0.00    -0.076 SA
ATOM     21  C   UNL d   1      45.728 -19.377  43.422  0.00  0.00     0.097 A 
ATOM     22  C   UNL d   1      46.031 -18.773  42.949  0.00  0.00     0.274 A 
ATOM     23  O   UNL d   1      46.033 -17.992  43.211  0.00  0.00    -0.266 OA
ENDBRANCH  15  16
ENDBRANCH   1  15
TORSDOF 6
ENDMDL
