MODEL 1
REMARK VINA RESULT:      33.8      0.000      0.000
REMARK  8 active torsions:
REMARK  status: ('A' for Active; 'I' for Inactive)
REMARK    1  A    between atoms: C_9  and  N_1 
REMARK    2  A    between atoms: S_10  and  C_6 
REMARK    3  A    between atoms: C_19  and  S_10 
REMARK    4  A    between atoms: C_12  and  C_19 
REMARK       I    between atoms: N_14  and  C_12 
REMARK    5  A    between atoms: C_13  and  C_20 
REMARK    6  A    between atoms: O_24  and  C_13 
REMARK    7  A    between atoms: C_20  and  N_14 
REMARK    8  A    between atoms: C_26  and  O_24 
ROOT
ATOM      1  N   UNL d   1      14.303  12.123  -3.263  0.00  0.00    -0.212 N 
ATOM      2  C   UNL d   1      13.858  12.050  -2.577  0.00  0.00     0.169 A 
ATOM      3  N   UNL d   1      15.074  12.268  -3.062  0.00  0.00    -0.162 NA
ATOM      4  C   UNL d   1      14.369  12.151  -1.937  0.00  0.00     0.081 A 
ATOM      5  C   UNL d   1      15.123  12.287  -2.235  0.00  0.00     0.126 A 
ATOM      6  C   UNL d   1      14.081  12.107  -1.168  0.00  0.00     0.117 A 
ATOM      7  N   UNL d   1      13.059  11.904  -2.448  0.00  0.00    -0.205 NA
ATOM      8  N   UNL d   1      13.279  11.961  -1.037  0.00  0.00    -0.217 NA
ATOM      9  C   UNL d   1      12.769  11.859  -1.677  0.00  0.00     0.201 A 
ENDROOT
BRANCH   6  10
ATOM     10  S   UNL d   1      14.592  12.209  -0.529  0.00  0.00    -0.062 SA
BRANCH  10  11
ATOM     11  C   UNL d   1      14.701  12.950  -0.207  0.00  0.00     0.099 C 
BRANCH  11  12
ATOM     12  C   UNL d   1      15.463  13.250  -0.111  0.00  0.00     0.286 C 
ATOM     13  N   UNL d   1      15.578  14.063  -0.018  0.00  0.00    -0.200 NA
ATOM     14  O   UNL d   1      16.111  12.739  -0.108  0.00  0.00    -0.265 OA
BRANCH  13  15
ATOM     15  C   UNL d   1      14.931  14.574  -0.022  0.00  0.00     0.171 C 
BRANCH  15  16
ATOM     16  C   UNL d   1      14.838  15.119  -0.635  0.00  0.00     0.320 C 
ATOM     17  O   UNL d   1      14.171  15.084  -1.121  0.00  0.00    -0.257 OA
BRANCH  16  18
ATOM     18  O   UNL d   1      15.412  15.698  -0.763  0.00  0.00    -0.270 OA
BRANCH  18  19
ATOM     19  C   UNL d   1      15.232  16.493  -0.630  0.00  0.00     0.126 C 
ATOM     20  C   UNL d   1      15.747  17.081  -0.891  0.00  0.00     0.029 C 
ENDBRANCH  18  19
ENDBRANCH  16  18
ENDBRANCH  15  16
ENDBRANCH  13  15
ENDBRANCH  11  12
ENDBRANCH  10  11
ENDBRANCH   6  10
BRANCH   1  21
ATOM     21  C   UNL d   1      13.938  12.047  -4.005  0.00  0.00     0.085 A 
ATOM     22  C   UNL d   1      14.375  12.166  -4.691  0.00  0.00     0.020 A 
ATOM     23  C   UNL d   1      14.017  12.091  -5.423  0.00  0.00     0.013 A 
ATOM     24  C   UNL d   1      13.215  11.897  -5.479  0.00  0.00     0.058 A 
ATOM     25  C   UNL d   1      12.781  11.779  -4.775  0.00  0.00     0.013 A 
ATOM     26 CL   UNL d   1      12.849  11.821  -6.220  0.00  0.00    -0.082 Cl
ATOM     27  C   UNL d   1      13.144  11.855  -4.050  0.00  0.00     0.020 A 
ENDBRANCH   1  21
TORSDOF 8
ENDMDL
