MODEL 1
REMARK VINA RESULT:      28.4      0.000      0.000
REMARK  4 active torsions:
REMARK  status: ('A' for Active; 'I' for Inactive)
REMARK    1  A    between atoms: N_5  and  C_1 
REMARK    2  A    between atoms: C_9  and  C_4 
REMARK    3  A    between atoms: C_8  and  N_5 
REMARK    4  A    between atoms: O_12  and  C_9 
ROOT
ATOM      1  N   UNL d   1      13.912  13.146  -2.521  0.00  0.00    -0.222 NA
ENDROOT
BRANCH   1   2
ATOM      2  C   UNL d   1      13.860  12.733  -1.798  0.00  0.00     0.186 A 
ATOM      3  O   UNL d   1      13.174  12.492  -1.420  0.00  0.00    -0.255 OA
ATOM      4  C   UNL d   1      13.345  12.108  -0.731  0.00  0.00     0.301 A 
ATOM      5  O   UNL d   1      12.787  11.780  -0.192  0.00  0.00    -0.259 OA
ATOM      6  C   UNL d   1      14.167  12.096  -0.656  0.00  0.00     0.067 A 
ATOM      7  C   UNL d   1      14.486  12.483  -1.317  0.00  0.00     0.046 A 
ATOM      8  C   UNL d   1      14.670  11.788  -0.081  0.00  0.00     0.005 A 
ATOM      9  C   UNL d   1      15.305  12.558  -1.394  0.00  0.00     0.004 A 
ATOM     10  C   UNL d   1      15.805  12.249  -0.816  0.00  0.00     0.000 A 
ATOM     11  C   UNL d   1      15.486  11.862  -0.156  0.00  0.00     0.000 A 
ENDBRANCH   1   2
BRANCH   1  12
ATOM     12  C   UNL d   1      13.528  12.869  -3.230  0.00  0.00     0.089 A 
ATOM     13  C   UNL d   1      13.397  13.348  -3.832  0.00  0.00     0.081 A 
ATOM     14  C   UNL d   1      13.025  13.071  -4.512  0.00  0.00     0.007 A 
ATOM     15  C   UNL d   1      12.792  12.269  -4.546  0.00  0.00     0.000 A 
ATOM     16  C   UNL d   1      12.937  11.779  -3.903  0.00  0.00     0.002 A 
ATOM     17  C   UNL d   1      13.307  12.069  -3.236  0.00  0.00     0.019 A 
BRANCH  13  18
ATOM     18  C   UNL d   1      13.644  14.133  -3.756  0.00  0.00     0.297 C 
ATOM     19  O   UNL d   1      14.433  14.303  -3.619  0.00  0.00    -0.259 OA
BRANCH  18  20
ATOM     20  O   UNL d   1      13.089  14.740  -3.820  0.00  0.00    -0.296 OA
ATOM     21  C   UNL d   1      13.295  15.428  -4.244  0.00  0.00     0.185 C 
ENDBRANCH  18  20
ENDBRANCH  13  18
ENDBRANCH   1  12
TORSDOF 4
ENDMDL
