MODEL 1
REMARK VINA RESULT:      73.5      0.000      0.000
REMARK  3 active torsions:
REMARK  status: ('A' for Active; 'I' for Inactive)
REMARK       I    between atoms: N_3  and  C_8 
REMARK    1  A    between atoms: S_12  and  C_6 
REMARK    2  A    between atoms: C_8  and  C_14 
REMARK    3  A    between atoms: C_14  and  S_12 
ROOT
ATOM      1  S   UNL d   1     -49.764  26.311  33.672  0.00  0.00    -0.060 SA
ENDROOT
BRANCH   1   2
ATOM      2  C   UNL d   1     -49.869  27.121  33.767  0.00  0.00     0.137 A 
ATOM      3  C   UNL d   1     -49.285  27.578  34.112  0.00  0.00     0.141 A 
ATOM      4  O   UNL d   1     -48.543  27.388  34.414  0.00  0.00    -0.303 OA
ATOM      5  C   UNL d   1     -49.401  28.386  34.202  0.00  0.00     0.110 A 
ATOM      6  C   UNL d   1     -48.206  28.083  34.689  0.00  0.00     0.102 A 
ATOM      7  C   UNL d   1     -47.473  28.242  35.049  0.00  0.00     0.025 A 
ATOM      8  C   UNL d   1     -48.733  28.696  34.559  0.00  0.00     0.043 A 
ATOM      9  C   UNL d   1     -47.280  29.007  35.271  0.00  0.00     0.002 A 
ATOM     10  C   UNL d   1     -47.808  29.620  35.140  0.00  0.00     0.000 A 
ATOM     11  C   UNL d   1     -48.536  29.468  34.784  0.00  0.00     0.004 A 
ATOM     12  N   UNL d   1     -50.099  28.737  33.948  0.00  0.00    -0.222 NA
ATOM     13  C   UNL d   1     -50.682  28.281  33.604  0.00  0.00     0.200 A 
ATOM     14  N   UNL d   1     -50.578  27.470  33.508  0.00  0.00    -0.215 NA
ENDBRANCH   1   2
BRANCH   1  15
ATOM     15  C   UNL d   1     -50.405  25.825  33.550  0.00  0.00     0.098 C 
BRANCH  15  16
ATOM     16  C   UNL d   1     -50.311  25.001  33.513  0.00  0.00     0.271 C 
ATOM     17  N   UNL d   1     -50.973  24.507  33.444  0.00  0.00    -0.273 N 
ATOM     18  C   UNL d   1     -51.725  24.830  33.412  0.00  0.00     0.067 A 
ATOM     19  C   UNL d   1     -50.876  23.681  33.406  0.00  0.00     0.083 A 
ATOM     20  C   UNL d   1     -52.387  24.342  33.343  0.00  0.00     0.016 A 
ATOM     21  C   UNL d   1     -51.820  25.650  33.449  0.00  0.00     0.018 A 
ATOM     22  C   UNL d   1     -53.153  24.662  33.310  0.00  0.00     0.001 A 
ATOM     23  C   UNL d   1     -52.292  23.522  33.306  0.00  0.00     0.003 A 
ATOM     24  C   UNL d   1     -53.238  25.487  33.348  0.00  0.00     0.000 A 
ATOM     25  C   UNL d   1     -52.580  25.978  33.417  0.00  0.00     0.002 A 
ATOM     26  C   UNL d   1     -51.542  23.195  33.337  0.00  0.00     0.019 A 
ATOM     27  O   UNL d   1     -49.552  24.674  33.545  0.00  0.00    -0.266 OA
ENDBRANCH  15  16
ENDBRANCH   1  15
TORSDOF 3
ENDMDL
