MODEL 1
REMARK VINA RESULT:      -8.6      0.000      0.000
REMARK  5 active torsions:
REMARK  status: ('A' for Active; 'I' for Inactive)
REMARK    1  A    between atoms: N_7  and  C_1 
REMARK    2  A    between atoms: C_12  and  C_2 
REMARK       I    between atoms: C_8  and  N_7 
REMARK    3  A    between atoms: C_10  and  C_8 
REMARK    4  A    between atoms: N_9  and  C_16 
REMARK    5  A    between atoms: C_16  and  C_10 
ROOT
ATOM      1  C   UNL d   1      51.468  33.491  53.359  0.00  0.00     0.142 A 
ATOM      2  C   UNL d   1      52.268  33.589  53.548  0.00  0.00     0.024 A 
ATOM      3  C   UNL d   1      51.190  32.782  53.098  0.00  0.00     0.297 A 
ATOM      4  C   UNL d   1      52.776  32.945  53.464  0.00  0.00     0.020 A 
ATOM      5  N   UNL d   1      51.697  32.133  53.012  0.00  0.00    -0.207 NA
ATOM      6  C   UNL d   1      52.491  32.220  53.197  0.00  0.00     0.085 A 
ATOM      7  C   UNL d   1      53.574  33.038  53.652  0.00  0.00     0.008 A 
ATOM      8  O   UNL d   1      50.384  32.698  52.911  0.00  0.00    -0.264 OA
ATOM      9  C   UNL d   1      53.003  31.582  53.116  0.00  0.00     0.020 A 
ATOM     10  C   UNL d   1      54.088  32.388  53.567  0.00  0.00     0.035 A 
ATOM     11  C   UNL d   1      53.809  31.678  53.306  0.00  0.00     0.008 A 
ATOM     12 BR   UNL d   1      54.891  32.462  53.750  0.00  0.00    -0.049 Br
ENDROOT
BRANCH   1  13
ATOM     13  N   UNL d   1      50.944  34.125  53.437  0.00  0.00    -0.203 NA
ATOM     14  C   UNL d   1      50.417  34.319  52.834  0.00  0.00     0.281 C 
ATOM     15  O   UNL d   1      50.001  34.263  52.038  0.00  0.00    -0.265 OA
BRANCH  14  16
ATOM     16  C   UNL d   1      49.895  34.949  52.912  0.00  0.00     0.082 C 
BRANCH  16  17
ATOM     17  C   UNL d   1      49.117  34.897  52.664  0.00  0.00     0.085 C 
BRANCH  17  18
ATOM     18  N   UNL d   1      48.568  35.484  52.825  0.00  0.00    -0.299 N 
ATOM     19  C   UNL d   1      48.509  35.836  53.567  0.00  0.00     0.107 A 
ATOM     20  C   UNL d   1      47.958  36.419  53.712  0.00  0.00     0.142 A 
ATOM     21  O   UNL d   1      47.442  36.666  53.102  0.00  0.00    -0.300 OA
ATOM     22  C   UNL d   1      47.496  36.326  52.382  0.00  0.00     0.142 A 
ATOM     23  C   UNL d   1      48.052  35.731  52.215  0.00  0.00     0.107 A 
ENDBRANCH  17  18
ENDBRANCH  16  17
ENDBRANCH  14  16
ENDBRANCH   1  13
BRANCH   2  24
ATOM     24  C   UNL d   1      52.549  34.305  53.812  0.00  0.00     0.002 A 
ATOM     25  C   UNL d   1      52.863  34.854  53.282  0.00  0.00     0.000 A 
ATOM     26  C   UNL d   1      53.148  35.583  53.550  0.00  0.00     0.000 A 
ATOM     27  C   UNL d   1      53.117  35.755  54.346  0.00  0.00     0.000 A 
ATOM     28  C   UNL d   1      52.813  35.231  54.886  0.00  0.00     0.000 A 
ATOM     29  C   UNL d   1      52.525  34.496  54.615  0.00  0.00     0.000 A 
ENDBRANCH   2  24
TORSDOF 5
ENDMDL
MODEL 2
REMARK VINA RESULT:      -7.3      2.553      5.144
REMARK  5 active torsions:
REMARK  status: ('A' for Active; 'I' for Inactive)
REMARK    1  A    between atoms: N_7  and  C_1 
REMARK    2  A    between atoms: C_12  and  C_2 
REMARK       I    between atoms: C_8  and  N_7 
REMARK    3  A    between atoms: C_10  and  C_8 
REMARK    4  A    between atoms: N_9  and  C_16 
REMARK    5  A    between atoms: C_16  and  C_10 
ROOT
ATOM      1  C   UNL d   1      52.962  32.631  53.275  0.00  0.00     0.142 A 
ATOM      2  C   UNL d   1      53.212  33.265  53.744  0.00  0.00     0.024 A 
ATOM      3  C   UNL d   1      52.386  32.730  52.721  0.00  0.00     0.297 A 
ATOM      4  C   UNL d   1      52.859  34.002  53.634  0.00  0.00     0.020 A 
ATOM      5  N   UNL d   1      52.030  33.469  52.607  0.00  0.00    -0.207 NA
ATOM      6  C   UNL d   1      52.271  34.104  53.068  0.00  0.00     0.085 A 
ATOM      7  C   UNL d   1      53.106  34.636  54.101  0.00  0.00     0.008 A 
ATOM      8  O   UNL d   1      52.145  32.084  52.256  0.00  0.00    -0.264 OA
ATOM      9  C   UNL d   1      51.924  34.841  52.964  0.00  0.00     0.020 A 
ATOM     10  C   UNL d   1      52.750  35.382  53.990  0.00  0.00     0.035 A 
ATOM     11  C   UNL d   1      52.173  35.481  53.435  0.00  0.00     0.008 A 
ATOM     12 BR   UNL d   1      52.983  36.030  54.448  0.00  0.00    -0.049 Br
ENDROOT
BRANCH   1  13
ATOM     13  N   UNL d   1      53.304  31.884  53.371  0.00  0.00    -0.203 NA
ATOM     14  C   UNL d   1      52.879  31.197  53.210  0.00  0.00     0.281 C 
ATOM     15  O   UNL d   1      52.182  30.685  52.962  0.00  0.00    -0.265 OA
BRANCH  14  16
ATOM     16  C   UNL d   1      53.219  30.456  53.305  0.00  0.00     0.082 C 
BRANCH  16  17
ATOM     17  C   UNL d   1      52.798  29.826  53.618  0.00  0.00     0.085 C 
BRANCH  17  18
ATOM     18  N   UNL d   1      53.135  29.296  54.145  0.00  0.00    -0.299 N 
ATOM     19  C   UNL d   1      53.701  28.745  53.910  0.00  0.00     0.107 A 
ATOM     20  C   UNL d   1      54.026  28.225  54.446  0.00  0.00     0.142 A 
ATOM     21  O   UNL d   1      53.787  28.246  55.247  0.00  0.00    -0.300 OA
ATOM     22  C   UNL d   1      53.239  28.779  55.477  0.00  0.00     0.142 A 
ATOM     23  C   UNL d   1      52.896  29.317  54.946  0.00  0.00     0.107 A 
ENDBRANCH  17  18
ENDBRANCH  16  17
ENDBRANCH  14  16
ENDBRANCH   1  13
BRANCH   2  24
ATOM     24  C   UNL d   1      53.794  33.164  54.304  0.00  0.00     0.002 A 
ATOM     25  C   UNL d   1      54.589  33.259  54.105  0.00  0.00     0.000 A 
ATOM     26  C   UNL d   1      55.180  33.157  54.674  0.00  0.00     0.000 A 
ATOM     27  C   UNL d   1      54.971  32.961  55.437  0.00  0.00     0.000 A 
ATOM     28  C   UNL d   1      54.196  32.863  55.656  0.00  0.00     0.000 A 
ATOM     29  C   UNL d   1      53.599  32.966  55.082  0.00  0.00     0.000 A 
ENDBRANCH   2  24
TORSDOF 5
ENDMDL
MODEL 3
REMARK VINA RESULT:      -6.4      1.352      2.482
REMARK  5 active torsions:
REMARK  status: ('A' for Active; 'I' for Inactive)
REMARK    1  A    between atoms: N_7  and  C_1 
REMARK    2  A    between atoms: C_12  and  C_2 
REMARK       I    between atoms: C_8  and  N_7 
REMARK    3  A    between atoms: C_10  and  C_8 
REMARK    4  A    between atoms: N_9  and  C_16 
REMARK    5  A    between atoms: C_16  and  C_10 
ROOT
ATOM      1  C   UNL d   1      52.303  34.196  53.477  0.00  0.00     0.142 A 
ATOM      2  C   UNL d   1      52.728  33.533  53.731  0.00  0.00     0.024 A 
ATOM      3  C   UNL d   1      52.469  34.929  53.767  0.00  0.00     0.297 A 
ATOM      4  C   UNL d   1      53.327  33.637  54.289  0.00  0.00     0.020 A 
ATOM      5  N   UNL d   1      53.069  35.037  54.327  0.00  0.00    -0.207 NA
ATOM      6  C   UNL d   1      53.496  34.386  54.585  0.00  0.00     0.085 A 
ATOM      7  C   UNL d   1      53.753  32.979  54.544  0.00  0.00     0.008 A 
ATOM      8  O   UNL d   1      52.033  35.586  53.503  0.00  0.00    -0.264 OA
ATOM      9  C   UNL d   1      54.094  34.482  55.140  0.00  0.00     0.020 A 
ATOM     10  C   UNL d   1      54.358  33.083  55.108  0.00  0.00     0.035 A 
ATOM     11  C   UNL d   1      54.524  33.816  55.398  0.00  0.00     0.008 A 
ATOM     12 BR   UNL d   1      54.796  32.435  55.377  0.00  0.00    -0.049 Br
ENDROOT
BRANCH   1  13
ATOM     13  N   UNL d   1      51.699  34.112  52.919  0.00  0.00    -0.203 NA
ATOM     14  C   UNL d   1      50.979  34.502  53.007  0.00  0.00     0.281 C 
ATOM     15  O   UNL d   1      50.357  35.033  53.383  0.00  0.00    -0.265 OA
BRANCH  14  16
ATOM     16  C   UNL d   1      50.379  34.418  52.452  0.00  0.00     0.082 C 
BRANCH  16  17
ATOM     17  C   UNL d   1      49.629  34.722  52.580  0.00  0.00     0.085 C 
BRANCH  17  18
ATOM     18  N   UNL d   1      49.063  34.748  51.987  0.00  0.00    -0.299 N 
ATOM     19  C   UNL d   1      49.170  34.368  51.263  0.00  0.00     0.107 A 
ATOM     20  C   UNL d   1      48.598  34.404  50.684  0.00  0.00     0.142 A 
ATOM     21  O   UNL d   1      47.891  34.829  50.820  0.00  0.00    -0.300 OA
ATOM     22  C   UNL d   1      47.785  35.197  51.521  0.00  0.00     0.142 A 
ATOM     23  C   UNL d   1      48.356  35.173  52.123  0.00  0.00     0.107 A 
ENDBRANCH  17  18
ENDBRANCH  16  17
ENDBRANCH  14  16
ENDBRANCH   1  13
BRANCH   2  24
ATOM     24  C   UNL d   1      52.560  32.793  53.438  0.00  0.00     0.002 A 
ATOM     25  C   UNL d   1      52.962  32.501  52.779  0.00  0.00     0.000 A 
ATOM     26  C   UNL d   1      52.791  31.749  52.481  0.00  0.00     0.000 A 
ATOM     27  C   UNL d   1      52.220  31.296  52.845  0.00  0.00     0.000 A 
ATOM     28  C   UNL d   1      51.812  31.561  53.494  0.00  0.00     0.000 A 
ATOM     29  C   UNL d   1      51.984  32.321  53.795  0.00  0.00     0.000 A 
ENDBRANCH   2  24
TORSDOF 5
ENDMDL
MODEL 4
REMARK VINA RESULT:      -6.3      2.362      3.217
REMARK  5 active torsions:
REMARK  status: ('A' for Active; 'I' for Inactive)
REMARK    1  A    between atoms: N_7  and  C_1 
REMARK    2  A    between atoms: C_12  and  C_2 
REMARK       I    between atoms: C_8  and  N_7 
REMARK    3  A    between atoms: C_10  and  C_8 
REMARK    4  A    between atoms: N_9  and  C_16 
REMARK    5  A    between atoms: C_16  and  C_10 
ROOT
ATOM      1  C   UNL d   1      52.810  32.299  53.020  0.00  0.00     0.142 A 
ATOM      2  C   UNL d   1      53.263  31.845  53.543  0.00  0.00     0.024 A 
ATOM      3  C   UNL d   1      52.291  31.949  52.513  0.00  0.00     0.297 A 
ATOM      4  C   UNL d   1      53.173  31.025  53.535  0.00  0.00     0.020 A 
ATOM      5  N   UNL d   1      52.198  31.126  52.502  0.00  0.00    -0.207 NA
ATOM      6  C   UNL d   1      52.643  30.667  53.017  0.00  0.00     0.085 A 
ATOM      7  C   UNL d   1      53.624  30.569  54.055  0.00  0.00     0.008 A 
ATOM      8  O   UNL d   1      51.842  32.418  51.994  0.00  0.00    -0.264 OA
ATOM      9  C   UNL d   1      52.559  29.851  53.014  0.00  0.00     0.020 A 
ATOM     10  C   UNL d   1      53.534  29.741  54.047  0.00  0.00     0.035 A 
ATOM     11  C   UNL d   1      53.015  29.390  53.540  0.00  0.00     0.008 A 
ATOM     12 BR   UNL d   1      53.976  29.267  54.560  0.00  0.00    -0.049 Br
ENDROOT
BRANCH   1  13
ATOM     13  N   UNL d   1      52.885  33.122  53.013  0.00  0.00    -0.203 NA
ATOM     14  C   UNL d   1      52.228  33.610  52.921  0.00  0.00     0.281 C 
ATOM     15  O   UNL d   1      51.364  33.835  52.808  0.00  0.00    -0.265 OA
BRANCH  14  16
ATOM     16  C   UNL d   1      52.304  34.428  52.914  0.00  0.00     0.082 C 
BRANCH  16  17
ATOM     17  C   UNL d   1      51.995  34.894  53.512  0.00  0.00     0.085 C 
BRANCH  17  18
ATOM     18  N   UNL d   1      52.456  35.426  53.932  0.00  0.00    -0.299 N 
ATOM     19  C   UNL d   1      53.122  35.782  53.604  0.00  0.00     0.107 A 
ATOM     20  C   UNL d   1      53.570  36.309  54.035  0.00  0.00     0.142 A 
ATOM     21  O   UNL d   1      53.356  36.495  54.821  0.00  0.00    -0.300 OA
ATOM     22  C   UNL d   1      52.710  36.151  55.142  0.00  0.00     0.142 A 
ATOM     23  C   UNL d   1      52.241  35.612  54.719  0.00  0.00     0.107 A 
ENDBRANCH  17  18
ENDBRANCH  16  17
ENDBRANCH  14  16
ENDBRANCH   1  13
BRANCH   2  24
ATOM     24  C   UNL d   1      53.787  32.199  54.055  0.00  0.00     0.002 A 
ATOM     25  C   UNL d   1      54.516  32.475  53.785  0.00  0.00     0.000 A 
ATOM     26  C   UNL d   1      55.049  32.835  54.306  0.00  0.00     0.000 A 
ATOM     27  C   UNL d   1      54.847  32.915  55.091  0.00  0.00     0.000 A 
ATOM     28  C   UNL d   1      54.136  32.651  55.380  0.00  0.00     0.000 A 
ATOM     29  C   UNL d   1      53.598  32.288  54.854  0.00  0.00     0.000 A 
ENDBRANCH   2  24
TORSDOF 5
ENDMDL
