MODEL 1
REMARK VINA RESULT:      51.4      0.000      0.000
REMARK  5 active torsions:
REMARK  status: ('A' for Active; 'I' for Inactive)
REMARK    1  A    between atoms: C_9  and  C_3 
REMARK    2  A    between atoms: N_11  and  C_4 
REMARK    3  A    between atoms: C_17  and  N_11 
REMARK    4  A    between atoms: O_19  and  C_13 
REMARK    5  A    between atoms: O_20  and  C_15 
ROOT
ATOM      1  N   UNL d   1      45.896 -15.843  43.797  0.00  0.00    -0.184 N 
ATOM      2  C   UNL d   1      46.060 -16.547  43.376  0.00  0.00     0.168 A 
ATOM      3  C   UNL d   1      45.982 -17.280  43.739  0.00  0.00     0.055 A 
ATOM      4  C   UNL d   1      45.980 -15.118  43.415  0.00  0.00     0.218 A 
ATOM      5  N   UNL d   1      45.572 -16.610  44.954  0.00  0.00    -0.162 NA
ATOM      6  C   UNL d   1      45.736 -17.315  44.533  0.00  0.00     0.104 A 
ATOM      7  N   UNL d   1      46.306 -16.513  42.582  0.00  0.00    -0.227 NA
ATOM      8  C   UNL d   1      46.222 -15.068  42.629  0.00  0.00     0.071 A 
ATOM      9  C   UNL d   1      46.387 -15.773  42.208  0.00  0.00     0.087 A 
ATOM     10  C   UNL d   1      45.655 -18.038  44.907  0.00  0.00     0.023 C 
ATOM     11  C   UNL d   1      46.641 -15.736  41.386  0.00  0.00     0.021 C 
ENDROOT
BRANCH   3  12
ATOM     12  C   UNL d   1      46.144 -17.974  43.325  0.00  0.00     0.007 A 
ATOM     13  C   UNL d   1      46.054 -18.702  43.702  0.00  0.00     0.026 A 
ATOM     14  C   UNL d   1      46.219 -19.406  43.281  0.00  0.00     0.116 A 
ATOM     15  C   UNL d   1      46.470 -19.369  42.491  0.00  0.00     0.116 A 
ATOM     16  C   UNL d   1      46.554 -18.635  42.130  0.00  0.00     0.026 A 
ATOM     17  C   UNL d   1      46.391 -17.934  42.549  0.00  0.00     0.002 A 
BRANCH  14  18
ATOM     18  O   UNL d   1      46.131 -20.159  43.655  0.00  0.00    -0.326 OA
ATOM     19  C   UNL d   1      46.546 -20.321  44.402  0.00  0.00     0.181 C 
ENDBRANCH  14  18
BRANCH  15  20
ATOM     20  O   UNL d   1      46.640 -20.095  42.057  0.00  0.00    -0.326 OA
ATOM     21  C   UNL d   1      46.620 -20.085  41.192  0.00  0.00     0.181 C 
ENDBRANCH  15  20
ENDBRANCH   3  12
BRANCH   4  22
ATOM     22  N   UNL d   1      45.811 -14.395  43.847  0.00  0.00    -0.383 NA
BRANCH  22  23
ATOM     23  C   UNL d   1      45.661 -13.752  44.231  0.00  0.00     0.134 A 
ATOM     24  C   UNL d   1      44.935 -13.573  44.392  0.00  0.00     0.032 A 
ATOM     25  C   UNL d   1      44.785 -12.930  44.776  0.00  0.00     0.003 A 
ATOM     26  C   UNL d   1      46.075 -12.655  44.835  0.00  0.00     0.003 A 
ATOM     27  C   UNL d   1      46.226 -13.300  44.449  0.00  0.00     0.032 A 
ENDBRANCH  22  23
ENDBRANCH   4  22
TORSDOF 5
ENDMDL
MODEL 2
REMARK VINA RESULT:      52.0      2.340      4.850
REMARK  5 active torsions:
REMARK  status: ('A' for Active; 'I' for Inactive)
REMARK    1  A    between atoms: C_9  and  C_3 
REMARK    2  A    between atoms: N_11  and  C_4 
REMARK    3  A    between atoms: C_17  and  N_11 
REMARK    4  A    between atoms: O_19  and  C_13 
REMARK    5  A    between atoms: O_20  and  C_15 
ROOT
ATOM      1  N   UNL d   1      46.057 -16.900  43.604  0.00  0.00    -0.184 N 
ATOM      2  C   UNL d   1      46.049 -16.140  43.254  0.00  0.00     0.168 A 
ATOM      3  C   UNL d   1      45.852 -15.477  43.698  0.00  0.00     0.055 A 
ATOM      4  C   UNL d   1      46.257 -17.552  43.143  0.00  0.00     0.218 A 
ATOM      5  N   UNL d   1      45.666 -16.330  44.852  0.00  0.00    -0.162 NA
ATOM      6  C   UNL d   1      45.659 -15.570  44.502  0.00  0.00     0.104 A 
ATOM      7  N   UNL d   1      46.242 -16.047  42.450  0.00  0.00    -0.227 NA
ATOM      8  C   UNL d   1      46.451 -17.476  42.346  0.00  0.00     0.071 A 
ATOM      9  C   UNL d   1      46.443 -16.716  41.996  0.00  0.00     0.087 A 
ATOM     10  C   UNL d   1      45.460 -14.918  44.954  0.00  0.00     0.023 C 
ATOM     11  C   UNL d   1      46.643 -16.621  41.163  0.00  0.00     0.021 C 
ENDROOT
BRANCH   3  12
ATOM     12  C   UNL d   1      45.844 -14.728  43.353  0.00  0.00     0.007 A 
ATOM     13  C   UNL d   1      45.211 -14.221  43.501  0.00  0.00     0.026 A 
ATOM     14  C   UNL d   1      45.203 -13.460  43.151  0.00  0.00     0.116 A 
ATOM     15  C   UNL d   1      45.829 -13.223  42.660  0.00  0.00     0.116 A 
ATOM     16  C   UNL d   1      46.452 -13.741  42.523  0.00  0.00     0.026 A 
ATOM     17  C   UNL d   1      46.460 -14.498  42.871  0.00  0.00     0.002 A 
BRANCH  14  18
ATOM     18  O   UNL d   1      44.562 -12.930  43.294  0.00  0.00    -0.326 OA
ATOM     19  C   UNL d   1      43.751 -13.239  43.352  0.00  0.00     0.181 C 
ENDBRANCH  14  18
BRANCH  15  20
ATOM     20  O   UNL d   1      45.821 -12.439  42.299  0.00  0.00    -0.326 OA
ATOM     21  C   UNL d   1      45.344 -12.305  41.589  0.00  0.00     0.181 C 
ENDBRANCH  15  20
ENDBRANCH   3  12
BRANCH   4  22
ATOM     22  N   UNL d   1      46.265 -18.332  43.502  0.00  0.00    -0.383 NA
BRANCH  22  23
ATOM     23  C   UNL d   1      46.272 -19.026  43.822  0.00  0.00     0.134 A 
ATOM     24  C   UNL d   1      46.084 -19.636  43.399  0.00  0.00     0.032 A 
ATOM     25  C   UNL d   1      46.091 -20.329  43.718  0.00  0.00     0.003 A 
ATOM     26  C   UNL d   1      46.471 -19.804  44.869  0.00  0.00     0.003 A 
ATOM     27  C   UNL d   1      46.464 -19.107  44.549  0.00  0.00     0.032 A 
ENDBRANCH  22  23
ENDBRANCH   4  22
TORSDOF 5
ENDMDL
