MODEL 1
REMARK VINA RESULT:      10.2      0.000      0.000
REMARK  4 active torsions:
REMARK  status: ('A' for Active; 'I' for Inactive)
REMARK    1  A    between atoms: C_7  and  C_3 
REMARK       I    between atoms: N_13  and  C_7 
REMARK    2  A    between atoms: C_14  and  N_13 
REMARK    3  A    between atoms: C_16  and  C_14 
REMARK    4  A    between atoms: C_15  and  C_16 
ROOT
ATOM      1  C   UNL d   1      45.517 -15.685  44.614  0.00  0.00     0.285 C 
ATOM      2  O   UNL d   1      44.840 -15.986  44.955  0.00  0.00    -0.265 OA
ATOM      3  N   UNL d   1      46.079 -16.190  44.292  0.00  0.00    -0.206 NA
ENDROOT
BRANCH   1   4
ATOM      4  C   UNL d   1      45.647 -14.868  44.588  0.00  0.00     0.133 A 
ATOM      5  C   UNL d   1      45.109 -14.387  44.189  0.00  0.00     0.272 A 
ATOM      6  N   UNL d   1      45.227 -13.567  44.155  0.00  0.00    -0.265 N 
ATOM      7  O   UNL d   1      44.450 -14.713  43.820  0.00  0.00    -0.266 OA
ATOM      8  C   UNL d   1      45.886 -13.240  44.524  0.00  0.00     0.181 A 
ATOM      9  C   UNL d   1      44.800 -12.964  43.809  0.00  0.00     0.123 A 
ATOM     10  N   UNL d   1      46.422 -13.718  44.922  0.00  0.00    -0.220 NA
ATOM     11  S   UNL d   1      45.866 -12.425  44.405  0.00  0.00    -0.049 SA
ATOM     12  C   UNL d   1      46.304 -14.534  44.955  0.00  0.00     0.111 A 
ATOM     13  C   UNL d   1      45.186 -12.257  43.958  0.00  0.00     0.043 A 
ENDBRANCH   1   4
BRANCH   3  14
ATOM     14  C   UNL d   1      45.959 -17.002  44.312  0.00  0.00     0.102 C 
BRANCH  14  15
ATOM     15  C   UNL d   1      46.348 -17.504  43.784  0.00  0.00     0.021 C 
BRANCH  15  16
ATOM     16  C   UNL d   1      46.370 -18.320  43.922  0.00  0.00     0.002 A 
ATOM     17  C   UNL d   1      46.315 -18.844  43.286  0.00  0.00     0.000 A 
ATOM     18  C   UNL d   1      46.336 -19.650  43.423  0.00  0.00     0.000 A 
ATOM     19  C   UNL d   1      46.414 -19.947  44.199  0.00  0.00     0.000 A 
ATOM     20  C   UNL d   1      46.469 -19.419  44.825  0.00  0.00     0.000 A 
ATOM     21  C   UNL d   1      46.448 -18.606  44.695  0.00  0.00     0.000 A 
ENDBRANCH  15  16
ENDBRANCH  14  15
ENDBRANCH   3  14
TORSDOF 4
ENDMDL
