MODEL 1
REMARK VINA RESULT:       5.4      0.000      0.000
REMARK  4 active torsions:
REMARK  status: ('A' for Active; 'I' for Inactive)
REMARK    1  A    between atoms: C_4  and  C_1 
REMARK    2  A    between atoms: N_5  and  C_2 
REMARK       I    between atoms: N_9  and  C_4 
REMARK       I    between atoms: C_7  and  N_5 
REMARK    3  A    between atoms: C_13  and  C_7 
REMARK    4  A    between atoms: C_11  and  N_9 
ROOT
ATOM      1  C   UNL d   1      58.006   0.567  31.422  0.00  0.00     0.175 A 
ATOM      2  C   UNL d   1      58.772   0.578  31.324  0.00  0.00     0.114 A 
ATOM      3  O   UNL d   1      57.864   0.594  32.179  0.00  0.00    -0.301 OA
ATOM      4  C   UNL d   1      59.106   0.614  32.018  0.00  0.00     0.043 A 
ATOM      5  C   UNL d   1      58.542   0.623  32.550  0.00  0.00     0.102 A 
ATOM      6  C   UNL d   1      59.839   0.638  32.238  0.00  0.00     0.004 A 
ATOM      7  C   UNL d   1      58.716   0.657  33.294  0.00  0.00     0.025 A 
ATOM      8  C   UNL d   1      60.015   0.672  32.990  0.00  0.00     0.000 A 
ATOM      9  C   UNL d   1      59.454   0.682  33.515  0.00  0.00     0.002 A 
ENDROOT
BRANCH   1  10
ATOM     10  C   UNL d   1      57.480   0.533  30.869  0.00  0.00     0.303 C 
ATOM     11  N   UNL d   1      56.100   0.184  31.325  0.00  0.00    -0.206 NA
ATOM     12  O   UNL d   1      57.581   0.657  30.119  0.00  0.00    -0.263 OA
BRANCH  11  13
ATOM     13  C   UNL d   1      55.956   0.044  32.128  0.00  0.00     0.085 A 
ATOM     14  C   UNL d   1      56.040  -0.721  32.436  0.00  0.00     0.019 A 
ATOM     15  C   UNL d   1      55.895  -0.862  33.240  0.00  0.00     0.002 A 
ATOM     16  C   UNL d   1      55.978  -1.628  33.552  0.00  0.00     0.000 C 
ATOM     17  C   UNL d   1      55.664  -0.240  33.747  0.00  0.00     0.000 A 
ATOM     18  C   UNL d   1      55.579   0.533  33.433  0.00  0.00     0.002 A 
ATOM     19  C   UNL d   1      55.519  -0.380  34.547  0.00  0.00     0.000 C 
ATOM     20  C   UNL d   1      55.728   0.668  32.617  0.00  0.00     0.019 A 
ENDBRANCH  11  13
ENDBRANCH   1  10
BRANCH   2  21
ATOM     21  N   UNL d   1      59.137   0.558  30.644  0.00  0.00    -0.204 NA
ATOM     22  C   UNL d   1      59.388  -0.165  30.327  0.00  0.00     0.302 C 
ATOM     23  O   UNL d   1      59.245  -0.877  30.742  0.00  0.00    -0.263 OA
BRANCH  22  24
ATOM     24  C   UNL d   1      59.783  -0.184  29.592  0.00  0.00     0.158 A 
ATOM     25  O   UNL d   1      60.031   0.473  29.141  0.00  0.00    -0.300 OA
ATOM     26  C   UNL d   1      60.397   0.193  28.455  0.00  0.00     0.123 A 
ATOM     27  C   UNL d   1      60.382  -0.641  28.469  0.00  0.00     0.029 A 
ATOM     28  C   UNL d   1      60.008  -0.876  29.161  0.00  0.00     0.032 A 
ENDBRANCH  22  24
ENDBRANCH   2  21
TORSDOF 4
ENDMDL
