MODEL 1
REMARK VINA RESULT:       1.1      0.000      0.000
REMARK  4 active torsions:
REMARK  status: ('A' for Active; 'I' for Inactive)
REMARK    1  A    between atoms: C_9  and  C_3 
REMARK    2  A    between atoms: N_10  and  C_9 
REMARK    3  A    between atoms: C_19  and  C_9 
REMARK    4  A    between atoms: C_12  and  N_11 
ROOT
ATOM      1  C   UNL d   1      31.660  17.146 -23.747  0.00  0.00     0.075 C 
ENDROOT
BRANCH   1   2
ATOM      2  C   UNL d   1      30.855  16.965 -23.685  0.00  0.00     0.106 A 
ATOM      3  C   UNL d   1      30.253  17.228 -24.199  0.00  0.00     0.289 A 
ATOM      4  N   UNL d   1      29.536  16.917 -23.933  0.00  0.00    -0.169 N 
ATOM      5  O   UNL d   1      30.359  17.715 -24.861  0.00  0.00    -0.265 OA
ATOM      6  C   UNL d   1      29.690  16.464 -23.258  0.00  0.00     0.200 A 
ATOM      7  N   UNL d   1      28.729  16.884 -24.080  0.00  0.00    -0.141 NA
ATOM      8  S   UNL d   1      30.499  16.493 -23.105  0.00  0.00    -0.042 SA
ATOM      9  N   UNL d   1      28.974  16.154 -22.992  0.00  0.00    -0.200 NA
ATOM     10  C   UNL d   1      28.377  16.412 -23.500  0.00  0.00     0.184 A 
ATOM     11  C   UNL d   1      27.570  16.236 -23.444  0.00  0.00     0.044 C 
ENDBRANCH   1   2
BRANCH   1  12
ATOM     12  N   UNL d   1      31.924  17.895 -23.526  0.00  0.00    -0.301 N 
ATOM     13  C   UNL d   1      32.261  18.400 -24.079  0.00  0.00     0.100 A 
ATOM     14  C   UNL d   1      32.524  19.151 -23.851  0.00  0.00     0.100 A 
ATOM     15  N   UNL d   1      32.453  19.406 -23.066  0.00  0.00    -0.299 N 
ATOM     16  C   UNL d   1      32.114  18.892 -22.519  0.00  0.00     0.100 A 
ATOM     17  C   UNL d   1      31.848  18.139 -22.739  0.00  0.00     0.100 A 
BRANCH  15  18
ATOM     18  C   UNL d   1      32.714  20.145 -22.852  0.00  0.00     0.092 A 
ATOM     19  C   UNL d   1      32.956  20.306 -22.088  0.00  0.00     0.156 A 
ATOM     20  F   UNL d   1      32.933  19.695 -21.518  0.00  0.00    -0.203 F 
ATOM     21  C   UNL d   1      33.219  21.058 -21.881  0.00  0.00     0.031 A 
ATOM     22  C   UNL d   1      33.239  21.654 -22.448  0.00  0.00     0.002 A 
ATOM     23  C   UNL d   1      32.997  21.493 -23.212  0.00  0.00     0.002 A 
ATOM     24  C   UNL d   1      32.736  20.747 -23.419  0.00  0.00     0.020 A 
ENDBRANCH  15  18
ENDBRANCH   1  12
BRANCH   1  25
ATOM     25  C   UNL d   1      32.188  16.582 -24.026  0.00  0.00     0.017 A 
ATOM     26  C   UNL d   1      32.468  16.003 -23.526  0.00  0.00     0.002 A 
ATOM     27  C   UNL d   1      32.987  15.453 -23.808  0.00  0.00     0.000 A 
ATOM     28  C   UNL d   1      33.240  15.469 -24.608  0.00  0.00     0.000 A 
ATOM     29  C   UNL d   1      32.959  16.044 -25.097  0.00  0.00     0.000 A 
ATOM     30  C   UNL d   1      32.427  16.614 -24.819  0.00  0.00     0.002 A 
ENDBRANCH   1  25
TORSDOF 4
ENDMDL
MODEL 2
REMARK VINA RESULT:       1.5      1.260      4.377
REMARK  4 active torsions:
REMARK  status: ('A' for Active; 'I' for Inactive)
REMARK    1  A    between atoms: C_9  and  C_3 
REMARK    2  A    between atoms: N_10  and  C_9 
REMARK    3  A    between atoms: C_19  and  C_9 
REMARK    4  A    between atoms: C_12  and  N_11 
ROOT
ATOM      1  C   UNL d   1      31.659  17.173 -23.791  0.00  0.00     0.075 C 
ENDROOT
BRANCH   1   2
ATOM      2  C   UNL d   1      31.928  17.934 -23.610  0.00  0.00     0.106 A 
ATOM      3  C   UNL d   1      31.845  18.610 -24.091  0.00  0.00     0.289 A 
ATOM      4  N   UNL d   1      32.192  19.247 -23.697  0.00  0.00    -0.169 N 
ATOM      5  O   UNL d   1      31.479  18.635 -24.833  0.00  0.00    -0.265 OA
ATOM      6  C   UNL d   1      32.489  18.970 -22.976  0.00  0.00     0.200 A 
ATOM      7  N   UNL d   1      32.356  20.051 -23.744  0.00  0.00    -0.141 NA
ATOM      8  S   UNL d   1      32.327  18.163 -22.921  0.00  0.00    -0.042 SA
ATOM      9  N   UNL d   1      32.835  19.606 -22.583  0.00  0.00    -0.200 NA
ATOM     10  C   UNL d   1      32.754  20.277 -23.056  0.00  0.00     0.184 A 
ATOM     11  C   UNL d   1      33.021  21.041 -22.882  0.00  0.00     0.044 C 
ENDBRANCH   1   2
BRANCH   1  12
ATOM     12  N   UNL d   1      30.856  17.001 -23.720  0.00  0.00    -0.301 N 
ATOM     13  C   UNL d   1      30.325  17.236 -24.301  0.00  0.00     0.100 A 
ATOM     14  C   UNL d   1      29.520  17.060 -24.225  0.00  0.00     0.100 A 
ATOM     15  N   UNL d   1      29.235  16.648 -23.565  0.00  0.00    -0.299 N 
ATOM     16  C   UNL d   1      29.776  16.417 -22.988  0.00  0.00     0.100 A 
ATOM     17  C   UNL d   1      30.583  16.588 -23.057  0.00  0.00     0.100 A 
BRANCH  15  18
ATOM     18  C   UNL d   1      28.442  16.480 -23.499  0.00  0.00     0.092 A 
ATOM     19  C   UNL d   1      27.908  17.044 -23.245  0.00  0.00     0.156 A 
ATOM     20  F   UNL d   1      28.186  17.808 -23.050  0.00  0.00    -0.203 F 
ATOM     21  C   UNL d   1      27.107  16.865 -23.181  0.00  0.00     0.031 A 
ATOM     22  C   UNL d   1      26.842  16.111 -23.374  0.00  0.00     0.002 A 
ATOM     23  C   UNL d   1      27.376  15.547 -23.628  0.00  0.00     0.002 A 
ATOM     24  C   UNL d   1      28.171  15.723 -23.692  0.00  0.00     0.020 A 
ENDBRANCH  15  18
ENDBRANCH   1  12
BRANCH   1  25
ATOM     25  C   UNL d   1      32.189  16.597 -24.039  0.00  0.00     0.017 A 
ATOM     26  C   UNL d   1      32.625  16.181 -23.490  0.00  0.00     0.002 A 
ATOM     27  C   UNL d   1      33.144  15.617 -23.742  0.00  0.00     0.000 A 
ATOM     28  C   UNL d   1      33.241  15.453 -24.559  0.00  0.00     0.000 A 
ATOM     29  C   UNL d   1      32.807  15.868 -25.096  0.00  0.00     0.000 A 
ATOM     30  C   UNL d   1      32.271  16.449 -24.850  0.00  0.00     0.002 A 
ENDBRANCH   1  25
TORSDOF 4
ENDMDL
