MODEL 1
REMARK VINA RESULT:      18.5      0.000      0.000
REMARK  7 active torsions:
REMARK  status: ('A' for Active; 'I' for Inactive)
REMARK    1  A    between atoms: C_7  and  C_1 
REMARK    2  A    between atoms: C_10  and  C_2 
REMARK    3  A    between atoms: S_12  and  C_5 
REMARK    4  A    between atoms: C_11  and  C_6 
REMARK    5  A    between atoms: O_15  and  C_7 
REMARK    6  A    between atoms: C_21  and  S_12 
REMARK    7  A    between atoms: C_22  and  O_15 
ROOT
ATOM      1  C   UNL d   1     -41.712-122.162 -52.682  0.00  0.00     0.082 A 
ATOM      2  C   UNL d   1     -41.635-121.557 -53.266  0.00  0.00     0.087 A 
ATOM      3  C   UNL d   1     -41.404-121.240 -51.661  0.00  0.00     0.092 A 
ATOM      4  N   UNL d   1     -41.435-120.774 -53.014  0.00  0.00    -0.238 NA
ATOM      5  C   UNL d   1     -41.324-120.635 -52.216  0.00  0.00     0.120 A 
ATOM      6  C   UNL d   1     -41.597-121.998 -51.891  0.00  0.00     0.020 A 
ATOM      7  C   UNL d   1     -41.285-121.076 -50.840  0.00  0.00     0.103 C 
ATOM      8  N   UNL d   1     -41.167-120.914 -50.017  0.00  0.00    -0.191 NA
ENDROOT
BRANCH   6   9
ATOM      9  C   UNL d   1     -41.676-122.603 -51.336  0.00  0.00     0.020 A 
ATOM     10  C   UNL d   1     -42.312-122.591 -50.812  0.00  0.00     0.099 A 
ATOM     11  N   UNL d   1     -42.392-123.196 -50.257  0.00  0.00    -0.242 NA
ATOM     12  C   UNL d   1     -41.836-123.814 -50.226  0.00  0.00     0.099 A 
ATOM     13  C   UNL d   1     -41.204-123.812 -50.758  0.00  0.00     0.021 A 
ATOM     14  C   UNL d   1     -41.125-123.207 -51.313  0.00  0.00     0.003 A 
ENDBRANCH   6   9
BRANCH   5  15
ATOM     15  S   UNL d   1     -41.123-119.841 -51.973  0.00  0.00    -0.067 SA
BRANCH  15  16
ATOM     16  C   UNL d   1     -41.477-119.181 -52.346  0.00  0.00     0.037 C 
ATOM     17  C   UNL d   1     -41.420-118.440 -52.012  0.00  0.00     0.007 C 
ENDBRANCH  15  16
ENDBRANCH   5  15
BRANCH   1  18
ATOM     18  C   UNL d   1     -41.913-122.945 -52.935  0.00  0.00     0.302 C 
ATOM     19  O   UNL d   1     -41.345-123.365 -53.367  0.00  0.00    -0.259 OA
BRANCH  18  20
ATOM     20  O   UNL d   1     -42.630-123.254 -52.754  0.00  0.00    -0.271 OA
BRANCH  20  21
ATOM     21  C   UNL d   1     -43.135-123.533 -53.351  0.00  0.00     0.126 C 
ATOM     22  C   UNL d   1     -43.953-123.531 -53.246  0.00  0.00     0.029 C 
ENDBRANCH  20  21
ENDBRANCH  18  20
ENDBRANCH   1  18
BRANCH   2  23
ATOM     23  C   UNL d   1     -41.751-121.718 -54.060  0.00  0.00     0.018 A 
ATOM     24  C   UNL d   1     -42.445-121.515 -54.420  0.00  0.00     0.002 A 
ATOM     25  C   UNL d   1     -42.567-121.675 -55.223  0.00  0.00     0.000 A 
ATOM     26  C   UNL d   1     -41.976-122.046 -55.664  0.00  0.00     0.000 A 
ATOM     27  C   UNL d   1     -41.252-122.256 -55.284  0.00  0.00     0.000 A 
ATOM     28  C   UNL d   1     -41.154-122.088 -54.492  0.00  0.00     0.002 A 
ENDBRANCH   2  23
TORSDOF 7
ENDMDL
MODEL 2
REMARK VINA RESULT:      20.1      1.694      3.889
REMARK  7 active torsions:
REMARK  status: ('A' for Active; 'I' for Inactive)
REMARK    1  A    between atoms: C_7  and  C_1 
REMARK    2  A    between atoms: C_10  and  C_2 
REMARK    3  A    between atoms: S_12  and  C_5 
REMARK    4  A    between atoms: C_11  and  C_6 
REMARK    5  A    between atoms: O_15  and  C_7 
REMARK    6  A    between atoms: C_21  and  S_12 
REMARK    7  A    between atoms: C_22  and  O_15 
ROOT
ATOM      1  C   UNL d   1     -41.718-121.948 -52.244  0.00  0.00     0.082 A 
ATOM      2  C   UNL d   1     -41.651-122.782 -52.129  0.00  0.00     0.087 A 
ATOM      3  C   UNL d   1     -41.421-122.094 -53.614  0.00  0.00     0.092 A 
ATOM      4  N   UNL d   1     -41.462-123.268 -52.797  0.00  0.00    -0.238 NA
ATOM      5  C   UNL d   1     -41.351-122.911 -53.524  0.00  0.00     0.120 A 
ATOM      6  C   UNL d   1     -41.603-121.615 -52.980  0.00  0.00     0.020 A 
ATOM      7  C   UNL d   1     -41.303-121.744 -54.374  0.00  0.00     0.103 C 
ATOM      8  N   UNL d   1     -41.185-121.390 -55.135  0.00  0.00    -0.191 NA
ENDROOT
BRANCH   6   9
ATOM      9  C   UNL d   1     -41.673-120.798 -53.071  0.00  0.00     0.020 A 
ATOM     10  C   UNL d   1     -42.260-120.494 -53.564  0.00  0.00     0.099 A 
ATOM     11  N   UNL d   1     -42.330-119.677 -53.654  0.00  0.00    -0.242 NA
ATOM     12  C   UNL d   1     -41.813-119.164 -53.252  0.00  0.00     0.099 A 
ATOM     13  C   UNL d   1     -41.231-119.484 -52.761  0.00  0.00     0.021 A 
ATOM     14  C   UNL d   1     -41.161-120.301 -52.671  0.00  0.00     0.003 A 
ENDBRANCH   6   9
BRANCH   5  15
ATOM     15  S   UNL d   1     -41.160-123.411 -54.189  0.00  0.00    -0.067 SA
BRANCH  15  16
ATOM     16  C   UNL d   1     -41.766-123.801 -54.614  0.00  0.00     0.037 C 
ATOM     17  C   UNL d   1     -41.947-123.573 -55.375  0.00  0.00     0.007 C 
ENDBRANCH  15  16
ENDBRANCH   5  15
BRANCH   1  18
ATOM     18  C   UNL d   1     -41.908-121.462 -51.577  0.00  0.00     0.302 C 
ATOM     19  O   UNL d   1     -41.284-121.214 -51.093  0.00  0.00    -0.259 OA
BRANCH  18  20
ATOM     20  O   UNL d   1     -42.670-121.258 -51.432  0.00  0.00    -0.271 OA
BRANCH  20  21
ATOM     21  C   UNL d   1     -42.988-121.320 -50.668  0.00  0.00     0.126 C 
ATOM     22  C   UNL d   1     -43.768-121.099 -50.517  0.00  0.00     0.029 C 
ENDBRANCH  20  21
ENDBRANCH  18  20
ENDBRANCH   1  18
BRANCH   2  23
ATOM     23  C   UNL d   1     -41.766-123.119 -51.393  0.00  0.00     0.018 A 
ATOM     24  C   UNL d   1     -42.505-123.349 -51.161  0.00  0.00     0.002 A 
ATOM     25  C   UNL d   1     -42.626-123.690 -50.417  0.00  0.00     0.000 A 
ATOM     26  C   UNL d   1     -41.990-123.799 -49.903  0.00  0.00     0.000 A 
ATOM     27  C   UNL d   1     -41.219-123.557 -50.149  0.00  0.00     0.000 A 
ATOM     28  C   UNL d   1     -41.123-123.223 -50.887  0.00  0.00     0.002 A 
ENDBRANCH   2  23
TORSDOF 7
ENDMDL
