MODEL 1
REMARK VINA RESULT:      39.9      0.000      0.000
REMARK  3 active torsions:
REMARK  status: ('A' for Active; 'I' for Inactive)
REMARK    1  A    between atoms: C_6  and  C_1 
REMARK    2  A    between atoms: C_7  and  N_3 
REMARK    3  A    between atoms: C_10  and  C_7 
ROOT
ATOM      1  C   UNL d   1     -57.192 -98.787 -44.044  0.00  0.00     0.148 A 
ATOM      2  N   UNL d   1     -56.409 -98.796 -43.762  0.00  0.00    -0.227 NA
ATOM      3  N   UNL d   1     -57.134 -98.771 -44.865  0.00  0.00    -0.289 N 
ATOM      4  C   UNL d   1     -56.359 -98.770 -45.086  0.00  0.00     0.083 A 
ATOM      5  C   UNL d   1     -55.905 -98.786 -44.394  0.00  0.00     0.099 A 
ATOM      6  C   UNL d   1     -55.985 -98.757 -45.820  0.00  0.00     0.019 A 
ATOM      7  C   UNL d   1     -55.096 -98.787 -44.466  0.00  0.00     0.021 A 
ATOM      8  C   UNL d   1     -55.184 -98.760 -45.857  0.00  0.00     0.002 A 
ATOM      9  C   UNL d   1     -54.730 -98.775 -45.165  0.00  0.00     0.002 A 
ENDROOT
BRANCH   1  10
ATOM     10  C   UNL d   1     -57.884 -98.793 -43.589  0.00  0.00     0.035 A 
ATOM     11  C   UNL d   1     -57.839 -98.783 -42.767  0.00  0.00     0.005 A 
ATOM     12  C   UNL d   1     -58.531 -98.789 -42.313  0.00  0.00     0.021 A 
ATOM     13  C   UNL d   1     -59.267 -98.805 -42.681  0.00  0.00     0.103 A 
ATOM     14  C   UNL d   1     -59.314 -98.816 -43.506  0.00  0.00     0.021 A 
ATOM     15  N   UNL d   1     -59.959 -98.811 -42.227  0.00  0.00    -0.148 N 
ATOM     16  C   UNL d   1     -58.622 -98.810 -43.961  0.00  0.00     0.005 A 
ENDBRANCH   1  10
BRANCH   3  17
ATOM     17  C   UNL d   1     -57.852 -98.761 -45.251  0.00  0.00     0.082 C 
BRANCH  17  18
ATOM     18  C   UNL d   1     -57.921 -98.767 -46.063  0.00  0.00     0.019 C 
ATOM     19  C   UNL d   1     -58.642 -98.758 -46.453  0.00  0.00     0.002 C 
ENDBRANCH  17  18
ENDBRANCH   3  17
TORSDOF 3
ENDMDL
MODEL 2
REMARK VINA RESULT:      40.1      3.369      4.273
REMARK  3 active torsions:
REMARK  status: ('A' for Active; 'I' for Inactive)
REMARK    1  A    between atoms: C_6  and  C_1 
REMARK    2  A    between atoms: C_7  and  N_3 
REMARK    3  A    between atoms: C_10  and  C_7 
ROOT
ATOM      1  C   UNL d   1     -54.746-100.781 -42.662  0.00  0.00     0.148 A 
ATOM      2  N   UNL d   1     -54.760 -99.950 -42.629  0.00  0.00    -0.227 NA
ATOM      3  N   UNL d   1     -54.743-100.972 -43.464  0.00  0.00    -0.289 N 
ATOM      4  C   UNL d   1     -54.753-100.299 -43.906  0.00  0.00     0.083 A 
ATOM      5  C   UNL d   1     -54.765 -99.658 -43.382  0.00  0.00     0.099 A 
ATOM      6  C   UNL d   1     -54.755-100.163 -44.719  0.00  0.00     0.019 A 
ATOM      7  C   UNL d   1     -54.777 -98.908 -43.693  0.00  0.00     0.021 A 
ATOM      8  C   UNL d   1     -54.768 -99.409 -44.995  0.00  0.00     0.002 A 
ATOM      9  C   UNL d   1     -54.779 -98.769 -44.470  0.00  0.00     0.002 A 
ENDROOT
BRANCH   1  10
ATOM     10  C   UNL d   1     -54.738-101.306 -42.021  0.00  0.00     0.035 A 
ATOM     11  C   UNL d   1     -54.739-102.118 -42.152  0.00  0.00     0.005 A 
ATOM     12  C   UNL d   1     -54.731-102.642 -41.511  0.00  0.00     0.021 A 
ATOM     13  C   UNL d   1     -54.721-102.353 -40.740  0.00  0.00     0.103 A 
ATOM     14  C   UNL d   1     -54.720-101.537 -40.608  0.00  0.00     0.021 A 
ATOM     15  N   UNL d   1     -54.713-102.876 -40.100  0.00  0.00    -0.148 N 
ATOM     16  C   UNL d   1     -54.729-101.013 -41.249  0.00  0.00     0.005 A 
ENDBRANCH   1  10
BRANCH   3  17
ATOM     17  C   UNL d   1     -54.729-101.773 -43.617  0.00  0.00     0.082 C 
BRANCH  17  18
ATOM     18  C   UNL d   1     -54.825-102.084 -44.364  0.00  0.00     0.019 C 
ATOM     19  C   UNL d   1     -54.715-102.878 -44.537  0.00  0.00     0.002 C 
ENDBRANCH  17  18
ENDBRANCH   3  17
TORSDOF 3
ENDMDL
