MODEL 1
REMARK VINA RESULT:      -8.6      0.000      0.000
REMARK  11 active torsions:
REMARK  status: ('A' for Active; 'I' for Inactive)
REMARK    1  A    between atoms: N_2  and  S_1 
REMARK    2  A    between atoms: C_4  and  S_1 
REMARK    3  A    between atoms: C_22  and  N_2 
REMARK    4  A    between atoms: C_3  and  C_8 
REMARK       I    between atoms: N_16  and  C_3 
REMARK    5  A    between atoms: O_28  and  C_7 
REMARK    6  A    between atoms: C_9  and  C_10 
REMARK    7  A    between atoms: O_29  and  C_11 
REMARK    8  A    between atoms: C_30  and  N_16 
REMARK    9  A    between atoms: C_24  and  C_22 
REMARK   10  A    between atoms: C_23  and  C_34 
REMARK   11  A    between atoms: C_34  and  C_30 
ROOT
ATOM      1  C   UNL d   1      50.142  34.445  52.370  0.00  0.00     0.058 A 
ATOM      2  C   UNL d   1      50.196  34.045  53.081  0.00  0.00     0.005 A 
ATOM      3  C   UNL d   1      50.802  34.460  51.861  0.00  0.00     0.005 A 
ATOM      4  C   UNL d   1      51.548  33.672  52.793  0.00  0.00     0.020 A 
ATOM      5  C   UNL d   1      50.894  33.657  53.299  0.00  0.00     0.002 A 
ATOM      6  C   UNL d   1      51.501  34.072  52.079  0.00  0.00     0.002 A 
ENDROOT
BRANCH   1   7
ATOM      7  C   UNL d   1      49.451  34.830  52.152  0.00  0.00     0.279 C 
ATOM      8  O   UNL d   1      49.192  34.795  51.365  0.00  0.00    -0.265 OA
ATOM      9  N   UNL d   1      49.017  35.249  52.710  0.00  0.00    -0.206 NA
BRANCH   9  10
ATOM     10  C   UNL d   1      48.323  35.635  52.485  0.00  0.00     0.102 C 
BRANCH  10  11
ATOM     11  C   UNL d   1      47.991  36.184  52.990  0.00  0.00     0.021 C 
BRANCH  11  12
ATOM     12  C   UNL d   1      47.187  36.311  52.972  0.00  0.00     0.004 A 
ATOM     13  C   UNL d   1      46.756  36.391  53.670  0.00  0.00     0.026 A 
ATOM     14  C   UNL d   1      45.950  36.519  53.641  0.00  0.00     0.116 A 
ATOM     15  C   UNL d   1      45.562  36.568  52.905  0.00  0.00     0.116 A 
ATOM     16  C   UNL d   1      45.984  36.489  52.215  0.00  0.00     0.026 A 
ATOM     17  C   UNL d   1      46.801  36.360  52.244  0.00  0.00     0.002 A 
BRANCH  14  18
ATOM     18  O   UNL d   1      45.521  36.598  54.343  0.00  0.00    -0.326 OA
ATOM     19  C   UNL d   1      45.834  36.701  55.152  0.00  0.00     0.181 C 
ENDBRANCH  14  18
BRANCH  15  20
ATOM     20  O   UNL d   1      44.762  36.694  52.859  0.00  0.00    -0.326 OA
ATOM     21  C   UNL d   1      44.389  36.709  52.139  0.00  0.00     0.181 C 
ENDBRANCH  15  20
ENDBRANCH  11  12
ENDBRANCH  10  11
ENDBRANCH   9  10
ENDBRANCH   1   7
BRANCH   4  22
ATOM     22  C   UNL d   1      52.246  33.284  53.011  0.00  0.00     0.112 C 
BRANCH  22  23
ATOM     23  N   UNL d   1      52.514  32.641  52.579  0.00  0.00    -0.157 NA
BRANCH  23  24
ATOM     24  S   UNL d   1      52.724  31.933  52.953  0.00  0.00     0.285 S 
ATOM     25  O   UNL d   1      53.067  32.355  53.567  0.00  0.00    -0.198 OA
ATOM     26  O   UNL d   1      52.376  31.514  52.329  0.00  0.00    -0.198 OA
BRANCH  24  27
ATOM     27  C   UNL d   1      52.927  31.224  53.312  0.00  0.00     0.105 A 
ATOM     28  C   UNL d   1      52.492  30.547  53.133  0.00  0.00     0.013 A 
ATOM     29  C   UNL d   1      52.692  29.822  53.493  0.00  0.00    -0.004 A 
ATOM     30  C   UNL d   1      53.326  29.792  54.029  0.00  0.00    -0.023 A 
ATOM     31  C   UNL d   1      53.755  30.471  54.202  0.00  0.00    -0.004 A 
ATOM     32  C   UNL d   1      53.552  31.188  53.841  0.00  0.00     0.013 A 
BRANCH  30  33
ATOM     33  C   UNL d   1      53.525  29.075  54.387  0.00  0.00     0.019 C 
ATOM     34  C   UNL d   1      54.018  28.894  53.751  0.00  0.00     0.004 C 
ATOM     35  C   UNL d   1      53.032  29.264  55.018  0.00  0.00     0.004 C 
ATOM     36  C   UNL d   1      53.725  28.361  54.742  0.00  0.00     0.004 C 
ENDBRANCH  30  33
ENDBRANCH  24  27
ENDBRANCH  23  24
ENDBRANCH  22  23
ENDBRANCH   4  22
TORSDOF 11
ENDMDL
MODEL 2
REMARK VINA RESULT:      -7.2      1.864      2.585
REMARK  11 active torsions:
REMARK  status: ('A' for Active; 'I' for Inactive)
REMARK    1  A    between atoms: N_2  and  S_1 
REMARK    2  A    between atoms: C_4  and  S_1 
REMARK    3  A    between atoms: C_22  and  N_2 
REMARK    4  A    between atoms: C_3  and  C_8 
REMARK       I    between atoms: N_16  and  C_3 
REMARK    5  A    between atoms: O_28  and  C_7 
REMARK    6  A    between atoms: C_9  and  C_10 
REMARK    7  A    between atoms: O_29  and  C_11 
REMARK    8  A    between atoms: C_30  and  N_16 
REMARK    9  A    between atoms: C_24  and  C_22 
REMARK   10  A    between atoms: C_23  and  C_34 
REMARK   11  A    between atoms: C_34  and  C_30 
ROOT
ATOM      1  C   UNL d   1      49.237  34.754  51.920  0.00  0.00     0.058 A 
ATOM      2  C   UNL d   1      49.557  34.738  52.673  0.00  0.00     0.005 A 
ATOM      3  C   UNL d   1      49.667  34.420  51.289  0.00  0.00     0.005 A 
ATOM      4  C   UNL d   1      50.723  34.065  52.186  0.00  0.00     0.020 A 
ATOM      5  C   UNL d   1      50.298  34.396  52.813  0.00  0.00     0.002 A 
ATOM      6  C   UNL d   1      50.408  34.078  51.429  0.00  0.00     0.002 A 
ENDROOT
BRANCH   1   7
ATOM      7  C   UNL d   1      48.504  35.093  51.779  0.00  0.00     0.279 C 
ATOM      8  O   UNL d   1      48.065  34.859  51.115  0.00  0.00    -0.265 OA
ATOM      9  N   UNL d   1      48.204  35.660  52.292  0.00  0.00    -0.206 NA
BRANCH   9  10
ATOM     10  C   UNL d   1      47.465  35.997  52.145  0.00  0.00     0.102 C 
BRANCH  10  11
ATOM     11  C   UNL d   1      47.237  36.659  52.567  0.00  0.00     0.021 C 
BRANCH  11  12
ATOM     12  C   UNL d   1      46.511  36.671  52.933  0.00  0.00     0.004 A 
ATOM     13  C   UNL d   1      45.815  36.661  52.491  0.00  0.00     0.026 A 
ATOM     14  C   UNL d   1      45.091  36.673  52.867  0.00  0.00     0.116 A 
ATOM     15  C   UNL d   1      45.054  36.696  53.699  0.00  0.00     0.116 A 
ATOM     16  C   UNL d   1      45.738  36.706  54.138  0.00  0.00     0.026 A 
ATOM     17  C   UNL d   1      46.473  36.694  53.757  0.00  0.00     0.002 A 
BRANCH  14  18
ATOM     18  O   UNL d   1      44.395  36.663  52.420  0.00  0.00    -0.326 OA
ATOM     19  C   UNL d   1      44.314  36.544  51.559  0.00  0.00     0.181 C 
ENDBRANCH  14  18
BRANCH  15  20
ATOM     20  O   UNL d   1      44.342  36.709  54.089  0.00  0.00    -0.326 OA
ATOM     21  C   UNL d   1      44.315  36.638  54.896  0.00  0.00     0.181 C 
ENDBRANCH  15  20
ENDBRANCH  11  12
ENDBRANCH  10  11
ENDBRANCH   9  10
ENDBRANCH   1   7
BRANCH   4  22
ATOM     22  C   UNL d   1      51.464  33.722  52.326  0.00  0.00     0.112 C 
BRANCH  22  23
ATOM     23  N   UNL d   1      51.597  33.288  53.009  0.00  0.00    -0.157 NA
BRANCH  23  24
ATOM     24  S   UNL d   1      52.300  33.369  53.437  0.00  0.00     0.285 S 
ATOM     25  O   UNL d   1      51.877  33.623  54.091  0.00  0.00    -0.198 OA
ATOM     26  O   UNL d   1      52.720  33.112  52.771  0.00  0.00    -0.198 OA
BRANCH  24  27
ATOM     27  C   UNL d   1      53.005  33.444  53.849  0.00  0.00     0.105 A 
ATOM     28  C   UNL d   1      53.138  34.126  54.293  0.00  0.00     0.013 A 
ATOM     29  C   UNL d   1      53.852  34.210  54.715  0.00  0.00    -0.004 A 
ATOM     30  C   UNL d   1      54.420  33.606  54.683  0.00  0.00    -0.023 A 
ATOM     31  C   UNL d   1      54.281  32.929  54.238  0.00  0.00    -0.004 A 
ATOM     32  C   UNL d   1      53.570  32.851  53.821  0.00  0.00     0.013 A 
BRANCH  30  33
ATOM     33  C   UNL d   1      55.128  33.687  55.100  0.00  0.00     0.019 C 
ATOM     34  C   UNL d   1      55.483  34.018  54.434  0.00  0.00     0.004 C 
ATOM     35  C   UNL d   1      54.766  33.356  55.761  0.00  0.00     0.004 C 
ATOM     36  C   UNL d   1      55.834  33.769  55.514  0.00  0.00     0.004 C 
ENDBRANCH  30  33
ENDBRANCH  24  27
ENDBRANCH  23  24
ENDBRANCH  22  23
ENDBRANCH   4  22
TORSDOF 11
ENDMDL
MODEL 3
REMARK VINA RESULT:      -7.2      1.617      7.970
REMARK  11 active torsions:
REMARK  status: ('A' for Active; 'I' for Inactive)
REMARK    1  A    between atoms: N_2  and  S_1 
REMARK    2  A    between atoms: C_4  and  S_1 
REMARK    3  A    between atoms: C_22  and  N_2 
REMARK    4  A    between atoms: C_3  and  C_8 
REMARK       I    between atoms: N_16  and  C_3 
REMARK    5  A    between atoms: O_28  and  C_7 
REMARK    6  A    between atoms: C_9  and  C_10 
REMARK    7  A    between atoms: O_29  and  C_11 
REMARK    8  A    between atoms: C_30  and  N_16 
REMARK    9  A    between atoms: C_24  and  C_22 
REMARK   10  A    between atoms: C_23  and  C_34 
REMARK   11  A    between atoms: C_34  and  C_30 
ROOT
ATOM      1  C   UNL d   1      51.541  33.803  52.872  0.00  0.00     0.058 A 
ATOM      2  C   UNL d   1      50.967  33.820  53.454  0.00  0.00     0.005 A 
ATOM      3  C   UNL d   1      51.399  34.195  52.149  0.00  0.00     0.005 A 
ATOM      4  C   UNL d   1      50.112  34.607  52.618  0.00  0.00     0.020 A 
ATOM      5  C   UNL d   1      50.251  34.219  53.334  0.00  0.00     0.002 A 
ATOM      6  C   UNL d   1      50.683  34.594  52.030  0.00  0.00     0.002 A 
ENDROOT
BRANCH   1   7
ATOM      7  C   UNL d   1      52.250  33.408  52.988  0.00  0.00     0.279 C 
ATOM      8  O   UNL d   1      52.915  33.827  53.251  0.00  0.00    -0.265 OA
ATOM      9  N   UNL d   1      52.303  32.601  52.844  0.00  0.00    -0.206 NA
BRANCH   9  10
ATOM     10  C   UNL d   1      53.019  32.208  52.963  0.00  0.00     0.102 C 
BRANCH  10  11
ATOM     11  C   UNL d   1      53.142  31.485  52.602  0.00  0.00     0.021 C 
BRANCH  11  12
ATOM     12  C   UNL d   1      53.136  30.807  53.051  0.00  0.00     0.004 A 
ATOM     13  C   UNL d   1      52.453  30.350  53.119  0.00  0.00     0.026 A 
ATOM     14  C   UNL d   1      52.457  29.671  53.571  0.00  0.00     0.116 A 
ATOM     15  C   UNL d   1      53.153  29.438  53.967  0.00  0.00     0.116 A 
ATOM     16  C   UNL d   1      53.828  29.886  53.902  0.00  0.00     0.026 A 
ATOM     17  C   UNL d   1      53.824  30.575  53.443  0.00  0.00     0.002 A 
BRANCH  14  18
ATOM     18  O   UNL d   1      51.770  29.216  53.636  0.00  0.00    -0.326 OA
ATOM     19  C   UNL d   1      50.951  29.498  53.747  0.00  0.00     0.181 C 
ENDBRANCH  14  18
BRANCH  15  20
ATOM     20  O   UNL d   1      53.174  28.766  54.420  0.00  0.00    -0.326 OA
ATOM     21  C   UNL d   1      53.721  28.688  55.014  0.00  0.00     0.181 C 
ENDBRANCH  15  20
ENDBRANCH  11  12
ENDBRANCH  10  11
ENDBRANCH   9  10
ENDBRANCH   1   7
BRANCH   4  22
ATOM     22  C   UNL d   1      49.396  35.007  52.498  0.00  0.00     0.112 C 
BRANCH  22  23
ATOM     23  N   UNL d   1      48.975  34.901  51.803  0.00  0.00    -0.157 NA
BRANCH  23  24
ATOM     24  S   UNL d   1      48.198  35.176  51.728  0.00  0.00     0.285 S 
ATOM     25  O   UNL d   1      48.068  34.650  51.113  0.00  0.00    -0.198 OA
ATOM     26  O   UNL d   1      48.338  35.705  52.350  0.00  0.00    -0.198 OA
BRANCH  24  27
ATOM     27  C   UNL d   1      47.431  35.459  51.664  0.00  0.00     0.105 A 
ATOM     28  C   UNL d   1      47.171  36.032  52.196  0.00  0.00     0.013 A 
ATOM     29  C   UNL d   1      46.392  36.324  52.139  0.00  0.00    -0.004 A 
ATOM     30  C   UNL d   1      45.889  36.034  51.545  0.00  0.00    -0.023 A 
ATOM     31  C   UNL d   1      46.155  35.463  51.018  0.00  0.00    -0.004 A 
ATOM     32  C   UNL d   1      46.930  35.176  51.080  0.00  0.00     0.013 A 
BRANCH  30  33
ATOM     33  C   UNL d   1      45.117  36.323  51.486  0.00  0.00     0.019 C 
ATOM     34  C   UNL d   1      45.206  36.709  52.209  0.00  0.00     0.004 C 
ATOM     35  C   UNL d   1      45.037  35.933  50.766  0.00  0.00     0.004 C 
ATOM     36  C   UNL d   1      44.349  36.611  51.429  0.00  0.00     0.004 C 
ENDBRANCH  30  33
ENDBRANCH  24  27
ENDBRANCH  23  24
ENDBRANCH  22  23
ENDBRANCH   4  22
TORSDOF 11
ENDMDL
MODEL 4
REMARK VINA RESULT:      -7.0      2.032      2.748
REMARK  11 active torsions:
REMARK  status: ('A' for Active; 'I' for Inactive)
REMARK    1  A    between atoms: N_2  and  S_1 
REMARK    2  A    between atoms: C_4  and  S_1 
REMARK    3  A    between atoms: C_22  and  N_2 
REMARK    4  A    between atoms: C_3  and  C_8 
REMARK       I    between atoms: N_16  and  C_3 
REMARK    5  A    between atoms: O_28  and  C_7 
REMARK    6  A    between atoms: C_9  and  C_10 
REMARK    7  A    between atoms: O_29  and  C_11 
REMARK    8  A    between atoms: C_30  and  N_16 
REMARK    9  A    between atoms: C_24  and  C_22 
REMARK   10  A    between atoms: C_23  and  C_34 
REMARK   11  A    between atoms: C_34  and  C_30 
ROOT
ATOM      1  C   UNL d   1      48.474  34.895  51.872  0.00  0.00     0.058 A 
ATOM      2  C   UNL d   1      48.922  35.270  52.444  0.00  0.00     0.005 A 
ATOM      3  C   UNL d   1      48.828  34.303  51.402  0.00  0.00     0.005 A 
ATOM      4  C   UNL d   1      50.066  34.483  52.094  0.00  0.00     0.020 A 
ATOM      5  C   UNL d   1      49.717  35.070  52.560  0.00  0.00     0.002 A 
ATOM      6  C   UNL d   1      49.623  34.103  51.519  0.00  0.00     0.002 A 
ENDROOT
BRANCH   1   7
ATOM      7  C   UNL d   1      47.687  35.091  51.754  0.00  0.00     0.279 C 
ATOM      8  O   UNL d   1      47.374  35.093  50.986  0.00  0.00    -0.265 OA
ATOM      9  N   UNL d   1      47.208  35.284  52.394  0.00  0.00    -0.206 NA
BRANCH   9  10
ATOM     10  C   UNL d   1      46.416  35.481  52.269  0.00  0.00     0.102 C 
BRANCH  10  11
ATOM     11  C   UNL d   1      46.067  36.047  52.744  0.00  0.00     0.021 C 
BRANCH  11  12
ATOM     12  C   UNL d   1      45.646  35.816  53.400  0.00  0.00     0.004 A 
ATOM     13  C   UNL d   1      45.846  36.094  54.150  0.00  0.00     0.026 A 
ATOM     14  C   UNL d   1      45.418  35.857  54.803  0.00  0.00     0.116 A 
ATOM     15  C   UNL d   1      44.776  35.333  54.712  0.00  0.00     0.116 A 
ATOM     16  C   UNL d   1      44.576  35.057  53.974  0.00  0.00     0.026 A 
ATOM     17  C   UNL d   1      45.010  35.297  53.312  0.00  0.00     0.002 A 
BRANCH  14  18
ATOM     18  O   UNL d   1      45.622  36.137  55.553  0.00  0.00    -0.326 OA
ATOM     19  C   UNL d   1      46.259  36.697  55.760  0.00  0.00     0.181 C 
ENDBRANCH  14  18
BRANCH  15  20
ATOM     20  O   UNL d   1      44.340  35.087  55.350  0.00  0.00    -0.326 OA
ATOM     21  C   UNL d   1      44.314  34.302  55.553  0.00  0.00     0.181 C 
ENDBRANCH  15  20
ENDBRANCH  11  12
ENDBRANCH  10  11
ENDBRANCH   9  10
ENDBRANCH   1   7
BRANCH   4  22
ATOM     22  C   UNL d   1      50.861  34.283  52.211  0.00  0.00     0.112 C 
BRANCH  22  23
ATOM     23  N   UNL d   1      51.061  33.622  52.652  0.00  0.00    -0.157 NA
BRANCH  23  24
ATOM     24  S   UNL d   1      51.770  33.588  53.076  0.00  0.00     0.285 S 
ATOM     25  O   UNL d   1      52.189  33.783  52.399  0.00  0.00    -0.198 OA
ATOM     26  O   UNL d   1      51.340  33.392  53.756  0.00  0.00    -0.198 OA
BRANCH  24  27
ATOM     27  C   UNL d   1      52.466  33.552  53.509  0.00  0.00     0.105 A 
ATOM     28  C   UNL d   1      52.750  34.238  53.868  0.00  0.00     0.013 A 
ATOM     29  C   UNL d   1      53.456  34.209  54.310  0.00  0.00    -0.004 A 
ATOM     30  C   UNL d   1      53.865  33.490  54.383  0.00  0.00    -0.023 A 
ATOM     31  C   UNL d   1      53.576  32.811  54.022  0.00  0.00    -0.004 A 
ATOM     32  C   UNL d   1      52.874  32.845  53.585  0.00  0.00     0.013 A 
BRANCH  30  33
ATOM     33  C   UNL d   1      54.565  33.460  54.820  0.00  0.00     0.019 C 
ATOM     34  C   UNL d   1      54.128  33.359  55.512  0.00  0.00     0.004 C 
ATOM     35  C   UNL d   1      54.993  33.561  54.125  0.00  0.00     0.004 C 
ATOM     36  C   UNL d   1      55.261  33.430  55.258  0.00  0.00     0.004 C 
ENDBRANCH  30  33
ENDBRANCH  24  27
ENDBRANCH  23  24
ENDBRANCH  22  23
ENDBRANCH   4  22
TORSDOF 11
ENDMDL
