MODEL 1
REMARK VINA RESULT:       4.1      0.000      0.000
REMARK  3 active torsions:
REMARK  status: ('A' for Active; 'I' for Inactive)
REMARK    1  A    between atoms: C_5  and  C_1 
REMARK    2  A    between atoms: N_8  and  C_5 
REMARK    3  A    between atoms: C_10  and  C_5 
ROOT
ATOM      1  C   UNL d   1     -42.531-122.836 -49.725  0.00  0.00     0.085 C 
ENDROOT
BRANCH   1   2
ATOM      2  C   UNL d   1     -42.184-122.561 -50.428  0.00  0.00     0.059 A 
ATOM      3  C   UNL d   1     -42.159-123.061 -51.086  0.00  0.00     0.214 A 
ATOM      4  C   UNL d   1     -41.814-122.785 -51.781  0.00  0.00     0.121 A 
ATOM      5  O   UNL d   1     -42.472-123.815 -51.047  0.00  0.00    -0.285 OA
ATOM      6  N   UNL d   1     -41.789-123.284 -52.439  0.00  0.00    -0.241 NA
ATOM      7  C   UNL d   1     -41.499-122.023 -51.820  0.00  0.00     0.032 A 
ATOM      8  C   UNL d   1     -41.443-123.009 -53.137  0.00  0.00     0.099 A 
ATOM      9  C   UNL d   1     -41.123-122.246 -53.188  0.00  0.00     0.021 A 
ATOM     10  C   UNL d   1     -41.154-121.751 -52.518  0.00  0.00     0.004 A 
ATOM     11  C   UNL d   1     -41.524-121.528 -51.166  0.00  0.00     0.059 A 
ATOM     12  C   UNL d   1     -41.869-121.799 -50.463  0.00  0.00     0.016 A 
ATOM     13 CL   UNL d   1     -41.210-120.771 -51.205  0.00  0.00    -0.082 Cl
ENDBRANCH   1   2
BRANCH   1  14
ATOM     14  N   UNL d   1     -42.072-122.968 -49.062  0.00  0.00    -0.302 N 
ATOM     15  C   UNL d   1     -42.074-122.422 -48.435  0.00  0.00     0.080 A 
ATOM     16  C   UNL d   1     -41.608-122.556 -47.762  0.00  0.00     0.019 A 
ATOM     17  C   UNL d   1     -41.146-123.234 -47.723  0.00  0.00     0.003 A 
ATOM     18  C   UNL d   1     -41.143-123.776 -48.343  0.00  0.00     0.019 A 
ATOM     19  C   UNL d   1     -41.601-123.644 -49.005  0.00  0.00     0.080 A 
ENDBRANCH   1  14
BRANCH   1  20
ATOM     20  C   UNL d   1     -43.346-122.974 -49.706  0.00  0.00     0.098 A 
ATOM     21  N   UNL d   1     -43.866-122.417 -50.028  0.00  0.00    -0.243 NA
ATOM     22  C   UNL d   1     -44.669-122.547 -50.012  0.00  0.00     0.099 A 
ATOM     23  C   UNL d   1     -44.972-123.240 -49.673  0.00  0.00     0.021 A 
ATOM     24  C   UNL d   1     -44.456-123.799 -49.350  0.00  0.00     0.003 A 
ATOM     25  C   UNL d   1     -43.647-123.664 -49.368  0.00  0.00     0.021 A 
ENDBRANCH   1  20
TORSDOF 3
ENDMDL
MODEL 2
REMARK VINA RESULT:       5.0      0.343      2.183
REMARK  3 active torsions:
REMARK  status: ('A' for Active; 'I' for Inactive)
REMARK    1  A    between atoms: C_5  and  C_1 
REMARK    2  A    between atoms: N_8  and  C_5 
REMARK    3  A    between atoms: C_10  and  C_5 
ROOT
ATOM      1  C   UNL d   1     -42.557-122.780 -49.818  0.00  0.00     0.085 C 
ENDROOT
BRANCH   1   2
ATOM      2  C   UNL d   1     -42.205-122.537 -50.530  0.00  0.00     0.059 A 
ATOM      3  C   UNL d   1     -42.175-123.065 -51.165  0.00  0.00     0.214 A 
ATOM      4  C   UNL d   1     -41.825-122.820 -51.869  0.00  0.00     0.121 A 
ATOM      5  O   UNL d   1     -42.487-123.817 -51.094  0.00  0.00    -0.285 OA
ATOM      6  N   UNL d   1     -41.795-123.349 -52.504  0.00  0.00    -0.241 NA
ATOM      7  C   UNL d   1     -41.510-122.061 -51.940  0.00  0.00     0.032 A 
ATOM      8  C   UNL d   1     -41.444-123.105 -53.211  0.00  0.00     0.099 A 
ATOM      9  C   UNL d   1     -41.124-122.344 -53.294  0.00  0.00     0.021 A 
ATOM     10  C   UNL d   1     -41.161-121.821 -52.648  0.00  0.00     0.004 A 
ATOM     11  C   UNL d   1     -41.541-121.537 -51.309  0.00  0.00     0.059 A 
ATOM     12  C   UNL d   1     -41.891-121.776 -50.597  0.00  0.00     0.016 A 
ATOM     13 CL   UNL d   1     -41.227-120.781 -51.380  0.00  0.00    -0.082 Cl
ENDBRANCH   1   2
BRANCH   1  14
ATOM     14  N   UNL d   1     -43.366-122.889 -49.773  0.00  0.00    -0.302 N 
ATOM     15  C   UNL d   1     -43.679-123.625 -49.549  0.00  0.00     0.080 A 
ATOM     16  C   UNL d   1     -44.499-123.735 -49.503  0.00  0.00     0.019 A 
ATOM     17  C   UNL d   1     -44.998-123.108 -49.683  0.00  0.00     0.003 A 
ATOM     18  C   UNL d   1     -44.691-122.377 -49.906  0.00  0.00     0.019 A 
ATOM     19  C   UNL d   1     -43.883-122.269 -49.951  0.00  0.00     0.080 A 
ENDBRANCH   1  14
BRANCH   1  20
ATOM     20  C   UNL d   1     -42.079-122.910 -49.157  0.00  0.00     0.098 A 
ATOM     21  N   UNL d   1     -41.900-122.284 -48.646  0.00  0.00    -0.243 NA
ATOM     22  C   UNL d   1     -41.430-122.406 -47.994  0.00  0.00     0.099 A 
ATOM     23  C   UNL d   1     -41.125-123.160 -47.836  0.00  0.00     0.021 A 
ATOM     24  C   UNL d   1     -41.300-123.789 -48.343  0.00  0.00     0.003 A 
ATOM     25  C   UNL d   1     -41.776-123.661 -49.000  0.00  0.00     0.021 A 
ENDBRANCH   1  20
TORSDOF 3
ENDMDL
