MODEL 1
REMARK VINA RESULT:      31.4      0.000      0.000
REMARK  3 active torsions:
REMARK  status: ('A' for Active; 'I' for Inactive)
REMARK    1  A    between atoms: S_2  and  N_1 
REMARK    2  A    between atoms: C_6  and  S_2 
REMARK    3  A    between atoms: O_17  and  C_11 
ROOT
ATOM      1  S   UNL d   1      13.775  12.854  -2.461  0.00  0.00     0.273 S 
ATOM      2  O   UNL d   1      13.654  13.655  -2.306  0.00  0.00    -0.200 OA
ATOM      3  O   UNL d   1      13.897  12.049  -2.617  0.00  0.00    -0.200 OA
ENDROOT
BRANCH   1   4
ATOM      4  N   UNL d   1      14.011  12.736  -1.680  0.00  0.00    -0.214 N 
ATOM      5  C   UNL d   1      13.640  12.241  -1.128  0.00  0.00     0.157 A 
ATOM      6  N   UNL d   1      14.061  12.289  -0.413  0.00  0.00    -0.226 NA
ATOM      7  C   UNL d   1      12.975  11.786  -1.265  0.00  0.00     0.041 C 
ATOM      8  C   UNL d   1      14.693  12.816  -0.529  0.00  0.00     0.100 A 
ATOM      9  C   UNL d   1      14.663  13.090  -1.304  0.00  0.00     0.094 A 
ATOM     10  C   UNL d   1      15.287  13.075  -0.020  0.00  0.00     0.021 A 
ATOM     11  C   UNL d   1      15.234  13.630  -1.575  0.00  0.00     0.020 A 
ATOM     12  C   UNL d   1      15.826  13.888  -1.068  0.00  0.00     0.002 A 
ATOM     13  C   UNL d   1      15.858  13.615  -0.291  0.00  0.00     0.002 A 
ENDBRANCH   1   4
BRANCH   1  14
ATOM     14  C   UNL d   1      13.540  12.969  -3.243  0.00  0.00     0.106 A 
ATOM     15  C   UNL d   1      13.478  12.319  -3.758  0.00  0.00     0.039 A 
ATOM     16  C   UNL d   1      13.242  12.433  -4.541  0.00  0.00     0.122 A 
ATOM     17  C   UNL d   1      13.067  13.197  -4.816  0.00  0.00     0.162 A 
ATOM     18  C   UNL d   1      13.128  13.842  -4.305  0.00  0.00     0.032 A 
ATOM     19  F   UNL d   1      12.834  13.304  -5.590  0.00  0.00    -0.202 F 
ATOM     20  C   UNL d   1      13.364  13.728  -3.523  0.00  0.00     0.015 A 
BRANCH  16  21
ATOM     21  O   UNL d   1      13.182  11.792  -5.044  0.00  0.00    -0.326 OA
ATOM     22  C   UNL d   1      13.592  11.788  -5.747  0.00  0.00     0.181 C 
ENDBRANCH  16  21
ENDBRANCH   1  14
TORSDOF 3
ENDMDL
MODEL 2
REMARK VINA RESULT:      31.5      1.755      4.053
REMARK  3 active torsions:
REMARK  status: ('A' for Active; 'I' for Inactive)
REMARK    1  A    between atoms: S_2  and  N_1 
REMARK    2  A    between atoms: C_6  and  S_2 
REMARK    3  A    between atoms: O_17  and  C_11 
ROOT
ATOM      1  S   UNL d   1      13.661  12.917  -2.924  0.00  0.00     0.273 S 
ATOM      2  O   UNL d   1      14.265  13.477  -2.961  0.00  0.00    -0.200 OA
ATOM      3  O   UNL d   1      13.054  12.353  -2.887  0.00  0.00    -0.200 OA
ENDROOT
BRANCH   1   4
ATOM      4  N   UNL d   1      13.371  13.177  -3.651  0.00  0.00    -0.214 N 
ATOM      5  C   UNL d   1      12.967  13.887  -3.788  0.00  0.00     0.157 A 
ATOM      6  N   UNL d   1      12.777  13.925  -4.597  0.00  0.00    -0.226 NA
ATOM      7  C   UNL d   1      12.786  14.452  -3.225  0.00  0.00     0.041 C 
ATOM      8  C   UNL d   1      13.068  13.233  -4.955  0.00  0.00     0.100 A 
ATOM      9  C   UNL d   1      13.431  12.775  -4.377  0.00  0.00     0.094 A 
ATOM     10  C   UNL d   1      13.042  12.972  -5.736  0.00  0.00     0.021 A 
ATOM     11  C   UNL d   1      13.774  12.046  -4.581  0.00  0.00     0.020 A 
ATOM     12  C   UNL d   1      13.748  11.785  -5.359  0.00  0.00     0.002 A 
ATOM     13  C   UNL d   1      13.385  12.243  -5.940  0.00  0.00     0.002 A 
ENDBRANCH   1   4
BRANCH   1  14
ATOM     14  C   UNL d   1      13.948  12.653  -2.197  0.00  0.00     0.106 A 
ATOM     15  C   UNL d   1      14.628  13.001  -1.868  0.00  0.00     0.039 A 
ATOM     16  C   UNL d   1      14.916  12.739  -1.141  0.00  0.00     0.122 A 
ATOM     17  C   UNL d   1      14.527  12.126  -0.736  0.00  0.00     0.162 A 
ATOM     18  C   UNL d   1      13.852  11.781  -1.062  0.00  0.00     0.032 A 
ATOM     19  F   UNL d   1      14.816  11.870  -0.017  0.00  0.00    -0.202 F 
ATOM     20  C   UNL d   1      13.565  12.043  -1.789  0.00  0.00     0.015 A 
BRANCH  16  21
ATOM     21  O   UNL d   1      15.584  13.083  -0.820  0.00  0.00    -0.326 OA
ATOM     22  C   UNL d   1      15.549  13.839  -0.523  0.00  0.00     0.181 C 
ENDBRANCH  16  21
ENDBRANCH   1  14
TORSDOF 3
ENDMDL
MODEL 3
REMARK VINA RESULT:      34.3      2.175      3.950
REMARK  3 active torsions:
REMARK  status: ('A' for Active; 'I' for Inactive)
REMARK    1  A    between atoms: S_2  and  N_1 
REMARK    2  A    between atoms: C_6  and  S_2 
REMARK    3  A    between atoms: O_17  and  C_11 
ROOT
ATOM      1  S   UNL d   1      14.678  13.612  -1.054  0.00  0.00     0.273 S 
ATOM      2  O   UNL d   1      15.361  13.313  -1.405  0.00  0.00    -0.200 OA
ATOM      3  O   UNL d   1      13.991  13.913  -0.700  0.00  0.00    -0.200 OA
ENDROOT
BRANCH   1   4
ATOM      4  N   UNL d   1      14.253  12.954  -1.313  0.00  0.00    -0.214 N 
ATOM      5  C   UNL d   1      13.984  12.330  -0.838  0.00  0.00     0.157 A 
ATOM      6  N   UNL d   1      13.583  11.788  -1.325  0.00  0.00    -0.226 NA
ATOM      7  C   UNL d   1      14.094  12.260  -0.031  0.00  0.00     0.041 C 
ATOM      8  C   UNL d   1      13.608  12.084  -2.102  0.00  0.00     0.100 A 
ATOM      9  C   UNL d   1      14.017  12.797  -2.095  0.00  0.00     0.094 A 
ATOM     10  C   UNL d   1      13.306  11.786  -2.808  0.00  0.00     0.021 A 
ATOM     11  C   UNL d   1      14.127  13.219  -2.802  0.00  0.00     0.020 A 
ATOM     12  C   UNL d   1      13.827  12.922  -3.506  0.00  0.00     0.002 A 
ATOM     13  C   UNL d   1      13.416  12.208  -3.516  0.00  0.00     0.002 A 
ENDBRANCH   1   4
BRANCH   1  14
ATOM     14  C   UNL d   1      15.099  14.271  -0.794  0.00  0.00     0.106 A 
ATOM     15  C   UNL d   1      14.860  15.034  -1.021  0.00  0.00     0.039 A 
ATOM     16  C   UNL d   1      15.281  15.694  -0.761  0.00  0.00     0.122 A 
ATOM     17  C   UNL d   1      15.945  15.598  -0.271  0.00  0.00     0.162 A 
ATOM     18  C   UNL d   1      16.183  14.841  -0.045  0.00  0.00     0.032 A 
ATOM     19  F   UNL d   1      16.358  16.254  -0.017  0.00  0.00    -0.202 F 
ATOM     20  C   UNL d   1      15.762  14.181  -0.305  0.00  0.00     0.015 A 
BRANCH  16  21
ATOM     21  O   UNL d   1      15.043  16.443  -0.987  0.00  0.00    -0.326 OA
ATOM     22  C   UNL d   1      15.316  16.763  -1.683  0.00  0.00     0.181 C 
ENDBRANCH  16  21
ENDBRANCH   1  14
TORSDOF 3
ENDMDL
