MODEL 1
REMARK VINA RESULT:      25.3      0.000      0.000
REMARK  4 active torsions:
REMARK  status: ('A' for Active; 'I' for Inactive)
REMARK    1  A    between atoms: C_7  and  N_2 
REMARK    2  A    between atoms: C_12  and  C_7 
REMARK    3  A    between atoms: C_9  and  O_11 
REMARK    4  A    between atoms: O_11  and  C_12 
ROOT
ATOM      1  C   UNL d   1     -58.721 -98.795 -45.634  0.00  0.00     0.296 A 
ATOM      2  N   UNL d   1     -58.140 -98.776 -45.053  0.00  0.00    -0.266 N 
ATOM      3  S   UNL d   1     -59.465 -98.806 -45.249  0.00  0.00    -0.025 SA
ATOM      4  C   UNL d   1     -58.515 -98.776 -44.313  0.00  0.00     0.074 A 
ATOM      5  C   UNL d   1     -59.326 -98.794 -44.433  0.00  0.00     0.050 A 
ATOM      6  O   UNL d   1     -58.601 -98.801 -46.446  0.00  0.00    -0.259 OA
ATOM      7  C   UNL d   1     -58.206 -98.761 -43.545  0.00  0.00     0.018 A 
ATOM      8  C   UNL d   1     -59.848 -98.798 -43.788  0.00  0.00     0.008 A 
ATOM      9  C   UNL d   1     -58.724 -98.764 -42.900  0.00  0.00     0.002 A 
ATOM     10  C   UNL d   1     -59.536 -98.783 -43.020  0.00  0.00     0.001 A 
ENDROOT
BRANCH   2  11
ATOM     11  C   UNL d   1     -57.326 -98.760 -45.182  0.00  0.00     0.110 C 
BRANCH  11  12
ATOM     12  C   UNL d   1     -56.808 -99.047 -44.610  0.00  0.00     0.142 C 
BRANCH  12  13
ATOM     13  O   UNL d   1     -56.001 -99.133 -44.770  0.00  0.00    -0.304 OA
BRANCH  13  14
ATOM     14  C   UNL d   1     -55.571 -99.747 -44.426  0.00  0.00     0.100 A 
ATOM     15  C   UNL d   1     -55.554-100.490 -44.786  0.00  0.00     0.025 A 
ATOM     16  C   UNL d   1     -55.126-101.099 -44.443  0.00  0.00     0.002 A 
ATOM     17  C   UNL d   1     -55.110-101.841 -44.803  0.00  0.00     0.000 C 
ATOM     18  C   UNL d   1     -54.715-100.967 -43.740  0.00  0.00     0.000 A 
ATOM     19  C   UNL d   1     -54.734-100.220 -43.383  0.00  0.00     0.002 A 
ATOM     20  C   UNL d   1     -55.165 -99.615 -43.733  0.00  0.00     0.025 A 
ENDBRANCH  13  14
ENDBRANCH  12  13
ENDBRANCH  11  12
ENDBRANCH   2  11
TORSDOF 4
ENDMDL
