MODEL 1
REMARK VINA RESULT:      -4.7      0.000      0.000
REMARK  4 active torsions:
REMARK  status: ('A' for Active; 'I' for Inactive)
REMARK    1  A    between atoms: C_9  and  N_2 
REMARK    2  A    between atoms: C_7  and  O_10 
REMARK    3  A    between atoms: C_11  and  C_9 
REMARK    4  A    between atoms: O_10  and  C_11 
ROOT
ATOM      1  C   UNL d   1      58.205   0.407  29.117  0.00  0.00     0.378 A 
ATOM      2  N   UNL d   1      58.589   0.460  29.854  0.00  0.00    -0.249 N 
ATOM      3  O   UNL d   1      58.763   0.158  28.554  0.00  0.00    -0.258 OA
ATOM      4  C   UNL d   1      59.380   0.244  29.743  0.00  0.00     0.092 A 
ATOM      5  C   UNL d   1      59.485   0.058  28.940  0.00  0.00     0.121 A 
ATOM      6  O   UNL d   1      57.412   0.574  28.982  0.00  0.00    -0.237 OA
ATOM      7  C   UNL d   1      60.017   0.192  30.268  0.00  0.00     0.020 A 
ATOM      8  C   UNL d   1      60.236  -0.180  28.671  0.00  0.00     0.026 A 
ATOM      9  C   UNL d   1      60.757  -0.045  29.990  0.00  0.00     0.002 A 
ATOM     10  C   UNL d   1      60.866  -0.230  29.196  0.00  0.00     0.002 A 
ENDROOT
BRANCH   2  11
ATOM     11  C   UNL d   1      58.279   0.682  30.586  0.00  0.00     0.112 C 
BRANCH  11  12
ATOM     12  C   UNL d   1      57.755   0.188  30.974  0.00  0.00     0.142 C 
BRANCH  12  13
ATOM     13  O   UNL d   1      57.431   0.419  31.696  0.00  0.00    -0.304 OA
BRANCH  13  14
ATOM     14  C   UNL d   1      56.976  -0.114  32.134  0.00  0.00     0.100 A 
ATOM     15  C   UNL d   1      56.870   0.015  32.936  0.00  0.00     0.023 A 
ATOM     16  C   UNL d   1      57.210   0.667  33.302  0.00  0.00     0.002 C 
ATOM     17  C   UNL d   1      56.416  -0.516  33.381  0.00  0.00     0.002 A 
ATOM     18  C   UNL d   1      56.075  -1.172  33.007  0.00  0.00     0.000 A 
ATOM     19  C   UNL d   1      56.188  -1.292  32.199  0.00  0.00     0.002 A 
ATOM     20  C   UNL d   1      56.638  -0.764  31.767  0.00  0.00     0.025 A 
ENDBRANCH  13  14
ENDBRANCH  12  13
ENDBRANCH  11  12
ENDBRANCH   2  11
TORSDOF 4
ENDMDL
MODEL 2
REMARK VINA RESULT:      -3.8      9.339     10.024
REMARK  4 active torsions:
REMARK  status: ('A' for Active; 'I' for Inactive)
REMARK    1  A    between atoms: C_9  and  N_2 
REMARK    2  A    between atoms: C_7  and  O_10 
REMARK    3  A    between atoms: C_11  and  C_9 
REMARK    4  A    between atoms: O_10  and  C_11 
ROOT
ATOM      1  C   UNL d   1      60.036  -9.749  32.333  0.00  0.00     0.378 A 
ATOM      2  N   UNL d   1      59.376  -9.769  32.841  0.00  0.00    -0.249 N 
ATOM      3  O   UNL d   1      59.759  -9.752  31.551  0.00  0.00    -0.258 OA
ATOM      4  C   UNL d   1      58.696  -9.784  32.370  0.00  0.00     0.092 A 
ATOM      5  C   UNL d   1      58.935  -9.774  31.574  0.00  0.00     0.121 A 
ATOM      6  O   UNL d   1      60.821  -9.730  32.577  0.00  0.00    -0.237 OA
ATOM      7  C   UNL d   1      57.892  -9.806  32.562  0.00  0.00     0.020 A 
ATOM      8  C   UNL d   1      58.357  -9.786  30.975  0.00  0.00     0.026 A 
ATOM      9  C   UNL d   1      57.328  -9.818  31.959  0.00  0.00     0.002 A 
ATOM     10  C   UNL d   1      57.559  -9.808  31.171  0.00  0.00     0.002 A 
ENDROOT
BRANCH   2  11
ATOM     11  C   UNL d   1      59.355  -9.774  33.666  0.00  0.00     0.112 C 
BRANCH  11  12
ATOM     12  C   UNL d   1      59.708  -9.167  34.087  0.00  0.00     0.142 C 
BRANCH  12  13
ATOM     13  O   UNL d   1      59.787  -9.227  34.905  0.00  0.00    -0.304 OA
BRANCH  13  14
ATOM     14  C   UNL d   1      59.849  -8.542  35.365  0.00  0.00     0.100 A 
ATOM     15  C   UNL d   1      60.493  -8.452  35.862  0.00  0.00     0.023 A 
ATOM     16  C   UNL d   1      61.072  -9.033  35.906  0.00  0.00     0.002 C 
ATOM     17  C   UNL d   1      60.561  -7.769  36.326  0.00  0.00     0.002 A 
ATOM     18  C   UNL d   1      59.974  -7.185  36.279  0.00  0.00     0.000 A 
ATOM     19  C   UNL d   1      59.330  -7.287  35.774  0.00  0.00     0.002 A 
ATOM     20  C   UNL d   1      59.270  -7.964  35.321  0.00  0.00     0.025 A 
ENDBRANCH  13  14
ENDBRANCH  12  13
ENDBRANCH  11  12
ENDBRANCH   2  11
TORSDOF 4
ENDMDL
MODEL 3
REMARK VINA RESULT:      -2.6      1.127      4.139
REMARK  4 active torsions:
REMARK  status: ('A' for Active; 'I' for Inactive)
REMARK    1  A    between atoms: C_9  and  N_2 
REMARK    2  A    between atoms: C_7  and  O_10 
REMARK    3  A    between atoms: C_11  and  C_9 
REMARK    4  A    between atoms: O_10  and  C_11 
ROOT
ATOM      1  C   UNL d   1      57.139   0.645  30.748  0.00  0.00     0.378 A 
ATOM      2  N   UNL d   1      57.875   0.655  31.137  0.00  0.00    -0.249 N 
ATOM      3  O   UNL d   1      56.543   0.648  31.326  0.00  0.00    -0.258 OA
ATOM      4  C   UNL d   1      57.730   0.664  31.952  0.00  0.00     0.092 A 
ATOM      5  C   UNL d   1      56.907   0.659  32.066  0.00  0.00     0.121 A 
ATOM      6  O   UNL d   1      57.034   0.635  29.933  0.00  0.00    -0.237 OA
ATOM      7  C   UNL d   1      58.239   0.675  32.603  0.00  0.00     0.020 A 
ATOM      8  C   UNL d   1      56.603   0.666  32.841  0.00  0.00     0.026 A 
ATOM      9  C   UNL d   1      57.926   0.682  33.367  0.00  0.00     0.002 A 
ATOM     10  C   UNL d   1      57.112   0.677  33.485  0.00  0.00     0.002 A 
ENDROOT
BRANCH   2  11
ATOM     11  C   UNL d   1      58.635   0.656  30.813  0.00  0.00     0.112 C 
BRANCH  11  12
ATOM     12  C   UNL d   1      58.829   0.120  30.227  0.00  0.00     0.142 C 
BRANCH  12  13
ATOM     13  O   UNL d   1      59.526   0.215  29.798  0.00  0.00    -0.304 OA
BRANCH  13  14
ATOM     14  C   UNL d   1      59.854  -0.428  29.395  0.00  0.00     0.100 A 
ATOM     15  C   UNL d   1      60.654  -0.424  29.219  0.00  0.00     0.023 A 
ATOM     16  C   UNL d   1      61.127   0.210  29.441  0.00  0.00     0.002 C 
ATOM     17  C   UNL d   1      60.989  -1.065  28.815  0.00  0.00     0.002 A 
ATOM     18  C   UNL d   1      60.507  -1.702  28.593  0.00  0.00     0.000 A 
ATOM     19  C   UNL d   1      59.703  -1.695  28.775  0.00  0.00     0.002 A 
ATOM     20  C   UNL d   1      59.380  -1.059  29.174  0.00  0.00     0.025 A 
ENDBRANCH  13  14
ENDBRANCH  12  13
ENDBRANCH  11  12
ENDBRANCH   2  11
TORSDOF 4
ENDMDL
MODEL 4
REMARK VINA RESULT:      -2.6      9.712     10.347
REMARK  4 active torsions:
REMARK  status: ('A' for Active; 'I' for Inactive)
REMARK    1  A    between atoms: C_9  and  N_2 
REMARK    2  A    between atoms: C_7  and  O_10 
REMARK    3  A    between atoms: C_11  and  C_9 
REMARK    4  A    between atoms: O_10  and  C_11 
ROOT
ATOM      1  C   UNL d   1      60.600  -8.776  33.882  0.00  0.00     0.378 A 
ATOM      2  N   UNL d   1      59.935  -9.268  33.983  0.00  0.00    -0.249 N 
ATOM      3  O   UNL d   1      60.696  -8.327  34.573  0.00  0.00    -0.258 OA
ATOM      4  C   UNL d   1      59.625  -9.120  34.736  0.00  0.00     0.092 A 
ATOM      5  C   UNL d   1      60.096  -8.539  35.099  0.00  0.00     0.121 A 
ATOM      6  O   UNL d   1      61.071  -8.749  33.209  0.00  0.00    -0.237 OA
ATOM      7  C   UNL d   1      58.976  -9.439  35.137  0.00  0.00     0.020 A 
ATOM      8  C   UNL d   1      59.907  -8.283  35.867  0.00  0.00     0.026 A 
ATOM      9  C   UNL d   1      58.799  -9.176  35.900  0.00  0.00     0.002 A 
ATOM     10  C   UNL d   1      59.261  -8.602  36.263  0.00  0.00     0.002 A 
ENDROOT
BRANCH   2  11
ATOM     11  C   UNL d   1      59.609  -9.816  33.459  0.00  0.00     0.112 C 
BRANCH  11  12
ATOM     12  C   UNL d   1      59.364  -9.575  32.717  0.00  0.00     0.142 C 
BRANCH  12  13
ATOM     13  O   UNL d   1      58.630  -9.815  32.429  0.00  0.00    -0.304 OA
BRANCH  13  14
ATOM     14  C   UNL d   1      58.468  -9.769  31.620  0.00  0.00     0.100 A 
ATOM     15  C   UNL d   1      57.690  -9.725  31.370  0.00  0.00     0.023 A 
ATOM     16  C   UNL d   1      57.075  -9.726  31.915  0.00  0.00     0.002 C 
ATOM     17  C   UNL d   1      57.520  -9.679  30.560  0.00  0.00     0.002 A 
ATOM     18  C   UNL d   1      58.144  -9.678  30.014  0.00  0.00     0.000 A 
ATOM     19  C   UNL d   1      58.924  -9.723  30.277  0.00  0.00     0.002 A 
ATOM     20  C   UNL d   1      59.082  -9.768  31.078  0.00  0.00     0.025 A 
ENDBRANCH  13  14
ENDBRANCH  12  13
ENDBRANCH  11  12
ENDBRANCH   2  11
TORSDOF 4
ENDMDL
