MODEL 1
REMARK VINA RESULT:     113.8      0.000      0.000
REMARK  4 active torsions:
REMARK  status: ('A' for Active; 'I' for Inactive)
REMARK    1  A    between atoms: C_2  and  C_1 
REMARK    2  A    between atoms: C_7  and  O_14 
REMARK       I    between atoms: N_12  and  C_7 
REMARK    3  A    between atoms: O_14  and  C_11 
REMARK    4  A    between atoms: C_24  and  C_18 
ROOT
ATOM      1  C   UNL d   1      60.922  46.146  50.737  0.00  0.00     0.099 A 
ATOM      2  C   UNL d   1      61.241  46.858  50.472  0.00  0.00     0.202 A 
ATOM      3  C   UNL d   1      60.821  47.568  50.578  0.00  0.00     0.062 A 
ATOM      4  C   UNL d   1      60.180  46.135  51.111  0.00  0.00     0.129 A 
ATOM      5  C   UNL d   1      60.084  47.558  50.950  0.00  0.00     0.105 A 
ATOM      6  O   UNL d   1      59.761  46.846  51.218  0.00  0.00    -0.305 OA
ATOM      7  C   UNL d   1      59.992  48.965  50.790  0.00  0.00     0.107 A 
ATOM      8  C   UNL d   1      61.140  48.282  50.313  0.00  0.00     0.007 A 
ATOM      9  C   UNL d   1      59.665  48.260  51.058  0.00  0.00     0.050 A 
ATOM     10  C   UNL d   1      60.722  48.975  50.421  0.00  0.00     0.023 A 
ATOM     11  O   UNL d   1      61.974  46.869  50.101  0.00  0.00    -0.286 OA
ENDROOT
BRANCH   1  12
ATOM     12  C   UNL d   1      61.338  45.439  50.632  0.00  0.00     0.168 A 
ATOM     13  N   UNL d   1      61.827  45.254  49.996  0.00  0.00    -0.225 NA
ATOM     14  C   UNL d   1      62.129  44.488  50.119  0.00  0.00     0.101 A 
ATOM     15  C   UNL d   1      62.635  44.020  49.679  0.00  0.00     0.021 A 
ATOM     16  C   UNL d   1      61.822  44.208  50.832  0.00  0.00     0.101 A 
ATOM     17  C   UNL d   1      62.845  43.266  49.940  0.00  0.00     0.002 A 
ATOM     18  C   UNL d   1      62.534  42.988  50.660  0.00  0.00     0.002 A 
ATOM     19  C   UNL d   1      62.022  43.462  51.105  0.00  0.00     0.021 A 
ATOM     20  N   UNL d   1      61.333  44.798  51.147  0.00  0.00    -0.225 NA
ENDBRANCH   1  12
BRANCH  10  21
ATOM     21  C   UNL d   1      61.039  49.696  50.155  0.00  0.00     0.002 C 
ATOM     22  C   UNL d   1      61.738  49.699  49.713  0.00  0.00     0.000 C 
ENDBRANCH  10  21
BRANCH   7  23
ATOM     23  O   UNL d   1      59.565  49.675  50.900  0.00  0.00    -0.259 OA
BRANCH  23  24
ATOM     24  C   UNL d   1      58.905  49.691  51.395  0.00  0.00     0.378 C 
ATOM     25  N   UNL d   1      58.145  49.691  51.074  0.00  0.00    -0.247 N 
ATOM     26  C   UNL d   1      57.490  49.708  51.576  0.00  0.00     0.112 A 
ATOM     27  C   UNL d   1      58.048  49.675  50.255  0.00  0.00     0.112 A 
ATOM     28  C   UNL d   1      56.734  49.708  51.257  0.00  0.00     0.142 A 
ATOM     29  O   UNL d   1      56.630  49.691  50.438  0.00  0.00    -0.300 OA
ATOM     30  C   UNL d   1      57.285  49.675  49.936  0.00  0.00     0.142 A 
ATOM     31  O   UNL d   1      59.003  49.708  52.215  0.00  0.00    -0.237 OA
ENDBRANCH  23  24
ENDBRANCH   7  23
TORSDOF 4
ENDMDL
