MODEL 1
REMARK VINA RESULT:      18.4      0.000      0.000
REMARK  3 active torsions:
REMARK  status: ('A' for Active; 'I' for Inactive)
REMARK    1  A    between atoms: N_2  and  C_1 
REMARK    2  A    between atoms: C_4  and  C_8 
REMARK    3  A    between atoms: N_14  and  C_5 
ROOT
ATOM      1  C   UNL d   1      14.327  12.451  -1.727  0.00  0.00     0.143 A 
ATOM      2  C   UNL d   1      13.725  12.098  -1.291  0.00  0.00     0.086 A 
ATOM      3  C   UNL d   1      14.249  12.540  -2.548  0.00  0.00     0.027 A 
ATOM      4  C   UNL d   1      13.560  12.271  -2.930  0.00  0.00     0.021 A 
ATOM      5  C   UNL d   1      13.043  11.831  -1.669  0.00  0.00     0.019 A 
ATOM      6  C   UNL d   1      12.955  11.915  -2.487  0.00  0.00     0.003 A 
ENDROOT
BRANCH   4   7
ATOM      7  C   UNL d   1      13.480  12.358  -3.744  0.00  0.00     0.103 A 
ATOM      8  N   UNL d   1      13.781  11.781  -4.253  0.00  0.00    -0.145 NA
ATOM      9  N   UNL d   1      13.701  11.868  -5.067  0.00  0.00    -0.106 NA
ATOM     10  C   UNL d   1      13.319  12.530  -5.375  0.00  0.00     0.297 A 
ATOM     11  C   UNL d   1      13.017  13.106  -4.866  0.00  0.00     0.066 A 
ATOM     12  O   UNL d   1      13.239  12.617  -6.189  0.00  0.00    -0.264 OA
ATOM     13  C   UNL d   1      13.096  13.022  -4.045  0.00  0.00     0.024 A 
ATOM     14  C   UNL d   1      12.795  13.597  -3.541  0.00  0.00     0.002 C 
ENDBRANCH   4   7
BRANCH   1  15
ATOM     15  N   UNL d   1      15.015  12.721  -1.354  0.00  0.00    -0.112 N 
ATOM     16  O   UNL d   1      15.689  12.238  -1.348  0.00  0.00    -0.532 OA
ATOM     17  O   UNL d   1      15.033  13.460  -0.993  0.00  0.00    -0.532 OA
ENDBRANCH   1  15
BRANCH   2  18
ATOM     18  N   UNL d   1      13.806  12.011  -0.478  0.00  0.00    -0.300 N 
ATOM     19  C   UNL d   1      13.145  11.849  -0.016  0.00  0.00     0.100 C 
ATOM     20  C   UNL d   1      14.547  12.087  -0.126  0.00  0.00     0.100 C 
ENDBRANCH   2  18
TORSDOF 3
ENDMDL
