MODEL 1
REMARK VINA RESULT:      -5.8      0.000      0.000
REMARK  4 active torsions:
REMARK  status: ('A' for Active; 'I' for Inactive)
REMARK    1  A    between atoms: C_7  and  C_1 
REMARK    2  A    between atoms: N_5  and  C_3 
REMARK       I    between atoms: C_8  and  N_5 
REMARK    3  A    between atoms: C_9  and  C_8 
REMARK    4  A    between atoms: O_21  and  C_15 
ROOT
ATOM      1  C   UNL d   1      58.690   0.079  29.582  0.00  0.00     0.137 A 
ATOM      2  S   UNL d   1      58.549   0.081  30.394  0.00  0.00    -0.026 SA
ATOM      3  C   UNL d   1      57.770   0.299  30.526  0.00  0.00     0.219 A 
ATOM      4  N   UNL d   1      57.979   0.301  29.202  0.00  0.00    -0.139 NA
ATOM      5  N   UNL d   1      57.412   0.437  29.784  0.00  0.00    -0.121 NA
ENDROOT
BRANCH   3   6
ATOM      6  N   UNL d   1      57.401   0.371  31.258  0.00  0.00    -0.181 NA
ATOM      7  C   UNL d   1      56.999  -0.184  31.724  0.00  0.00     0.281 C 
ATOM      8  O   UNL d   1      56.922  -0.954  31.465  0.00  0.00    -0.265 OA
BRANCH   7   9
ATOM      9  C   UNL d   1      56.680   0.051  32.449  0.00  0.00     0.060 A 
ATOM     10  C   UNL d   1      55.878  -0.080  32.597  0.00  0.00     0.031 A 
ATOM     11  C   UNL d   1      55.556   0.150  33.311  0.00  0.00     0.119 A 
ATOM     12  O   UNL d   1      54.794   0.096  33.614  0.00  0.00    -0.300 OA
ATOM     13  C   UNL d   1      56.027   0.512  33.882  0.00  0.00     0.119 A 
ATOM     14  C   UNL d   1      54.790   0.424  34.376  0.00  0.00     0.304 A 
ATOM     15  O   UNL d   1      55.558   0.682  34.540  0.00  0.00    -0.300 OA
ATOM     16  C   UNL d   1      56.829   0.643  33.734  0.00  0.00     0.026 A 
ATOM     17  C   UNL d   1      57.155   0.413  33.017  0.00  0.00     0.007 A 
ENDBRANCH   7   9
ENDBRANCH   3   6
BRANCH   1  18
ATOM     18  C   UNL d   1      59.402  -0.109  29.205  0.00  0.00     0.048 A 
ATOM     19  C   UNL d   1      59.537  -0.872  28.905  0.00  0.00     0.096 A 
ATOM     20  C   UNL d   1      60.237  -1.056  28.534  0.00  0.00     0.024 A 
ATOM     21  C   UNL d   1      60.823  -0.475  28.456  0.00  0.00     0.002 A 
ATOM     22  C   UNL d   1      60.703   0.278  28.747  0.00  0.00     0.000 A 
ATOM     23  C   UNL d   1      59.986   0.459  29.124  0.00  0.00     0.004 A 
BRANCH  19  24
ATOM     24  O   UNL d   1      58.952  -1.440  28.986  0.00  0.00    -0.328 OA
ATOM     25  C   UNL d   1      59.102  -2.219  28.759  0.00  0.00     0.181 C 
ENDBRANCH  19  24
ENDBRANCH   1  18
TORSDOF 4
ENDMDL
