MODEL 1
REMARK VINA RESULT:       2.7      0.000      0.000
REMARK  3 active torsions:
REMARK  status: ('A' for Active; 'I' for Inactive)
REMARK    1  A    between atoms: N_5  and  C_1 
REMARK    2  A    between atoms: C_9  and  C_2 
REMARK       I    between atoms: C_8  and  N_5 
REMARK    3  A    between atoms: C_10  and  C_8 
ROOT
ATOM      1  C   UNL d   1      58.590  -9.661  32.186  0.00  0.00     0.155 A 
ATOM      2  C   UNL d   1      59.049  -9.594  31.504  0.00  0.00     0.080 A 
ATOM      3  N   UNL d   1      57.765  -9.735  32.121  0.00  0.00    -0.289 N 
ATOM      4  C   UNL d   1      58.685  -9.599  30.757  0.00  0.00     0.200 A 
ATOM      5  C   UNL d   1      57.866  -9.672  30.698  0.00  0.00     0.055 A 
ATOM      6  C   UNL d   1      57.406  -9.740  31.379  0.00  0.00     0.069 A 
ATOM      7  O   UNL d   1      59.147  -9.531  30.072  0.00  0.00    -0.286 OA
ATOM      8  C   UNL d   1      57.305  -9.802  32.802  0.00  0.00     0.101 C 
ATOM      9  C   UNL d   1      57.509  -9.677  29.956  0.00  0.00     0.005 A 
ATOM     10  C   UNL d   1      56.596  -9.812  31.324  0.00  0.00     0.018 A 
ATOM     11  C   UNL d   1      56.690  -9.750  29.897  0.00  0.00     0.000 A 
ATOM     12  C   UNL d   1      56.230  -9.818  30.579  0.00  0.00     0.002 A 
ENDROOT
BRANCH   1  13
ATOM     13  N   UNL d   1      58.953  -9.656  32.940  0.00  0.00    -0.190 NA
ATOM     14  C   UNL d   1      58.679  -9.161  33.547  0.00  0.00     0.286 C 
ATOM     15  O   UNL d   1      58.038  -8.671  33.396  0.00  0.00    -0.265 OA
BRANCH  14  16
ATOM     16  C   UNL d   1      59.037  -9.157  34.288  0.00  0.00     0.087 A 
ATOM     17  S   UNL d   1      59.183  -8.442  34.672  0.00  0.00    -0.082 SA
ATOM     18  C   UNL d   1      59.542  -8.614  35.395  0.00  0.00     0.036 A 
ATOM     19  C   UNL d   1      59.620  -9.434  35.461  0.00  0.00     0.008 A 
ATOM     20  C   UNL d   1      59.306  -9.774  34.773  0.00  0.00     0.012 A 
ENDBRANCH  14  16
ENDBRANCH   1  13
BRANCH   2  21
ATOM     21  C   UNL d   1      59.867  -9.521  31.563  0.00  0.00     0.035 A 
ATOM     22  S   UNL d   1      60.357  -9.134  31.022  0.00  0.00    -0.086 SA
ATOM     23  C   UNL d   1      61.133  -9.196  31.300  0.00  0.00     0.035 A 
ATOM     24  C   UNL d   1      61.125  -9.623  32.012  0.00  0.00     0.007 A 
ATOM     25  C   UNL d   1      60.339  -9.818  32.165  0.00  0.00     0.007 A 
ENDBRANCH   2  21
TORSDOF 3
ENDMDL
MODEL 2
REMARK VINA RESULT:       2.8      1.402      2.605
REMARK  3 active torsions:
REMARK  status: ('A' for Active; 'I' for Inactive)
REMARK    1  A    between atoms: N_5  and  C_1 
REMARK    2  A    between atoms: C_9  and  C_2 
REMARK       I    between atoms: C_8  and  N_5 
REMARK    3  A    between atoms: C_10  and  C_8 
ROOT
ATOM      1  C   UNL d   1      59.702  -9.783  32.206  0.00  0.00     0.155 A 
ATOM      2  C   UNL d   1      58.986  -9.794  31.795  0.00  0.00     0.080 A 
ATOM      3  N   UNL d   1      60.418  -9.782  31.786  0.00  0.00    -0.289 N 
ATOM      4  C   UNL d   1      58.988  -9.803  30.964  0.00  0.00     0.200 A 
ATOM      5  C   UNL d   1      59.701  -9.802  30.551  0.00  0.00     0.055 A 
ATOM      6  C   UNL d   1      60.416  -9.792  30.963  0.00  0.00     0.069 A 
ATOM      7  O   UNL d   1      58.269  -9.814  30.550  0.00  0.00    -0.286 OA
ATOM      8  C   UNL d   1      61.133  -9.771  32.197  0.00  0.00     0.101 C 
ATOM      9  C   UNL d   1      59.698  -9.812  29.728  0.00  0.00     0.005 A 
ATOM     10  C   UNL d   1      61.124  -9.791  30.558  0.00  0.00     0.018 A 
ATOM     11  C   UNL d   1      60.412  -9.811  29.316  0.00  0.00     0.000 A 
ATOM     12  C   UNL d   1      61.127  -9.800  29.727  0.00  0.00     0.002 A 
ENDROOT
BRANCH   1  13
ATOM     13  N   UNL d   1      59.705  -9.773  33.043  0.00  0.00    -0.190 NA
ATOM     14  C   UNL d   1      60.214  -9.272  33.466  0.00  0.00     0.286 C 
ATOM     15  O   UNL d   1      60.720  -8.781  33.047  0.00  0.00    -0.265 OA
BRANCH  14  16
ATOM     16  C   UNL d   1      60.216  -9.264  34.289  0.00  0.00     0.087 A 
ATOM     17  S   UNL d   1      60.570  -8.638  34.695  0.00  0.00    -0.082 SA
ATOM     18  C   UNL d   1      60.484  -8.784  35.503  0.00  0.00     0.036 A 
ATOM     19  C   UNL d   1      60.079  -9.497  35.601  0.00  0.00     0.008 A 
ATOM     20  C   UNL d   1      59.911  -9.797  34.846  0.00  0.00     0.012 A 
ENDBRANCH  14  16
ENDBRANCH   1  13
BRANCH   2  21
ATOM     21  C   UNL d   1      58.273  -9.795  32.206  0.00  0.00     0.035 A 
ATOM     22  S   UNL d   1      57.520  -9.772  31.867  0.00  0.00    -0.086 SA
ATOM     23  C   UNL d   1      56.969  -9.782  32.482  0.00  0.00     0.035 A 
ATOM     24  C   UNL d   1      57.379  -9.810  33.204  0.00  0.00     0.007 A 
ATOM     25  C   UNL d   1      58.183  -9.818  33.021  0.00  0.00     0.007 A 
ENDBRANCH   2  21
TORSDOF 3
ENDMDL
MODEL 3
REMARK VINA RESULT:       3.1      1.175      3.564
REMARK  3 active torsions:
REMARK  status: ('A' for Active; 'I' for Inactive)
REMARK    1  A    between atoms: N_5  and  C_1 
REMARK    2  A    between atoms: C_9  and  C_2 
REMARK       I    between atoms: C_8  and  N_5 
REMARK    3  A    between atoms: C_10  and  C_8 
ROOT
ATOM      1  C   UNL d   1      59.010  -9.537  32.556  0.00  0.00     0.155 A 
ATOM      2  C   UNL d   1      59.807  -9.338  32.634  0.00  0.00     0.080 A 
ATOM      3  N   UNL d   1      58.538  -9.619  33.235  0.00  0.00    -0.289 N 
ATOM      4  C   UNL d   1      60.132  -9.221  33.389  0.00  0.00     0.200 A 
ATOM      5  C   UNL d   1      59.660  -9.303  34.060  0.00  0.00     0.055 A 
ATOM      6  C   UNL d   1      58.863  -9.502  33.982  0.00  0.00     0.069 A 
ATOM      7  O   UNL d   1      60.932  -9.021  33.467  0.00  0.00    -0.286 OA
ATOM      8  C   UNL d   1      57.741  -9.818  33.158  0.00  0.00     0.101 C 
ATOM      9  C   UNL d   1      59.985  -9.186  34.806  0.00  0.00     0.005 A 
ATOM     10  C   UNL d   1      58.392  -9.584  34.644  0.00  0.00     0.018 A 
ATOM     11  C   UNL d   1      59.513  -9.268  35.477  0.00  0.00     0.000 A 
ATOM     12  C   UNL d   1      58.716  -9.467  35.399  0.00  0.00     0.002 A 
ENDROOT
BRANCH   1  13
ATOM     13  N   UNL d   1      58.679  -9.657  31.797  0.00  0.00    -0.190 NA
ATOM     14  C   UNL d   1      57.945  -9.328  31.590  0.00  0.00     0.286 C 
ATOM     15  O   UNL d   1      57.544  -8.879  32.148  0.00  0.00    -0.265 OA
BRANCH  14  16
ATOM     16  C   UNL d   1      57.620  -9.446  30.843  0.00  0.00     0.087 A 
ATOM     17  S   UNL d   1      56.851  -9.735  30.768  0.00  0.00    -0.082 SA
ATOM     18  C   UNL d   1      56.683  -9.794  29.962  0.00  0.00     0.036 A 
ATOM     19  C   UNL d   1      57.344  -9.542  29.536  0.00  0.00     0.008 A 
ATOM     20  C   UNL d   1      57.929  -9.325  30.083  0.00  0.00     0.012 A 
ENDBRANCH  14  16
ENDBRANCH   1  13
BRANCH   2  21
ATOM     21  C   UNL d   1      60.279  -9.256  31.964  0.00  0.00     0.035 A 
ATOM     22  S   UNL d   1      60.367  -9.818  31.364  0.00  0.00    -0.086 SA
ATOM     23  C   UNL d   1      60.890  -9.505  30.806  0.00  0.00     0.035 A 
ATOM     24  C   UNL d   1      61.126  -8.750  31.058  0.00  0.00     0.007 A 
ATOM     25  C   UNL d   1      60.743  -8.607  31.774  0.00  0.00     0.007 A 
ENDBRANCH   2  21
TORSDOF 3
ENDMDL
MODEL 4
REMARK VINA RESULT:       3.3      9.827     10.486
REMARK  3 active torsions:
REMARK  status: ('A' for Active; 'I' for Inactive)
REMARK    1  A    between atoms: N_5  and  C_1 
REMARK    2  A    between atoms: C_9  and  C_2 
REMARK       I    between atoms: C_8  and  N_5 
REMARK    3  A    between atoms: C_10  and  C_8 
ROOT
ATOM      1  C   UNL d   1      57.747   0.612  31.679  0.00  0.00     0.155 A 
ATOM      2  C   UNL d   1      58.196   0.636  32.371  0.00  0.00     0.080 A 
ATOM      3  N   UNL d   1      56.918   0.597  31.726  0.00  0.00    -0.289 N 
ATOM      4  C   UNL d   1      57.817   0.646  33.110  0.00  0.00     0.200 A 
ATOM      5  C   UNL d   1      56.994   0.631  33.152  0.00  0.00     0.055 A 
ATOM      6  C   UNL d   1      56.545   0.606  32.460  0.00  0.00     0.069 A 
ATOM      7  O   UNL d   1      58.268   0.671  33.804  0.00  0.00    -0.286 OA
ATOM      8  C   UNL d   1      56.469   0.572  31.035  0.00  0.00     0.101 C 
ATOM      9  C   UNL d   1      56.622   0.641  33.886  0.00  0.00     0.005 A 
ATOM     10  C   UNL d   1      55.730   0.592  32.498  0.00  0.00     0.018 A 
ATOM     11  C   UNL d   1      55.799   0.626  33.928  0.00  0.00     0.000 A 
ATOM     12  C   UNL d   1      55.350   0.601  33.236  0.00  0.00     0.002 A 
ENDROOT
BRANCH   1  13
ATOM     13  N   UNL d   1      58.126   0.602  30.932  0.00  0.00    -0.190 NA
ATOM     14  C   UNL d   1      57.971   0.003  30.379  0.00  0.00     0.286 C 
ATOM     15  O   UNL d   1      57.435  -0.586  30.576  0.00  0.00    -0.265 OA
BRANCH  14  16
ATOM     16  C   UNL d   1      58.344  -0.005  29.644  0.00  0.00     0.087 A 
ATOM     17  S   UNL d   1      58.528  -0.724  29.283  0.00  0.00    -0.082 SA
ATOM     18  C   UNL d   1      58.894  -0.555  28.563  0.00  0.00     0.036 A 
ATOM     19  C   UNL d   1      58.938   0.265  28.475  0.00  0.00     0.008 A 
ATOM     20  C   UNL d   1      58.596   0.609  29.148  0.00  0.00     0.012 A 
ENDBRANCH  14  16
ENDBRANCH   1  13
BRANCH   2  21
ATOM     21  C   UNL d   1      59.018   0.651  32.329  0.00  0.00     0.035 A 
ATOM     22  S   UNL d   1      59.534   0.672  32.974  0.00  0.00    -0.086 SA
ATOM     23  C   UNL d   1      60.305   0.682  32.677  0.00  0.00     0.035 A 
ATOM     24  C   UNL d   1      60.269   0.667  31.848  0.00  0.00     0.007 A 
ATOM     25  C   UNL d   1      59.470   0.648  31.644  0.00  0.00     0.007 A 
ENDBRANCH   2  21
TORSDOF 3
ENDMDL
MODEL 5
REMARK VINA RESULT:       4.2      8.324      8.886
REMARK  3 active torsions:
REMARK  status: ('A' for Active; 'I' for Inactive)
REMARK    1  A    between atoms: N_5  and  C_1 
REMARK    2  A    between atoms: C_9  and  C_2 
REMARK       I    between atoms: C_8  and  N_5 
REMARK    3  A    between atoms: C_10  and  C_8 
ROOT
ATOM      1  C   UNL d   1      58.665  -1.357  29.982  0.00  0.00     0.155 A 
ATOM      2  C   UNL d   1      58.952  -0.600  30.141  0.00  0.00     0.080 A 
ATOM      3  N   UNL d   1      57.942  -1.601  30.311  0.00  0.00    -0.289 N 
ATOM      4  C   UNL d   1      58.516  -0.087  30.629  0.00  0.00     0.200 A 
ATOM      5  C   UNL d   1      57.800  -0.333  30.953  0.00  0.00     0.055 A 
ATOM      6  C   UNL d   1      57.513  -1.090  30.794  0.00  0.00     0.069 A 
ATOM      7  O   UNL d   1      58.805   0.674  30.789  0.00  0.00    -0.286 OA
ATOM      8  C   UNL d   1      57.655  -2.358  30.152  0.00  0.00     0.101 C 
ATOM      9  C   UNL d   1      57.372   0.178  31.435  0.00  0.00     0.005 A 
ATOM     10  C   UNL d   1      56.804  -1.338  31.113  0.00  0.00     0.018 A 
ATOM     11  C   UNL d   1      56.655  -0.069  31.759  0.00  0.00     0.000 A 
ATOM     12  C   UNL d   1      56.368  -0.826  31.600  0.00  0.00     0.002 A 
ENDROOT
BRANCH   1  13
ATOM     13  N   UNL d   1      59.100  -1.876  29.492  0.00  0.00    -0.190 NA
ATOM     14  C   UNL d   1      59.442  -2.570  29.794  0.00  0.00     0.286 C 
ATOM     15  O   UNL d   1      59.345  -2.741  30.591  0.00  0.00    -0.265 OA
BRANCH  14  16
ATOM     16  C   UNL d   1      59.870  -3.081  29.310  0.00  0.00     0.087 A 
ATOM     17  S   UNL d   1      59.484  -3.687  28.905  0.00  0.00    -0.082 SA
ATOM     18  C   UNL d   1      60.052  -4.100  28.472  0.00  0.00     0.036 A 
ATOM     19  C   UNL d   1      60.789  -3.753  28.605  0.00  0.00     0.008 A 
ATOM     20  C   UNL d   1      60.678  -3.117  29.127  0.00  0.00     0.012 A 
ENDBRANCH  14  16
ENDBRANCH   1  13
BRANCH   2  21
ATOM     21  C   UNL d   1      59.667  -0.353  29.818  0.00  0.00     0.035 A 
ATOM     22  S   UNL d   1      59.764   0.016  29.085  0.00  0.00    -0.086 SA
ATOM     23  C   UNL d   1      60.571   0.165  28.985  0.00  0.00     0.035 A 
ATOM     24  C   UNL d   1      60.975  -0.111  29.656  0.00  0.00     0.007 A 
ATOM     25  C   UNL d   1      60.408  -0.429  30.163  0.00  0.00     0.007 A 
ENDBRANCH   2  21
TORSDOF 3
ENDMDL
MODEL 6
REMARK VINA RESULT:       5.4      9.718     10.459
REMARK  3 active torsions:
REMARK  status: ('A' for Active; 'I' for Inactive)
REMARK    1  A    between atoms: N_5  and  C_1 
REMARK    2  A    between atoms: C_9  and  C_2 
REMARK       I    between atoms: C_8  and  N_5 
REMARK    3  A    between atoms: C_10  and  C_8 
ROOT
ATOM      1  C   UNL d   1      57.202   0.547  32.486  0.00  0.00     0.155 A 
ATOM      2  C   UNL d   1      57.617   0.597  33.197  0.00  0.00     0.080 A 
ATOM      3  N   UNL d   1      56.372   0.514  32.494  0.00  0.00    -0.289 N 
ATOM      4  C   UNL d   1      57.202   0.614  33.917  0.00  0.00     0.200 A 
ATOM      5  C   UNL d   1      56.378   0.581  33.920  0.00  0.00     0.055 A 
ATOM      6  C   UNL d   1      55.964   0.531  33.209  0.00  0.00     0.069 A 
ATOM      7  O   UNL d   1      57.619   0.665  34.632  0.00  0.00    -0.286 OA
ATOM      8  C   UNL d   1      55.957   0.463  31.783  0.00  0.00     0.101 C 
ATOM      9  C   UNL d   1      55.971   0.599  34.636  0.00  0.00     0.005 A 
ATOM     10  C   UNL d   1      55.149   0.499  33.209  0.00  0.00     0.018 A 
ATOM     11  C   UNL d   1      55.148   0.566  34.639  0.00  0.00     0.000 A 
ATOM     12  C   UNL d   1      54.733   0.516  33.928  0.00  0.00     0.002 A 
ENDROOT
BRANCH   1  13
ATOM     13  N   UNL d   1      57.616   0.529  31.759  0.00  0.00    -0.190 NA
ATOM     14  C   UNL d   1      57.488  -0.076  31.205  0.00  0.00     0.286 C 
ATOM     15  O   UNL d   1      56.944  -0.664  31.383  0.00  0.00    -0.265 OA
BRANCH  14  16
ATOM     16  C   UNL d   1      57.896  -0.093  30.490  0.00  0.00     0.087 A 
ATOM     17  S   UNL d   1      58.038  -0.812  30.112  0.00  0.00    -0.082 SA
ATOM     18  C   UNL d   1      58.453  -0.652  29.416  0.00  0.00     0.036 A 
ATOM     19  C   UNL d   1      58.569   0.164  29.361  0.00  0.00     0.008 A 
ATOM     20  C   UNL d   1      58.223   0.514  30.028  0.00  0.00     0.012 A 
ENDBRANCH  14  16
ENDBRANCH   1  13
BRANCH   2  21
ATOM     21  C   UNL d   1      58.439   0.630  33.194  0.00  0.00     0.035 A 
ATOM     22  S   UNL d   1      58.919   0.651  32.522  0.00  0.00    -0.086 SA
ATOM     23  C   UNL d   1      59.704   0.682  32.776  0.00  0.00     0.035 A 
ATOM     24  C   UNL d   1      59.713   0.679  33.607  0.00  0.00     0.007 A 
ATOM     25  C   UNL d   1      58.927   0.647  33.854  0.00  0.00     0.007 A 
ENDBRANCH   2  21
TORSDOF 3
ENDMDL
