MODEL 1
REMARK VINA RESULT:      -5.4      0.000      0.000
REMARK  5 active torsions:
REMARK  status: ('A' for Active; 'I' for Inactive)
REMARK    1  A    between atoms: C_11  and  N_1 
REMARK    2  A    between atoms: C_2  and  S_13 
REMARK       I    between atoms: C_12  and  N_14 
REMARK    3  A    between atoms: C_18  and  C_12 
REMARK    4  A    between atoms: S_13  and  C_18 
REMARK    5  A    between atoms: N_14  and  C_19 
ROOT
ATOM      1  C   UNL d   1     -46.738  14.292  22.517  0.00  0.00     0.286 C 
ATOM      2  N   UNL d   1     -47.544  14.456  22.443  0.00  0.00    -0.208 NA
ATOM      3  O   UNL d   1     -46.181  14.861  22.297  0.00  0.00    -0.265 OA
ENDROOT
BRANCH   1   4
ATOM      4  C   UNL d   1     -46.492  13.557  22.811  0.00  0.00     0.101 C 
BRANCH   4   5
ATOM      5  S   UNL d   1     -45.685  13.367  22.809  0.00  0.00    -0.037 SA
BRANCH   5   6
ATOM      6  C   UNL d   1     -45.449  12.585  22.983  0.00  0.00     0.215 A 
ATOM      7  N   UNL d   1     -44.701  12.261  22.833  0.00  0.00    -0.214 NA
ATOM      8  C   UNL d   1     -44.708  11.475  23.091  0.00  0.00     0.107 A 
ATOM      9  C   UNL d   1     -44.130  10.892  23.083  0.00  0.00     0.021 A 
ATOM     10  C   UNL d   1     -45.453  11.318  23.395  0.00  0.00     0.120 A 
ATOM     11  C   UNL d   1     -44.298  10.142  23.384  0.00  0.00     0.002 A 
ATOM     12  C   UNL d   1     -45.048   9.980  23.692  0.00  0.00     0.002 A 
ATOM     13  C   UNL d   1     -45.629  10.571  23.698  0.00  0.00     0.026 A 
ATOM     14  O   UNL d   1     -45.918  11.999  23.332  0.00  0.00    -0.283 OA
ENDBRANCH   5   6
ENDBRANCH   4   5
ENDBRANCH   1   4
BRANCH   2  15
ATOM     15  C   UNL d   1     -48.101  13.893  22.660  0.00  0.00     0.085 A 
ATOM     16  C   UNL d   1     -48.378  13.342  22.094  0.00  0.00     0.021 A 
ATOM     17  C   UNL d   1     -48.929  12.785  22.310  0.00  0.00     0.021 A 
ATOM     18  C   UNL d   1     -49.222  12.751  23.083  0.00  0.00     0.086 A 
ATOM     19  C   UNL d   1     -48.947  13.294  23.639  0.00  0.00     0.021 A 
ATOM     20  C   UNL d   1     -48.385  13.866  23.426  0.00  0.00     0.021 A 
BRANCH  18  21
ATOM     21  N   UNL d   1     -49.779  12.188  23.300  0.00  0.00    -0.189 N 
ATOM     22  N   UNL d   1     -49.627  11.409  23.522  0.00  0.00    -0.038 NA
ATOM     23  N   UNL d   1     -50.347  11.050  23.692  0.00  0.00    -0.022 NA
ATOM     24  N   UNL d   1     -50.948  11.599  23.578  0.00  0.00    -0.104 NA
ATOM     25  C   UNL d   1     -50.594  12.305  23.335  0.00  0.00     0.226 A 
ENDBRANCH  18  21
ENDBRANCH   2  15
TORSDOF 5
ENDMDL
MODEL 2
REMARK VINA RESULT:      -5.0      0.833      1.030
REMARK  5 active torsions:
REMARK  status: ('A' for Active; 'I' for Inactive)
REMARK    1  A    between atoms: C_11  and  N_1 
REMARK    2  A    between atoms: C_2  and  S_13 
REMARK       I    between atoms: C_12  and  N_14 
REMARK    3  A    between atoms: C_18  and  C_12 
REMARK    4  A    between atoms: S_13  and  C_18 
REMARK    5  A    between atoms: N_14  and  C_19 
ROOT
ATOM      1  C   UNL d   1     -47.491  15.154  22.403  0.00  0.00     0.286 C 
ATOM      2  N   UNL d   1     -48.316  15.185  22.428  0.00  0.00    -0.208 NA
ATOM      3  O   UNL d   1     -47.061  15.831  22.210  0.00  0.00    -0.265 OA
ENDROOT
BRANCH   1   4
ATOM      4  C   UNL d   1     -47.100  14.443  22.573  0.00  0.00     0.101 C 
BRANCH   4   5
ATOM      5  S   UNL d   1     -46.272  14.419  22.550  0.00  0.00    -0.037 SA
BRANCH   5   6
ATOM      6  C   UNL d   1     -45.882  13.686  22.646  0.00  0.00     0.215 A 
ATOM      7  N   UNL d   1     -45.179  13.459  22.270  0.00  0.00    -0.214 NA
ATOM      8  C   UNL d   1     -44.991  12.695  22.523  0.00  0.00     0.107 A 
ATOM      9  C   UNL d   1     -44.365  12.197  22.337  0.00  0.00     0.021 A 
ATOM     10  C   UNL d   1     -45.571  12.454  23.049  0.00  0.00     0.120 A 
ATOM     11  C   UNL d   1     -44.319  11.448  22.681  0.00  0.00     0.002 A 
ATOM     12  C   UNL d   1     -44.903  11.202  23.212  0.00  0.00     0.002 A 
ATOM     13  C   UNL d   1     -45.533  11.708  23.397  0.00  0.00     0.026 A 
ATOM     14  O   UNL d   1     -46.127  13.062  23.131  0.00  0.00    -0.283 OA
ENDBRANCH   5   6
ENDBRANCH   4   5
ENDBRANCH   1   4
BRANCH   2  15
ATOM     15  C   UNL d   1     -48.748  14.513  22.620  0.00  0.00     0.085 A 
ATOM     16  C   UNL d   1     -48.976  13.978  22.018  0.00  0.00     0.021 A 
ATOM     17  C   UNL d   1     -49.403  13.314  22.209  0.00  0.00     0.021 A 
ATOM     18  C   UNL d   1     -49.618  13.155  22.992  0.00  0.00     0.086 A 
ATOM     19  C   UNL d   1     -49.393  13.683  23.583  0.00  0.00     0.021 A 
ATOM     20  C   UNL d   1     -48.957  14.363  23.396  0.00  0.00     0.021 A 
BRANCH  18  21
ATOM     21  N   UNL d   1     -50.050  12.483  23.184  0.00  0.00    -0.189 N 
ATOM     22  N   UNL d   1     -49.768  11.709  23.208  0.00  0.00    -0.038 NA
ATOM     23  N   UNL d   1     -50.392  11.220  23.426  0.00  0.00    -0.022 NA
ATOM     24  N   UNL d   1     -51.061  11.682  23.539  0.00  0.00    -0.104 NA
ATOM     25  C   UNL d   1     -50.849  12.467  23.389  0.00  0.00     0.226 A 
ENDBRANCH  18  21
ENDBRANCH   2  15
TORSDOF 5
ENDMDL
MODEL 3
REMARK VINA RESULT:      -4.9      1.751      4.355
REMARK  5 active torsions:
REMARK  status: ('A' for Active; 'I' for Inactive)
REMARK    1  A    between atoms: C_11  and  N_1 
REMARK    2  A    between atoms: C_2  and  S_13 
REMARK       I    between atoms: C_12  and  N_14 
REMARK    3  A    between atoms: C_18  and  C_12 
REMARK    4  A    between atoms: S_13  and  C_18 
REMARK    5  A    between atoms: N_14  and  C_19 
ROOT
ATOM      1  C   UNL d   1     -46.619  14.797  22.412  0.00  0.00     0.286 C 
ATOM      2  N   UNL d   1     -45.866  14.461  22.397  0.00  0.00    -0.208 NA
ATOM      3  O   UNL d   1     -46.724  15.581  22.173  0.00  0.00    -0.265 OA
ENDROOT
BRANCH   1   4
ATOM      4  C   UNL d   1     -47.267  14.346  22.667  0.00  0.00     0.101 C 
BRANCH   4   5
ATOM      5  S   UNL d   1     -48.013  14.703  22.725  0.00  0.00    -0.037 SA
BRANCH   5   6
ATOM      6  C   UNL d   1     -48.697  14.225  22.696  0.00  0.00     0.215 A 
ATOM      7  N   UNL d   1     -49.292  14.196  23.273  0.00  0.00    -0.214 NA
ATOM      8  C   UNL d   1     -49.862  13.652  23.024  0.00  0.00     0.107 A 
ATOM      9  C   UNL d   1     -50.565  13.400  23.367  0.00  0.00     0.021 A 
ATOM     10  C   UNL d   1     -49.622  13.349  22.301  0.00  0.00     0.120 A 
ATOM     11  C   UNL d   1     -51.032  12.839  22.983  0.00  0.00     0.002 A 
ATOM     12  C   UNL d   1     -50.793  12.531  22.254  0.00  0.00     0.002 A 
ATOM     13  C   UNL d   1     -50.082  12.788  21.910  0.00  0.00     0.026 A 
ATOM     14  O   UNL d   1     -48.901  13.698  22.091  0.00  0.00    -0.283 OA
ENDBRANCH   5   6
ENDBRANCH   4   5
ENDBRANCH   1   4
BRANCH   2  15
ATOM     15  C   UNL d   1     -45.757  13.682  22.633  0.00  0.00     0.085 A 
ATOM     16  C   UNL d   1     -45.380  13.139  22.119  0.00  0.00     0.021 A 
ATOM     17  C   UNL d   1     -45.273  12.369  22.354  0.00  0.00     0.021 A 
ATOM     18  C   UNL d   1     -45.532  12.108  23.095  0.00  0.00     0.086 A 
ATOM     19  C   UNL d   1     -45.903  12.644  23.600  0.00  0.00     0.021 A 
ATOM     20  C   UNL d   1     -46.016  13.432  23.368  0.00  0.00     0.021 A 
BRANCH  18  21
ATOM     21  N   UNL d   1     -45.423  11.329  23.332  0.00  0.00    -0.189 N 
ATOM     22  N   UNL d   1     -44.703  10.956  23.474  0.00  0.00    -0.038 NA
ATOM     23  N   UNL d   1     -44.860  10.180  23.698  0.00  0.00    -0.022 NA
ATOM     24  N   UNL d   1     -45.673  10.067  23.698  0.00  0.00    -0.104 NA
ATOM     25  C   UNL d   1     -46.023  10.781  23.470  0.00  0.00     0.226 A 
ENDBRANCH  18  21
ENDBRANCH   2  15
TORSDOF 5
ENDMDL
MODEL 4
REMARK VINA RESULT:      -4.3      8.054      9.645
REMARK  5 active torsions:
REMARK  status: ('A' for Active; 'I' for Inactive)
REMARK    1  A    between atoms: C_11  and  N_1 
REMARK    2  A    between atoms: C_2  and  S_13 
REMARK       I    between atoms: C_12  and  N_14 
REMARK    3  A    between atoms: C_18  and  C_12 
REMARK    4  A    between atoms: S_13  and  C_18 
REMARK    5  A    between atoms: N_14  and  C_19 
ROOT
ATOM      1  C   UNL d   1     -40.853  15.587  18.695  0.00  0.00     0.286 C 
ATOM      2  N   UNL d   1     -41.110  15.495  19.474  0.00  0.00    -0.208 NA
ATOM      3  O   UNL d   1     -41.357  15.922  18.133  0.00  0.00    -0.265 OA
ENDROOT
BRANCH   1   4
ATOM      4  C   UNL d   1     -40.090  15.342  18.481  0.00  0.00     0.101 C 
BRANCH   4   5
ATOM      5  S   UNL d   1     -39.800  15.529  17.727  0.00  0.00    -0.037 SA
BRANCH   5   6
ATOM      6  C   UNL d   1     -39.363  14.956  17.305  0.00  0.00     0.215 A 
ATOM      7  N   UNL d   1     -39.093  15.031  16.525  0.00  0.00    -0.214 NA
ATOM      8  C   UNL d   1     -38.686  14.339  16.328  0.00  0.00     0.107 A 
ATOM      9  C   UNL d   1     -38.306  14.106  15.638  0.00  0.00     0.021 A 
ATOM     10  C   UNL d   1     -38.706  13.842  16.980  0.00  0.00     0.120 A 
ATOM     11  C   UNL d   1     -37.940  13.367  15.601  0.00  0.00     0.002 A 
ATOM     12  C   UNL d   1     -37.957  12.863  16.257  0.00  0.00     0.002 A 
ATOM     13  C   UNL d   1     -38.343  13.103  16.951  0.00  0.00     0.026 A 
ATOM     14  O   UNL d   1     -39.122  14.217  17.589  0.00  0.00    -0.283 OA
ENDBRANCH   5   6
ENDBRANCH   4   5
ENDBRANCH   1   4
BRANCH   2  15
ATOM     15  C   UNL d   1     -40.611  15.162  20.036  0.00  0.00     0.085 A 
ATOM     16  C   UNL d   1     -40.047  15.641  20.428  0.00  0.00     0.021 A 
ATOM     17  C   UNL d   1     -39.554  15.311  20.983  0.00  0.00     0.021 A 
ATOM     18  C   UNL d   1     -39.599  14.506  21.170  0.00  0.00     0.086 A 
ATOM     19  C   UNL d   1     -40.156  14.037  20.783  0.00  0.00     0.021 A 
ATOM     20  C   UNL d   1     -40.662  14.366  20.215  0.00  0.00     0.021 A 
BRANCH  18  21
ATOM     21  N   UNL d   1     -39.101  14.174  21.732  0.00  0.00    -0.189 N 
ATOM     22  N   UNL d   1     -39.328  13.727  22.386  0.00  0.00    -0.038 NA
ATOM     23  N   UNL d   1     -38.647  13.510  22.792  0.00  0.00    -0.022 NA
ATOM     24  N   UNL d   1     -37.997  13.817  22.397  0.00  0.00    -0.104 NA
ATOM     25  C   UNL d   1     -38.279  14.229  21.738  0.00  0.00     0.226 A 
ENDBRANCH  18  21
ENDBRANCH   2  15
TORSDOF 5
ENDMDL
MODEL 5
REMARK VINA RESULT:      -4.0      6.936      8.752
REMARK  5 active torsions:
REMARK  status: ('A' for Active; 'I' for Inactive)
REMARK    1  A    between atoms: C_11  and  N_1 
REMARK    2  A    between atoms: C_2  and  S_13 
REMARK       I    between atoms: C_12  and  N_14 
REMARK    3  A    between atoms: C_18  and  C_12 
REMARK    4  A    between atoms: S_13  and  C_18 
REMARK    5  A    between atoms: N_14  and  C_19 
ROOT
ATOM      1  C   UNL d   1     -38.613  15.466  20.924  0.00  0.00     0.286 C 
ATOM      2  N   UNL d   1     -39.183  15.380  21.515  0.00  0.00    -0.208 NA
ATOM      3  O   UNL d   1     -37.940  15.922  21.064  0.00  0.00    -0.265 OA
ENDROOT
BRANCH   1   4
ATOM      4  C   UNL d   1     -38.721  15.092  20.191  0.00  0.00     0.101 C 
BRANCH   4   5
ATOM      5  S   UNL d   1     -38.137  15.167  19.606  0.00  0.00    -0.037 SA
BRANCH   5   6
ATOM      6  C   UNL d   1     -38.293  14.884  18.836  0.00  0.00     0.215 A 
ATOM      7  N   UNL d   1     -38.047  14.155  18.530  0.00  0.00    -0.214 NA
ATOM      8  C   UNL d   1     -38.319  14.100  17.751  0.00  0.00     0.107 A 
ATOM      9  C   UNL d   1     -38.243  13.510  17.185  0.00  0.00     0.021 A 
ATOM     10  C   UNL d   1     -38.728  14.789  17.580  0.00  0.00     0.120 A 
ATOM     11  C   UNL d   1     -38.580  13.610  16.439  0.00  0.00     0.002 A 
ATOM     12  C   UNL d   1     -38.993  14.304  16.262  0.00  0.00     0.002 A 
ATOM     13  C   UNL d   1     -39.068  14.898  16.836  0.00  0.00     0.026 A 
ATOM     14  O   UNL d   1     -38.717  15.280  18.246  0.00  0.00    -0.283 OA
ENDBRANCH   5   6
ENDBRANCH   4   5
ENDBRANCH   1   4
BRANCH   2  15
ATOM     15  C   UNL d   1     -39.854  14.927  21.378  0.00  0.00     0.085 A 
ATOM     16  C   UNL d   1     -39.838  14.104  21.529  0.00  0.00     0.021 A 
ATOM     17  C   UNL d   1     -40.503  13.656  21.394  0.00  0.00     0.021 A 
ATOM     18  C   UNL d   1     -41.199  14.001  21.108  0.00  0.00     0.086 A 
ATOM     19  C   UNL d   1     -41.212  14.811  20.960  0.00  0.00     0.021 A 
ATOM     20  C   UNL d   1     -40.538  15.275  21.096  0.00  0.00     0.021 A 
BRANCH  18  21
ATOM     21  N   UNL d   1     -41.870  13.547  20.972  0.00  0.00    -0.189 N 
ATOM     22  N   UNL d   1     -42.135  13.270  20.242  0.00  0.00    -0.038 NA
ATOM     23  N   UNL d   1     -42.825  12.843  20.370  0.00  0.00    -0.022 NA
ATOM     24  N   UNL d   1     -42.994  12.851  21.173  0.00  0.00    -0.104 NA
ATOM     25  C   UNL d   1     -42.401  13.289  21.547  0.00  0.00     0.226 A 
ENDBRANCH  18  21
ENDBRANCH   2  15
TORSDOF 5
ENDMDL
MODEL 6
REMARK VINA RESULT:      -2.8      8.955      9.669
REMARK  5 active torsions:
REMARK  status: ('A' for Active; 'I' for Inactive)
REMARK    1  A    between atoms: C_11  and  N_1 
REMARK    2  A    between atoms: C_2  and  S_13 
REMARK       I    between atoms: C_12  and  N_14 
REMARK    3  A    between atoms: C_18  and  C_12 
REMARK    4  A    between atoms: S_13  and  C_18 
REMARK    5  A    between atoms: N_14  and  C_19 
ROOT
ATOM      1  C   UNL d   1     -38.377  12.769  19.257  0.00  0.00     0.286 C 
ATOM      2  N   UNL d   1     -38.722  12.630  18.520  0.00  0.00    -0.208 NA
ATOM      3  O   UNL d   1     -37.942  12.172  19.627  0.00  0.00    -0.265 OA
ENDROOT
BRANCH   1   4
ATOM      4  C   UNL d   1     -38.469  13.508  19.622  0.00  0.00     0.101 C 
BRANCH   4   5
ATOM      5  S   UNL d   1     -37.987  13.705  20.268  0.00  0.00    -0.037 SA
BRANCH   5   6
ATOM      6  C   UNL d   1     -38.290  14.205  20.864  0.00  0.00     0.215 A 
ATOM      7  N   UNL d   1     -37.940  14.344  21.602  0.00  0.00    -0.214 NA
ATOM      8  C   UNL d   1     -38.421  14.872  22.018  0.00  0.00     0.107 A 
ATOM      9  C   UNL d   1     -38.352  15.203  22.767  0.00  0.00     0.021 A 
ATOM     10  C   UNL d   1     -39.061  15.057  21.540  0.00  0.00     0.120 A 
ATOM     11  C   UNL d   1     -38.931  15.724  23.041  0.00  0.00     0.002 A 
ATOM     12  C   UNL d   1     -39.577  15.913  22.561  0.00  0.00     0.002 A 
ATOM     13  C   UNL d   1     -39.643  15.577  21.806  0.00  0.00     0.026 A 
ATOM     14  O   UNL d   1     -38.988  14.648  20.824  0.00  0.00    -0.283 OA
ENDBRANCH   5   6
ENDBRANCH   4   5
ENDBRANCH   1   4
BRANCH   2  15
ATOM     15  C   UNL d   1     -39.156  13.221  18.150  0.00  0.00     0.085 A 
ATOM     16  C   UNL d   1     -38.825  13.635  17.502  0.00  0.00     0.021 A 
ATOM     17  C   UNL d   1     -39.254  14.220  17.136  0.00  0.00     0.021 A 
ATOM     18  C   UNL d   1     -40.016  14.415  17.392  0.00  0.00     0.086 A 
ATOM     19  C   UNL d   1     -40.339  14.006  18.031  0.00  0.00     0.021 A 
ATOM     20  C   UNL d   1     -39.908  13.408  18.410  0.00  0.00     0.021 A 
BRANCH  18  21
ATOM     21  N   UNL d   1     -40.449  15.007  17.022  0.00  0.00    -0.189 N 
ATOM     22  N   UNL d   1     -40.278  15.358  16.296  0.00  0.00    -0.038 NA
ATOM     23  N   UNL d   1     -40.859  15.919  16.145  0.00  0.00    -0.022 NA
ATOM     24  N   UNL d   1     -41.392  15.922  16.770  0.00  0.00    -0.104 NA
ATOM     25  C   UNL d   1     -41.136  15.354  17.315  0.00  0.00     0.226 A 
ENDBRANCH  18  21
ENDBRANCH   2  15
TORSDOF 5
ENDMDL
MODEL 7
REMARK VINA RESULT:      -2.5      6.389      8.446
REMARK  5 active torsions:
REMARK  status: ('A' for Active; 'I' for Inactive)
REMARK    1  A    between atoms: C_11  and  N_1 
REMARK    2  A    between atoms: C_2  and  S_13 
REMARK       I    between atoms: C_12  and  N_14 
REMARK    3  A    between atoms: C_18  and  C_12 
REMARK    4  A    between atoms: S_13  and  C_18 
REMARK    5  A    between atoms: N_14  and  C_19 
ROOT
ATOM      1  C   UNL d   1     -39.196  14.502  20.147  0.00  0.00     0.286 C 
ATOM      2  N   UNL d   1     -38.902  14.766  19.422  0.00  0.00    -0.208 NA
ATOM      3  O   UNL d   1     -38.674  14.319  20.760  0.00  0.00    -0.265 OA
ENDROOT
BRANCH   1   4
ATOM      4  C   UNL d   1     -40.014  14.422  20.255  0.00  0.00     0.101 C 
BRANCH   4   5
ATOM      5  S   UNL d   1     -40.317  14.338  21.022  0.00  0.00    -0.037 SA
BRANCH   5   6
ATOM      6  C   UNL d   1     -41.075  14.005  21.127  0.00  0.00     0.215 A 
ATOM      7  N   UNL d   1     -41.234  13.215  21.321  0.00  0.00    -0.214 NA
ATOM      8  C   UNL d   1     -42.055  13.124  21.370  0.00  0.00     0.107 A 
ATOM      9  C   UNL d   1     -42.524  12.472  21.542  0.00  0.00     0.021 A 
ATOM     10  C   UNL d   1     -42.397  13.851  21.208  0.00  0.00     0.120 A 
ATOM     11  C   UNL d   1     -43.346  12.548  21.551  0.00  0.00     0.002 A 
ATOM     12  C   UNL d   1     -43.695  13.280  21.388  0.00  0.00     0.002 A 
ATOM     13  C   UNL d   1     -43.218  13.936  21.215  0.00  0.00     0.026 A 
ATOM     14  O   UNL d   1     -41.798  14.402  21.056  0.00  0.00    -0.283 OA
ENDBRANCH   5   6
ENDBRANCH   4   5
ENDBRANCH   1   4
BRANCH   2  15
ATOM     15  C   UNL d   1     -39.418  14.949  18.810  0.00  0.00     0.085 A 
ATOM     16  C   UNL d   1     -39.685  14.344  18.296  0.00  0.00     0.021 A 
ATOM     17  C   UNL d   1     -40.196  14.526  17.690  0.00  0.00     0.021 A 
ATOM     18  C   UNL d   1     -40.458  15.302  17.571  0.00  0.00     0.086 A 
ATOM     19  C   UNL d   1     -40.193  15.895  18.078  0.00  0.00     0.021 A 
ATOM     20  C   UNL d   1     -39.672  15.718  18.699  0.00  0.00     0.021 A 
BRANCH  18  21
ATOM     21  N   UNL d   1     -40.973  15.485  16.959  0.00  0.00    -0.189 N 
ATOM     22  N   UNL d   1     -41.787  15.354  16.947  0.00  0.00    -0.038 NA
ATOM     23  N   UNL d   1     -42.076  15.623  16.226  0.00  0.00    -0.022 NA
ATOM     24  N   UNL d   1     -41.449  15.921  15.787  0.00  0.00    -0.104 NA
ATOM     25  C   UNL d   1     -40.764  15.835  16.242  0.00  0.00     0.226 A 
ENDBRANCH  18  21
ENDBRANCH   2  15
TORSDOF 5
ENDMDL
