MODEL 1
REMARK VINA RESULT:      -5.4      0.000      0.000
REMARK  5 active torsions:
REMARK  status: ('A' for Active; 'I' for Inactive)
REMARK    1  A    between atoms: N_4  and  C_2 
REMARK    2  A    between atoms: C_11  and  C_3 
REMARK       I    between atoms: C_8  and  N_4 
REMARK    3  A    between atoms: C_14  and  C_5 
REMARK    4  A    between atoms: C_7  and  C_8 
REMARK    5  A    between atoms: C_17  and  C_14 
ROOT
ATOM      1  C   UNL d   1      56.162  -0.132  32.839  0.00  0.00     0.101 A 
ATOM      2  O   UNL d   1      56.641   0.338  32.351  0.00  0.00    -0.302 OA
ATOM      3  C   UNL d   1      57.018  -0.157  31.815  0.00  0.00     0.158 A 
ATOM      4  C   UNL d   1      56.248  -0.913  32.600  0.00  0.00     0.027 A 
ATOM      5  C   UNL d   1      56.776  -0.936  31.967  0.00  0.00     0.032 A 
ENDROOT
BRANCH   3   6
ATOM      6  C   UNL d   1      57.548   0.078  31.226  0.00  0.00     0.304 C 
ATOM      7  N   UNL d   1      57.536  -0.294  30.490  0.00  0.00    -0.180 NA
ATOM      8  O   UNL d   1      58.083   0.681  31.377  0.00  0.00    -0.263 OA
BRANCH   7   9
ATOM      9  C   UNL d   1      58.063  -0.061  29.902  0.00  0.00     0.216 A 
ATOM     10  N   UNL d   1      58.657  -0.524  29.574  0.00  0.00    -0.200 NA
ATOM     11  C   UNL d   1      59.047  -0.071  29.008  0.00  0.00     0.175 A 
ATOM     12  N   UNL d   1      58.693   0.674  28.986  0.00  0.00    -0.187 NA
ATOM     13  S   UNL d   1      58.080   0.678  29.543  0.00  0.00     0.054 SA
BRANCH  11  14
ATOM     14  C   UNL d   1      59.683  -0.315  28.541  0.00  0.00     0.082 C 
BRANCH  14  15
ATOM     15  C   UNL d   1      60.425  -0.424  28.884  0.00  0.00     0.199 C 
ATOM     16  O   UNL d   1      60.922   0.219  29.004  0.00  0.00    -0.286 OA
ATOM     17  C   UNL d   1      60.671  -1.180  29.106  0.00  0.00     0.045 C 
ENDBRANCH  14  15
ENDBRANCH  11  14
ENDBRANCH   7   9
ENDBRANCH   3   6
BRANCH   1  18
ATOM     18  C   UNL d   1      55.684   0.139  33.456  0.00  0.00     0.033 A 
ATOM     19  C   UNL d   1      56.027   0.403  34.159  0.00  0.00     0.060 A 
ATOM     20 CL   UNL d   1      56.848   0.396  34.248  0.00  0.00    -0.082 Cl
ATOM     21  C   UNL d   1      55.555   0.673  34.775  0.00  0.00     0.011 A 
ATOM     22  C   UNL d   1      54.728   0.682  34.690  0.00  0.00     0.001 A 
ATOM     23  C   UNL d   1      54.385   0.420  33.992  0.00  0.00     0.000 A 
ATOM     24  C   UNL d   1      54.857   0.148  33.372  0.00  0.00     0.003 A 
ENDBRANCH   1  18
TORSDOF 5
ENDMDL
MODEL 2
REMARK VINA RESULT:      -3.0      9.564     10.666
REMARK  5 active torsions:
REMARK  status: ('A' for Active; 'I' for Inactive)
REMARK    1  A    between atoms: N_4  and  C_2 
REMARK    2  A    between atoms: C_11  and  C_3 
REMARK       I    between atoms: C_8  and  N_4 
REMARK    3  A    between atoms: C_14  and  C_5 
REMARK    4  A    between atoms: C_7  and  C_8 
REMARK    5  A    between atoms: C_17  and  C_14 
ROOT
ATOM      1  C   UNL d   1      58.050  -9.764  30.943  0.00  0.00     0.101 A 
ATOM      2  O   UNL d   1      58.659  -9.694  31.503  0.00  0.00    -0.302 OA
ATOM      3  C   UNL d   1      58.318  -9.705  32.250  0.00  0.00     0.158 A 
ATOM      4  C   UNL d   1      57.339  -9.818  31.351  0.00  0.00     0.027 A 
ATOM      5  C   UNL d   1      57.497  -9.782  32.158  0.00  0.00     0.032 A 
ENDROOT
BRANCH   3   6
ATOM      6  C   UNL d   1      58.722  -9.649  32.969  0.00  0.00     0.304 C 
ATOM      7  N   UNL d   1      59.521  -9.445  32.977  0.00  0.00    -0.180 NA
ATOM      8  O   UNL d   1      58.325  -9.797  33.671  0.00  0.00    -0.263 OA
BRANCH   7   9
ATOM      9  C   UNL d   1      59.925  -9.389  33.692  0.00  0.00     0.216 A 
ATOM     10  N   UNL d   1      59.689  -8.955  34.348  0.00  0.00    -0.200 NA
ATOM     11  C   UNL d   1      60.256  -9.056  34.936  0.00  0.00     0.175 A 
ATOM     12  N   UNL d   1      60.845  -9.554  34.642  0.00  0.00    -0.187 NA
ATOM     13  S   UNL d   1      60.637  -9.760  33.867  0.00  0.00     0.054 SA
BRANCH  11  14
ATOM     14  C   UNL d   1      60.243  -8.721  35.690  0.00  0.00     0.082 C 
BRANCH  14  15
ATOM     15  C   UNL d   1      60.222  -7.900  35.774  0.00  0.00     0.199 C 
ATOM     16  O   UNL d   1      60.810  -7.436  35.435  0.00  0.00    -0.286 OA
ATOM     17  C   UNL d   1      59.610  -7.543  36.197  0.00  0.00     0.045 C 
ENDBRANCH  14  15
ENDBRANCH  11  14
ENDBRANCH   7   9
ENDBRANCH   3   6
BRANCH   1  18
ATOM     18  C   UNL d   1      58.144  -9.778  30.122  0.00  0.00     0.033 A 
ATOM     19  C   UNL d   1      57.481  -9.782  29.631  0.00  0.00     0.060 A 
ATOM     20 CL   UNL d   1      56.722  -9.773  29.957  0.00  0.00    -0.082 Cl
ATOM     21  C   UNL d   1      57.571  -9.796  28.815  0.00  0.00     0.011 A 
ATOM     22  C   UNL d   1      58.332  -9.805  28.481  0.00  0.00     0.001 A 
ATOM     23  C   UNL d   1      58.993  -9.801  28.968  0.00  0.00     0.000 A 
ATOM     24  C   UNL d   1      58.905  -9.787  29.788  0.00  0.00     0.003 A 
ENDBRANCH   1  18
TORSDOF 5
ENDMDL
MODEL 3
REMARK VINA RESULT:      -2.8      1.302      1.456
REMARK  5 active torsions:
REMARK  status: ('A' for Active; 'I' for Inactive)
REMARK    1  A    between atoms: N_4  and  C_2 
REMARK    2  A    between atoms: C_11  and  C_3 
REMARK       I    between atoms: C_8  and  N_4 
REMARK    3  A    between atoms: C_14  and  C_5 
REMARK    4  A    between atoms: C_7  and  C_8 
REMARK    5  A    between atoms: C_17  and  C_14 
ROOT
ATOM      1  C   UNL d   1      56.810   0.380  32.660  0.00  0.00     0.101 A 
ATOM      2  O   UNL d   1      56.789   0.079  31.887  0.00  0.00    -0.302 OA
ATOM      3  C   UNL d   1      57.529   0.198  31.550  0.00  0.00     0.158 A 
ATOM      4  C   UNL d   1      57.562   0.682  32.793  0.00  0.00     0.027 A 
ATOM      5  C   UNL d   1      58.011   0.573  32.111  0.00  0.00     0.032 A 
ENDROOT
BRANCH   3   6
ATOM      6  C   UNL d   1      57.754  -0.018  30.784  0.00  0.00     0.304 C 
ATOM      7  N   UNL d   1      58.358  -0.569  30.674  0.00  0.00    -0.180 NA
ATOM      8  O   UNL d   1      57.375   0.318  30.139  0.00  0.00    -0.263 OA
BRANCH   7   9
ATOM      9  C   UNL d   1      58.584  -0.785  29.912  0.00  0.00     0.216 A 
ATOM     10  N   UNL d   1      59.099  -1.394  29.715  0.00  0.00    -0.200 NA
ATOM     11  C   UNL d   1      59.166  -1.413  28.895  0.00  0.00     0.175 A 
ATOM     12  N   UNL d   1      58.691  -0.815  28.584  0.00  0.00    -0.187 NA
ATOM     13  S   UNL d   1      58.329  -0.425  29.219  0.00  0.00     0.054 SA
BRANCH  11  14
ATOM     14  C   UNL d   1      59.627  -1.938  28.455  0.00  0.00     0.082 C 
BRANCH  14  15
ATOM     15  C   UNL d   1      59.584  -2.748  28.606  0.00  0.00     0.199 C 
ATOM     16  O   UNL d   1      58.852  -3.120  28.647  0.00  0.00    -0.286 OA
ATOM     17  C   UNL d   1      60.274  -3.187  28.717  0.00  0.00     0.045 C 
ENDBRANCH  14  15
ENDBRANCH  11  14
ENDBRANCH   7   9
ENDBRANCH   3   6
BRANCH   1  18
ATOM     18  C   UNL d   1      56.184   0.375  33.200  0.00  0.00     0.033 A 
ATOM     19  C   UNL d   1      56.329   0.510  34.001  0.00  0.00     0.060 A 
ATOM     20 CL   UNL d   1      57.098   0.649  34.266  0.00  0.00    -0.082 Cl
ATOM     21  C   UNL d   1      55.709   0.507  34.540  0.00  0.00     0.011 A 
ATOM     22  C   UNL d   1      54.932   0.367  34.278  0.00  0.00     0.001 A 
ATOM     23  C   UNL d   1      54.786   0.233  33.481  0.00  0.00     0.000 A 
ATOM     24  C   UNL d   1      55.407   0.236  32.938  0.00  0.00     0.003 A 
ENDBRANCH   1  18
TORSDOF 5
ENDMDL
