MODEL 1
REMARK VINA RESULT:      18.0      0.000      0.000
REMARK  4 active torsions:
REMARK  status: ('A' for Active; 'I' for Inactive)
REMARK    1  A    between atoms: C_2  and  S_1 
REMARK    2  A    between atoms: N_4  and  S_1 
REMARK    3  A    between atoms: C_11  and  N_4 
REMARK    4  A    between atoms: C_9  and  C_11 
ROOT
ATOM      1  S   UNL d   1      13.419  11.804  -2.828  0.00  0.00     0.285 S 
ATOM      2  O   UNL d   1      14.052  11.781  -3.357  0.00  0.00    -0.198 OA
ATOM      3  O   UNL d   1      12.786  11.826  -2.300  0.00  0.00    -0.198 OA
ENDROOT
BRANCH   1   4
ATOM      4  C   UNL d   1      13.948  11.826  -2.196  0.00  0.00     0.105 A 
ATOM      5  C   UNL d   1      13.661  11.885  -1.420  0.00  0.00     0.012 A 
ATOM      6  C   UNL d   1      14.190  11.908  -0.788  0.00  0.00     0.001 A 
ATOM      7  C   UNL d   1      12.848  11.922  -1.280  0.00  0.00     0.001 C 
ATOM      8  C   UNL d   1      13.906  11.967  -0.015  0.00  0.00     0.000 C 
ATOM      9  C   UNL d   1      15.006  11.871  -0.930  0.00  0.00     0.000 A 
ATOM     10  C   UNL d   1      15.288  11.812  -1.703  0.00  0.00     0.001 A 
ATOM     11  C   UNL d   1      15.535  11.894  -0.298  0.00  0.00     0.000 C 
ATOM     12  C   UNL d   1      14.760  11.790  -2.335  0.00  0.00     0.013 A 
ENDBRANCH   1   4
BRANCH   1  13
ATOM     13  N   UNL d   1      12.890  11.781  -3.461  0.00  0.00    -0.155 NA
BRANCH  13  14
ATOM     14  C   UNL d   1      12.863  12.411  -3.999  0.00  0.00     0.137 C 
BRANCH  14  15
ATOM     15  C   UNL d   1      13.118  12.298  -4.775  0.00  0.00     0.120 A 
ATOM     16  O   UNL d   1      13.758  12.673  -5.132  0.00  0.00    -0.304 OA
ATOM     17  C   UNL d   1      13.811  12.398  -5.904  0.00  0.00     0.123 A 
ATOM     18  C   UNL d   1      13.203  11.853  -6.024  0.00  0.00     0.029 A 
ATOM     19  C   UNL d   1      12.776  11.793  -5.326  0.00  0.00     0.028 A 
ENDBRANCH  14  15
ENDBRANCH  13  14
ENDBRANCH   1  13
TORSDOF 4
ENDMDL
