MODEL 1
REMARK VINA RESULT:      63.1      0.000      0.000
REMARK  4 active torsions:
REMARK  status: ('A' for Active; 'I' for Inactive)
REMARK    1  A    between atoms: C_2  and  S_1 
REMARK    2  A    between atoms: C_15  and  S_1 
REMARK    3  A    between atoms: C_5  and  C_3 
REMARK    4  A    between atoms: C_16  and  C_5 
ROOT
ATOM      1  C   UNL d   1      14.243  13.998  -2.370  0.00  0.00     0.094 A 
ATOM      2  C   UNL d   1      13.861  13.769  -3.066  0.00  0.00     0.069 A 
ATOM      3  C   UNL d   1      14.471  14.783  -2.265  0.00  0.00     0.031 A 
ATOM      4  C   UNL d   1      14.320  15.339  -2.854  0.00  0.00     0.084 A 
ATOM      5  C   UNL d   1      14.852  15.010  -1.571  0.00  0.00     0.029 A 
ATOM      6  N   UNL d   1      13.939  15.112  -3.549  0.00  0.00    -0.244 NA
ATOM      7  C   UNL d   1      13.709  14.325  -3.655  0.00  0.00     0.103 A 
ATOM      8  C   UNL d   1      14.548  16.124  -2.750  0.00  0.00     0.046 A 
ATOM      9  C   UNL d   1      15.080  15.794  -1.467  0.00  0.00     0.123 A 
ATOM     10  C   UNL d   1      14.928  16.351  -2.055  0.00  0.00     0.124 A 
ATOM     11  O   UNL d   1      15.460  16.021  -0.773  0.00  0.00    -0.301 OA
ATOM     12  O   UNL d   1      15.156  17.135  -1.951  0.00  0.00    -0.301 OA
ATOM     13  C   UNL d   1      15.692  16.811  -0.664  0.00  0.00     0.149 A 
ATOM     14  C   UNL d   1      15.540  17.367  -1.252  0.00  0.00     0.149 A 
ENDROOT
BRANCH   1  15
ATOM     15  S   UNL d   1      14.398  13.448  -1.776  0.00  0.00     0.210 S 
ATOM     16  O   UNL d   1      15.063  13.197  -2.195  0.00  0.00    -0.217 OA
ATOM     17  O   UNL d   1      13.733  13.699  -1.357  0.00  0.00    -0.217 OA
BRANCH  15  18
ATOM     18  C   UNL d   1      14.569  12.892  -1.190  0.00  0.00     0.088 A 
ATOM     19  C   UNL d   1      15.298  12.508  -1.181  0.00  0.00     0.011 A 
ATOM     20  C   UNL d   1      15.461  11.950  -0.588  0.00  0.00     0.001 A 
ATOM     21  C   UNL d   1      14.896  11.782  -0.014  0.00  0.00     0.000 A 
ATOM     22  C   UNL d   1      14.171  12.163  -0.022  0.00  0.00     0.001 A 
ATOM     23  C   UNL d   1      14.003  12.723  -0.615  0.00  0.00     0.011 A 
ENDBRANCH  15  18
ENDBRANCH   1  15
BRANCH   2  24
ATOM     24  C   UNL d   1      13.629  12.979  -3.175  0.00  0.00     0.198 C 
ATOM     25  O   UNL d   1      13.566  12.473  -2.527  0.00  0.00    -0.286 OA
BRANCH  24  26
ATOM     26  C   UNL d   1      13.462  12.701  -3.934  0.00  0.00     0.039 A 
ATOM     27  C   UNL d   1      13.816  13.050  -4.599  0.00  0.00     0.003 A 
ATOM     28  C   UNL d   1      13.650  12.773  -5.358  0.00  0.00     0.000 A 
ATOM     29  C   UNL d   1      13.127  12.144  -5.466  0.00  0.00     0.000 A 
ATOM     30  C   UNL d   1      12.769  11.791  -4.794  0.00  0.00     0.000 A 
ATOM     31  C   UNL d   1      12.956  11.863  -6.217  0.00  0.00     0.000 C 
ATOM     32  C   UNL d   1      12.933  12.065  -4.035  0.00  0.00     0.003 A 
ENDBRANCH  24  26
ENDBRANCH   2  24
TORSDOF 4
ENDMDL
