MODEL 1
REMARK VINA RESULT:      -9.7      0.000      0.000
REMARK  4 active torsions:
REMARK  status: ('A' for Active; 'I' for Inactive)
REMARK    1  A    between atoms: C_23  and  N_1 
REMARK       I    between atoms: N_7  and  C_10 
REMARK    2  A    between atoms: C_10  and  C_25 
REMARK    3  A    between atoms: C_26  and  C_23 
REMARK    4  A    between atoms: C_25  and  C_26 
ROOT
ATOM      1  N   UNL d   1      51.675  33.702  53.297  0.00  0.00    -0.249 N 
ATOM      2  C   UNL d   1      51.569  32.885  53.301  0.00  0.00     0.268 A 
ATOM      3  C   UNL d   1      52.428  34.014  53.289  0.00  0.00     0.208 A 
ATOM      4  C   UNL d   1      52.223  32.381  53.298  0.00  0.00     0.076 A 
ATOM      5  C   UNL d   1      52.975  32.693  53.291  0.00  0.00     0.090 A 
ATOM      6  N   UNL d   1      53.060  33.503  53.287  0.00  0.00    -0.218 NA
ATOM      7  C   UNL d   1      52.118  31.560  53.303  0.00  0.00     0.033 A 
ATOM      8  C   UNL d   1      53.610  32.176  53.288  0.00  0.00     0.046 A 
ATOM      9  C   UNL d   1      52.777  31.044  53.300  0.00  0.00     0.119 A 
ATOM     10  C   UNL d   1      53.525  31.368  53.292  0.00  0.00     0.121 A 
ATOM     11  S   UNL d   1      52.514  34.839  53.285  0.00  0.00    -0.038 SA
ATOM     12  O   UNL d   1      50.823  32.576  53.309  0.00  0.00    -0.267 OA
ATOM     13  O   UNL d   1      52.856  30.226  53.303  0.00  0.00    -0.300 OA
ATOM     14  O   UNL d   1      54.051  30.724  53.291  0.00  0.00    -0.299 OA
ATOM     15  C   UNL d   1      53.646  30.020  53.297  0.00  0.00     0.304 A 
ENDROOT
BRANCH   1  16
ATOM     16  C   UNL d   1      51.016  34.218  53.300  0.00  0.00     0.085 C 
BRANCH  16  17
ATOM     17  C   UNL d   1      50.564  34.288  52.635  0.00  0.00     0.024 C 
BRANCH  17  18
ATOM     18  C   UNL d   1      49.921  34.786  52.645  0.00  0.00     0.063 C 
BRANCH  18  19
ATOM     19  C   UNL d   1      49.412  34.793  52.018  0.00  0.00     0.265 C 
ATOM     20  N   UNL d   1      48.686  35.176  52.094  0.00  0.00    -0.272 N 
ATOM     21  C   UNL d   1      48.494  35.548  52.815  0.00  0.00     0.083 A 
ATOM     22  C   UNL d   1      48.159  35.190  51.462  0.00  0.00     0.083 A 
ATOM     23  C   UNL d   1      47.767  35.934  52.896  0.00  0.00     0.018 A 
ATOM     24  C   UNL d   1      47.576  36.301  53.607  0.00  0.00     0.002 A 
ATOM     25  C   UNL d   1      47.227  35.951  52.259  0.00  0.00     0.003 A 
ATOM     26  C   UNL d   1      46.848  36.687  53.687  0.00  0.00     0.000 A 
ATOM     27  C   UNL d   1      46.311  36.704  53.054  0.00  0.00     0.000 A 
ATOM     28  C   UNL d   1      46.506  36.334  52.340  0.00  0.00     0.000 A 
ATOM     29  C   UNL d   1      47.428  35.577  51.542  0.00  0.00     0.019 A 
ATOM     30  O   UNL d   1      49.642  34.409  51.314  0.00  0.00    -0.267 OA
ENDBRANCH  18  19
ENDBRANCH  17  18
ENDBRANCH  16  17
ENDBRANCH   1  16
TORSDOF 4
ENDMDL
MODEL 2
REMARK VINA RESULT:      -8.9      1.636      2.270
REMARK  4 active torsions:
REMARK  status: ('A' for Active; 'I' for Inactive)
REMARK    1  A    between atoms: C_23  and  N_1 
REMARK       I    between atoms: N_7  and  C_10 
REMARK    2  A    between atoms: C_10  and  C_25 
REMARK    3  A    between atoms: C_26  and  C_23 
REMARK    4  A    between atoms: C_25  and  C_26 
ROOT
ATOM      1  N   UNL d   1      51.517  34.032  53.133  0.00  0.00    -0.249 N 
ATOM      2  C   UNL d   1      52.118  34.461  53.499  0.00  0.00     0.268 A 
ATOM      3  C   UNL d   1      51.537  33.217  53.142  0.00  0.00     0.208 A 
ATOM      4  C   UNL d   1      52.740  34.070  53.874  0.00  0.00     0.076 A 
ATOM      5  C   UNL d   1      52.760  33.255  53.883  0.00  0.00     0.090 A 
ATOM      6  N   UNL d   1      52.157  32.848  53.516  0.00  0.00    -0.218 NA
ATOM      7  C   UNL d   1      53.344  34.499  54.243  0.00  0.00     0.033 A 
ATOM      8  C   UNL d   1      53.385  32.886  54.261  0.00  0.00     0.046 A 
ATOM      9  C   UNL d   1      53.977  34.108  54.625  0.00  0.00     0.119 A 
ATOM     10  C   UNL d   1      53.986  33.293  54.627  0.00  0.00     0.121 A 
ATOM     11  S   UNL d   1      50.924  32.803  52.768  0.00  0.00    -0.038 SA
ATOM     12  O   UNL d   1      52.098  35.268  53.490  0.00  0.00    -0.267 OA
ATOM     13  O   UNL d   1      54.643  34.369  55.030  0.00  0.00    -0.300 OA
ATOM     14  O   UNL d   1      54.672  33.074  55.042  0.00  0.00    -0.299 OA
ATOM     15  C   UNL d   1      55.081  33.731  55.292  0.00  0.00     0.304 A 
ENDROOT
BRANCH   1  16
ATOM     16  C   UNL d   1      50.884  34.423  52.750  0.00  0.00     0.085 C 
BRANCH  16  17
ATOM     17  C   UNL d   1      50.272  34.709  53.191  0.00  0.00     0.024 C 
BRANCH  17  18
ATOM     18  C   UNL d   1      49.604  34.979  52.811  0.00  0.00     0.063 C 
BRANCH  18  19
ATOM     19  C   UNL d   1      49.094  35.468  53.201  0.00  0.00     0.265 C 
ATOM     20  N   UNL d   1      48.365  35.644  52.857  0.00  0.00    -0.272 N 
ATOM     21  C   UNL d   1      48.172  35.314  52.117  0.00  0.00     0.083 A 
ATOM     22  C   UNL d   1      47.836  36.142  53.245  0.00  0.00     0.083 A 
ATOM     23  C   UNL d   1      47.443  35.488  51.768  0.00  0.00     0.018 A 
ATOM     24  C   UNL d   1      47.251  35.163  51.037  0.00  0.00     0.002 A 
ATOM     25  C   UNL d   1      46.902  35.993  52.156  0.00  0.00     0.003 A 
ATOM     26  C   UNL d   1      46.520  35.338  50.689  0.00  0.00     0.000 A 
ATOM     27  C   UNL d   1      45.982  35.839  51.075  0.00  0.00     0.000 A 
ATOM     28  C   UNL d   1      46.177  36.165  51.809  0.00  0.00     0.000 A 
ATOM     29  C   UNL d   1      47.103  36.318  52.896  0.00  0.00     0.019 A 
ATOM     30  O   UNL d   1      49.325  35.778  53.940  0.00  0.00    -0.267 OA
ENDBRANCH  18  19
ENDBRANCH  17  18
ENDBRANCH  16  17
ENDBRANCH   1  16
TORSDOF 4
ENDMDL
MODEL 3
REMARK VINA RESULT:      -8.7      1.734      6.242
REMARK  4 active torsions:
REMARK  status: ('A' for Active; 'I' for Inactive)
REMARK    1  A    between atoms: C_23  and  N_1 
REMARK       I    between atoms: N_7  and  C_10 
REMARK    2  A    between atoms: C_10  and  C_25 
REMARK    3  A    between atoms: C_26  and  C_23 
REMARK    4  A    between atoms: C_25  and  C_26 
ROOT
ATOM      1  N   UNL d   1      49.214  35.022  52.153  0.00  0.00    -0.249 N 
ATOM      2  C   UNL d   1      48.801  35.418  52.745  0.00  0.00     0.268 A 
ATOM      3  C   UNL d   1      48.844  34.841  51.450  0.00  0.00     0.208 A 
ATOM      4  C   UNL d   1      48.012  35.632  52.629  0.00  0.00     0.076 A 
ATOM      5  C   UNL d   1      47.642  35.451  51.926  0.00  0.00     0.090 A 
ATOM      6  N   UNL d   1      48.067  35.060  51.353  0.00  0.00    -0.218 NA
ATOM      7  C   UNL d   1      47.594  36.031  53.223  0.00  0.00     0.033 A 
ATOM      8  C   UNL d   1      46.859  35.673  51.832  0.00  0.00     0.046 A 
ATOM      9  C   UNL d   1      46.794  36.250  53.111  0.00  0.00     0.119 A 
ATOM     10  C   UNL d   1      46.435  36.064  52.404  0.00  0.00     0.121 A 
ATOM     11  S   UNL d   1      49.278  34.443  50.867  0.00  0.00    -0.038 SA
ATOM     12  O   UNL d   1      49.167  35.598  53.442  0.00  0.00    -0.267 OA
ATOM     13  O   UNL d   1      46.242  36.639  53.580  0.00  0.00    -0.300 OA
ATOM     14  O   UNL d   1      45.657  36.350  52.462  0.00  0.00    -0.299 OA
ATOM     15  C   UNL d   1      45.532  36.705  53.183  0.00  0.00     0.304 A 
ENDROOT
BRANCH   1  16
ATOM     16  C   UNL d   1      50.014  34.803  52.265  0.00  0.00     0.085 C 
BRANCH  16  17
ATOM     17  C   UNL d   1      50.186  34.107  52.637  0.00  0.00     0.024 C 
BRANCH  17  18
ATOM     18  C   UNL d   1      50.919  34.011  52.975  0.00  0.00     0.063 C 
BRANCH  18  19
ATOM     19  C   UNL d   1      51.253  33.277  53.001  0.00  0.00     0.265 C 
ATOM     20  N   UNL d   1      51.968  33.174  53.399  0.00  0.00    -0.272 N 
ATOM     21  C   UNL d   1      52.330  33.830  53.765  0.00  0.00     0.083 A 
ATOM     22  C   UNL d   1      52.319  32.430  53.433  0.00  0.00     0.083 A 
ATOM     23  C   UNL d   1      53.047  33.733  54.165  0.00  0.00     0.018 A 
ATOM     24  C   UNL d   1      53.405  34.379  54.527  0.00  0.00     0.002 A 
ATOM     25  C   UNL d   1      53.408  32.980  54.203  0.00  0.00     0.003 A 
ATOM     26  C   UNL d   1      54.123  34.280  54.927  0.00  0.00     0.000 A 
ATOM     27  C   UNL d   1      54.482  33.532  54.965  0.00  0.00     0.000 A 
ATOM     28  C   UNL d   1      54.120  32.884  54.601  0.00  0.00     0.000 A 
ATOM     29  C   UNL d   1      53.039  32.330  53.834  0.00  0.00     0.019 A 
ATOM     30  O   UNL d   1      50.860  32.646  52.623  0.00  0.00    -0.267 OA
ENDBRANCH  18  19
ENDBRANCH  17  18
ENDBRANCH  16  17
ENDBRANCH   1  16
TORSDOF 4
ENDMDL
MODEL 4
REMARK VINA RESULT:      -8.3      1.686      6.337
REMARK  4 active torsions:
REMARK  status: ('A' for Active; 'I' for Inactive)
REMARK    1  A    between atoms: C_23  and  N_1 
REMARK       I    between atoms: N_7  and  C_10 
REMARK    2  A    between atoms: C_10  and  C_25 
REMARK    3  A    between atoms: C_26  and  C_23 
REMARK    4  A    between atoms: C_25  and  C_26 
ROOT
ATOM      1  N   UNL d   1      49.188  34.950  51.949  0.00  0.00    -0.249 N 
ATOM      2  C   UNL d   1      48.815  35.381  52.544  0.00  0.00     0.268 A 
ATOM      3  C   UNL d   1      48.772  34.731  51.283  0.00  0.00     0.208 A 
ATOM      4  C   UNL d   1      48.021  35.593  52.468  0.00  0.00     0.076 A 
ATOM      5  C   UNL d   1      47.605  35.374  51.802  0.00  0.00     0.090 A 
ATOM      6  N   UNL d   1      47.991  34.948  51.225  0.00  0.00    -0.218 NA
ATOM      7  C   UNL d   1      47.643  36.026  53.064  0.00  0.00     0.033 A 
ATOM      8  C   UNL d   1      46.818  35.594  51.746  0.00  0.00     0.046 A 
ATOM      9  C   UNL d   1      46.838  36.244  52.992  0.00  0.00     0.119 A 
ATOM     10  C   UNL d   1      46.433  36.019  52.322  0.00  0.00     0.121 A 
ATOM     11  S   UNL d   1      49.166  34.298  50.696  0.00  0.00    -0.038 SA
ATOM     12  O   UNL d   1      49.227  35.597  53.203  0.00  0.00    -0.267 OA
ATOM     13  O   UNL d   1      46.319  36.661  53.473  0.00  0.00    -0.300 OA
ATOM     14  O   UNL d   1      45.661  36.313  52.414  0.00  0.00    -0.299 OA
ATOM     15  C   UNL d   1      45.584  36.708  53.120  0.00  0.00     0.304 A 
ENDROOT
BRANCH   1  16
ATOM     16  C   UNL d   1      49.993  34.732  52.021  0.00  0.00     0.085 C 
BRANCH  16  17
ATOM     17  C   UNL d   1      50.267  34.454  52.727  0.00  0.00     0.024 C 
BRANCH  17  18
ATOM     18  C   UNL d   1      50.909  33.954  52.732  0.00  0.00     0.063 C 
BRANCH  18  19
ATOM     19  C   UNL d   1      51.554  34.138  53.181  0.00  0.00     0.265 C 
ATOM     20  N   UNL d   1      52.113  33.553  53.340  0.00  0.00    -0.272 N 
ATOM     21  C   UNL d   1      52.000  32.786  53.034  0.00  0.00     0.083 A 
ATOM     22  C   UNL d   1      52.776  33.728  53.796  0.00  0.00     0.083 A 
ATOM     23  C   UNL d   1      52.558  32.196  53.190  0.00  0.00     0.018 A 
ATOM     24  C   UNL d   1      52.448  31.438  52.889  0.00  0.00     0.002 A 
ATOM     25  C   UNL d   1      53.232  32.368  53.653  0.00  0.00     0.003 A 
ATOM     26  C   UNL d   1      53.007  30.848  53.046  0.00  0.00     0.000 A 
ATOM     27  C   UNL d   1      53.678  31.019  53.506  0.00  0.00     0.000 A 
ATOM     28  C   UNL d   1      53.786  31.781  53.808  0.00  0.00     0.000 A 
ATOM     29  C   UNL d   1      53.337  33.137  53.954  0.00  0.00     0.019 A 
ATOM     30  O   UNL d   1      51.630  34.917  53.468  0.00  0.00    -0.267 OA
ENDBRANCH  18  19
ENDBRANCH  17  18
ENDBRANCH  16  17
ENDBRANCH   1  16
TORSDOF 4
ENDMDL
MODEL 5
REMARK VINA RESULT:      -8.2      1.844      6.356
REMARK  4 active torsions:
REMARK  status: ('A' for Active; 'I' for Inactive)
REMARK    1  A    between atoms: C_23  and  N_1 
REMARK       I    between atoms: N_7  and  C_10 
REMARK    2  A    between atoms: C_10  and  C_25 
REMARK    3  A    between atoms: C_26  and  C_23 
REMARK    4  A    between atoms: C_25  and  C_26 
ROOT
ATOM      1  N   UNL d   1      48.352  35.679  52.682  0.00  0.00    -0.249 N 
ATOM      2  C   UNL d   1      47.923  35.519  51.997  0.00  0.00     0.268 A 
ATOM      3  C   UNL d   1      47.972  35.977  53.339  0.00  0.00     0.208 A 
ATOM      4  C   UNL d   1      47.110  35.660  51.973  0.00  0.00     0.076 A 
ATOM      5  C   UNL d   1      46.730  35.958  52.630  0.00  0.00     0.090 A 
ATOM      6  N   UNL d   1      47.171  36.110  53.297  0.00  0.00    -0.218 NA
ATOM      7  C   UNL d   1      46.677  35.499  51.285  0.00  0.00     0.033 A 
ATOM      8  C   UNL d   1      45.924  36.090  52.585  0.00  0.00     0.046 A 
ATOM      9  C   UNL d   1      45.853  35.640  51.255  0.00  0.00     0.119 A 
ATOM     10  C   UNL d   1      45.485  35.938  51.918  0.00  0.00     0.121 A 
ATOM     11  S   UNL d   1      48.421  36.132  54.019  0.00  0.00    -0.038 SA
ATOM     12  O   UNL d   1      48.299  35.224  51.347  0.00  0.00    -0.267 OA
ATOM     13  O   UNL d   1      45.282  35.541  50.672  0.00  0.00    -0.300 OA
ATOM     14  O   UNL d   1      44.682  36.015  51.716  0.00  0.00    -0.299 OA
ATOM     15  C   UNL d   1      44.551  35.773  50.952  0.00  0.00     0.304 A 
ENDROOT
BRANCH   1  16
ATOM     16  C   UNL d   1      49.176  35.539  52.713  0.00  0.00     0.085 C 
BRANCH  16  17
ATOM     17  C   UNL d   1      49.447  34.782  52.786  0.00  0.00     0.024 C 
BRANCH  17  18
ATOM     18  C   UNL d   1      50.238  34.658  52.928  0.00  0.00     0.063 C 
BRANCH  18  19
ATOM     19  C   UNL d   1      50.537  33.909  52.890  0.00  0.00     0.265 C 
ATOM     20  N   UNL d   1      51.287  33.760  53.199  0.00  0.00    -0.272 N 
ATOM     21  C   UNL d   1      51.719  34.384  53.542  0.00  0.00     0.083 A 
ATOM     22  C   UNL d   1      51.603  33.000  53.166  0.00  0.00     0.083 A 
ATOM     23  C   UNL d   1      52.472  34.240  53.853  0.00  0.00     0.018 A 
ATOM     24  C   UNL d   1      52.900  34.855  54.191  0.00  0.00     0.002 A 
ATOM     25  C   UNL d   1      52.798  33.471  53.823  0.00  0.00     0.003 A 
ATOM     26  C   UNL d   1      53.654  34.709  54.502  0.00  0.00     0.000 A 
ATOM     27  C   UNL d   1      53.978  33.945  54.473  0.00  0.00     0.000 A 
ATOM     28  C   UNL d   1      53.546  33.328  54.131  0.00  0.00     0.000 A 
ATOM     29  C   UNL d   1      52.359  32.853  53.478  0.00  0.00     0.019 A 
ATOM     30  O   UNL d   1      50.073  33.311  52.539  0.00  0.00    -0.267 OA
ENDBRANCH  18  19
ENDBRANCH  17  18
ENDBRANCH  16  17
ENDBRANCH   1  16
TORSDOF 4
ENDMDL
MODEL 6
REMARK VINA RESULT:      -6.9      1.567      6.242
REMARK  4 active torsions:
REMARK  status: ('A' for Active; 'I' for Inactive)
REMARK    1  A    between atoms: C_23  and  N_1 
REMARK       I    between atoms: N_7  and  C_10 
REMARK    2  A    between atoms: C_10  and  C_25 
REMARK    3  A    between atoms: C_26  and  C_23 
REMARK    4  A    between atoms: C_25  and  C_26 
ROOT
ATOM      1  N   UNL d   1      49.366  34.751  52.731  0.00  0.00    -0.249 N 
ATOM      2  C   UNL d   1      48.854  34.712  52.086  0.00  0.00     0.268 A 
ATOM      3  C   UNL d   1      49.224  35.286  53.330  0.00  0.00     0.208 A 
ATOM      4  C   UNL d   1      48.198  35.211  52.045  0.00  0.00     0.076 A 
ATOM      5  C   UNL d   1      48.057  35.745  52.644  0.00  0.00     0.090 A 
ATOM      6  N   UNL d   1      48.574  35.769  53.273  0.00  0.00    -0.218 NA
ATOM      7  C   UNL d   1      47.683  35.173  51.398  0.00  0.00     0.033 A 
ATOM      8  C   UNL d   1      47.401  36.231  52.584  0.00  0.00     0.046 A 
ATOM      9  C   UNL d   1      47.016  35.676  51.351  0.00  0.00     0.119 A 
ATOM     10  C   UNL d   1      46.885  36.206  51.956  0.00  0.00     0.121 A 
ATOM     11  S   UNL d   1      49.751  35.310  53.970  0.00  0.00    -0.038 SA
ATOM     12  O   UNL d   1      48.995  34.183  51.493  0.00  0.00    -0.267 OA
ATOM     13  O   UNL d   1      46.416  35.772  50.797  0.00  0.00    -0.300 OA
ATOM     14  O   UNL d   1      46.193  36.619  51.751  0.00  0.00    -0.299 OA
ATOM     15  C   UNL d   1      45.900  36.357  51.039  0.00  0.00     0.304 A 
ENDROOT
BRANCH   1  16
ATOM     16  C   UNL d   1      50.033  34.248  52.779  0.00  0.00     0.085 C 
BRANCH  16  17
ATOM     17  C   UNL d   1      50.762  34.537  52.590  0.00  0.00     0.024 C 
BRANCH  17  18
ATOM     18  C   UNL d   1      51.366  34.015  52.434  0.00  0.00     0.063 C 
BRANCH  18  19
ATOM     19  C   UNL d   1      52.100  34.151  52.739  0.00  0.00     0.265 C 
ATOM     20  N   UNL d   1      52.574  33.510  52.950  0.00  0.00    -0.272 N 
ATOM     21  C   UNL d   1      52.284  32.736  52.843  0.00  0.00     0.083 A 
ATOM     22  C   UNL d   1      53.325  33.636  53.263  0.00  0.00     0.083 A 
ATOM     23  C   UNL d   1      52.755  32.089  53.052  0.00  0.00     0.018 A 
ATOM     24  C   UNL d   1      52.471  31.324  52.946  0.00  0.00     0.002 A 
ATOM     25  C   UNL d   1      53.518  32.211  53.370  0.00  0.00     0.003 A 
ATOM     26  C   UNL d   1      52.943  30.678  53.157  0.00  0.00     0.000 A 
ATOM     27  C   UNL d   1      53.702  30.799  53.472  0.00  0.00     0.000 A 
ATOM     28  C   UNL d   1      53.985  31.568  53.577  0.00  0.00     0.000 A 
ATOM     29  C   UNL d   1      53.800  32.988  53.474  0.00  0.00     0.019 A 
ATOM     30  O   UNL d   1      52.353  34.941  52.831  0.00  0.00    -0.267 OA
ENDBRANCH  18  19
ENDBRANCH  17  18
ENDBRANCH  16  17
ENDBRANCH   1  16
TORSDOF 4
ENDMDL
