MODEL 1
REMARK VINA RESULT:      59.4      0.000      0.000
REMARK  1 active torsions:
REMARK  status: ('A' for Active; 'I' for Inactive)
REMARK    1  A    between atoms: N_3  and  C_1 
ROOT
ATOM      1  C   UNL d   1      59.542  49.563  50.667  0.00  0.00     0.110 A 
ATOM      2  C   UNL d   1      58.869  49.539  51.162  0.00  0.00     0.212 A 
ATOM      3  C   UNL d   1      58.116  49.587  50.829  0.00  0.00     0.046 A 
ATOM      4  C   UNL d   1      59.447  49.635  49.845  0.00  0.00     0.056 A 
ATOM      5  S   UNL d   1      58.680  49.683  49.521  0.00  0.00    -0.085 SA
ATOM      6  C   UNL d   1      58.022  49.659  50.012  0.00  0.00     0.033 A 
ATOM      7  C   UNL d   1      57.450  49.564  51.314  0.00  0.00     0.004 A 
ATOM      8  O   UNL d   1      58.960  49.468  51.976  0.00  0.00    -0.285 OA
ATOM      9  C   UNL d   1      57.266  49.706  49.686  0.00  0.00     0.007 A 
ATOM     10  C   UNL d   1      56.703  49.611  50.994  0.00  0.00     0.000 A 
ATOM     11  C   UNL d   1      56.607  49.683  50.166  0.00  0.00     0.001 A 
ATOM     12  C   UNL d   1      56.036  49.589  51.472  0.00  0.00     0.000 C 
ENDROOT
BRANCH   1  13
ATOM     13  N   UNL d   1      60.301  49.515  50.992  0.00  0.00    -0.301 N 
ATOM     14  C   UNL d   1      60.412  49.634  51.790  0.00  0.00     0.080 A 
ATOM     15  C   UNL d   1      61.170  49.588  52.121  0.00  0.00     0.018 A 
ATOM     16  C   UNL d   1      61.282  49.707  52.924  0.00  0.00     0.002 A 
ATOM     17  C   UNL d   1      61.814  49.420  51.638  0.00  0.00     0.003 A 
ATOM     18  C   UNL d   1      62.038  49.661  53.252  0.00  0.00     0.000 A 
ATOM     19  C   UNL d   1      62.684  49.492  52.767  0.00  0.00     0.000 A 
ATOM     20  C   UNL d   1      62.572  49.371  51.956  0.00  0.00     0.000 A 
ATOM     21  C   UNL d   1      61.708  49.297  50.818  0.00  0.00     0.019 A 
ATOM     22  C   UNL d   1      60.950  49.346  50.505  0.00  0.00     0.080 A 
ENDBRANCH   1  13
TORSDOF 1
ENDMDL
