MODEL 1
REMARK VINA RESULT:      10.8      0.000      0.000
REMARK  1 active torsions:
REMARK  status: ('A' for Active; 'I' for Inactive)
REMARK    1  A    between atoms: C_2  and  CA_3 
ROOT
ATOM      1  N   UNL d   1      58.377  49.707  49.627  0.00  0.00    -0.237 NA
ATOM      2  CA  UNL d   1      58.541  49.706  50.426  0.00  0.00     0.145 A 
ATOM      3  C   UNL d   1      57.918  49.705  50.979  0.00  0.00     0.026 A 
ATOM      4  C   UNL d   1      57.600  49.707  49.367  0.00  0.00     0.106 A 
ATOM      5  C   UNL d   1      56.977  49.706  49.920  0.00  0.00     0.054 A 
ATOM      6  C   UNL d   1      57.149  49.705  50.719  0.00  0.00     0.010 A 
ATOM      7 BR   UNL d   1      56.200  49.707  49.651  0.00  0.00    -0.048 Br
ENDROOT
BRANCH   2   8
ATOM      8  C   UNL d   1      59.322  49.706  50.691  0.00  0.00     0.229 C 
ATOM      9  O   UNL d   1      59.949  49.703  50.155  0.00  0.00    -0.643 OA
ATOM     10  OXT UNL d   1      59.488  49.708  51.496  0.00  0.00    -0.643 OA
ENDBRANCH   2   8
TORSDOF 1
ENDMDL
MODEL 2
REMARK VINA RESULT:      12.5      2.072      2.651
REMARK  1 active torsions:
REMARK  status: ('A' for Active; 'I' for Inactive)
REMARK    1  A    between atoms: C_2  and  CA_3 
ROOT
ATOM      1  N   UNL d   1      59.516  49.638  50.041  0.00  0.00    -0.237 NA
ATOM      2  CA  UNL d   1      58.865  49.659  50.532  0.00  0.00     0.145 A 
ATOM      3  C   UNL d   1      58.967  49.693  51.358  0.00  0.00     0.026 A 
ATOM      4  C   UNL d   1      60.272  49.651  50.360  0.00  0.00     0.106 A 
ATOM      5  C   UNL d   1      60.373  49.686  51.186  0.00  0.00     0.054 A 
ATOM      6  C   UNL d   1      59.717  49.706  51.671  0.00  0.00     0.010 A 
ATOM      7 BR   UNL d   1      61.134  49.699  51.497  0.00  0.00    -0.048 Br
ENDROOT
BRANCH   2   8
ATOM      8  C   UNL d   1      58.104  49.646  50.215  0.00  0.00     0.229 C 
ATOM      9  O   UNL d   1      57.986  49.708  49.401  0.00  0.00    -0.643 OA
ATOM     10  OXT UNL d   1      57.450  49.570  50.706  0.00  0.00    -0.643 OA
ENDBRANCH   2   8
TORSDOF 1
ENDMDL
MODEL 3
REMARK VINA RESULT:      13.0      2.481      3.315
REMARK  1 active torsions:
REMARK  status: ('A' for Active; 'I' for Inactive)
REMARK    1  A    between atoms: C_2  and  CA_3 
ROOT
ATOM      1  N   UNL d   1      59.671  49.708  51.468  0.00  0.00    -0.237 NA
ATOM      2  CA  UNL d   1      59.828  49.697  50.668  0.00  0.00     0.145 A 
ATOM      3  C   UNL d   1      60.616  49.685  50.397  0.00  0.00     0.026 A 
ATOM      4  C   UNL d   1      60.288  49.707  52.008  0.00  0.00     0.106 A 
ATOM      5  C   UNL d   1      61.076  49.695  51.738  0.00  0.00     0.054 A 
ATOM      6  C   UNL d   1      61.225  49.684  50.935  0.00  0.00     0.010 A 
ATOM      7 BR   UNL d   1      61.689  49.694  52.285  0.00  0.00    -0.048 Br
ENDROOT
BRANCH   2   8
ATOM      8  C   UNL d   1      59.209  49.698  50.123  0.00  0.00     0.229 C 
ATOM      9  O   UNL d   1      58.424  49.689  50.376  0.00  0.00    -0.643 OA
ATOM     10  OXT UNL d   1      59.366  49.708  49.316  0.00  0.00    -0.643 OA
ENDBRANCH   2   8
TORSDOF 1
ENDMDL
