MODEL 1
REMARK VINA RESULT:      -7.3      0.000      0.000
REMARK  5 active torsions:
REMARK  status: ('A' for Active; 'I' for Inactive)
REMARK    1  A    between atoms: S_2  and  C_1 
REMARK    2  A    between atoms: C_8  and  S_2 
REMARK    3  A    between atoms: C_23  and  N_7 
REMARK    4  A    between atoms: N_13  and  C_10 
REMARK    5  A    between atoms: C_31  and  C_23 
ROOT
ATOM      1  C   UNL d   1     -46.546  12.804  22.909  0.00  0.00     0.144 A 
ATOM      2  C   UNL d   1     -47.386  13.959  22.749  0.00  0.00     0.058 A 
ATOM      3  C   UNL d   1     -46.650  13.595  22.672  0.00  0.00     0.209 A 
ATOM      4  C   UNL d   1     -47.185  12.382  23.221  0.00  0.00     0.095 A 
ATOM      5  C   UNL d   1     -48.025  13.537  23.061  0.00  0.00     0.069 A 
ATOM      6  N   UNL d   1     -47.928  12.752  23.297  0.00  0.00    -0.303 N 
ATOM      7  C   UNL d   1     -48.763  13.900  23.138  0.00  0.00     0.037 A 
ATOM      8  C   UNL d   1     -48.860  14.685  22.903  0.00  0.00     0.093 A 
ATOM      9  C   UNL d   1     -47.484  14.743  22.513  0.00  0.00     0.036 A 
ATOM     10  C   UNL d   1     -48.221  15.106  22.590  0.00  0.00     0.156 A 
ATOM     11  O   UNL d   1     -46.011  14.016  22.360  0.00  0.00    -0.286 OA
ATOM     12  F   UNL d   1     -48.326  15.900  22.353  0.00  0.00    -0.203 F 
ENDROOT
BRANCH   1  13
ATOM     13  S   UNL d   1     -45.807  12.437  22.833  0.00  0.00     0.214 S 
ATOM     14  O   UNL d   1     -46.007  12.206  22.055  0.00  0.00    -0.217 OA
ATOM     15  O   UNL d   1     -45.609  12.669  23.611  0.00  0.00    -0.217 OA
BRANCH  13  16
ATOM     16  C   UNL d   1     -45.063  12.066  22.752  0.00  0.00     0.088 A 
ATOM     17  C   UNL d   1     -44.914  11.347  23.127  0.00  0.00     0.011 A 
ATOM     18  C   UNL d   1     -44.177  10.986  23.044  0.00  0.00     0.001 A 
ATOM     19  C   UNL d   1     -45.501  10.989  23.586  0.00  0.00     0.001 C 
ATOM     20  C   UNL d   1     -43.586  11.345  22.583  0.00  0.00     0.000 A 
ATOM     21  C   UNL d   1     -43.739  12.063  22.211  0.00  0.00     0.001 A 
ATOM     22  C   UNL d   1     -44.473  12.426  22.291  0.00  0.00     0.011 A 
ATOM     23  C   UNL d   1     -43.154  12.424  21.751  0.00  0.00     0.000 C 
ENDBRANCH  13  16
ENDBRANCH   1  13
BRANCH   6  24
ATOM     24  C   UNL d   1     -48.566  12.331  23.609  0.00  0.00     0.080 C 
BRANCH  24  25
ATOM     25  C   UNL d   1     -48.674  11.537  23.413  0.00  0.00     0.019 C 
ATOM     26  C   UNL d   1     -49.408  11.176  23.532  0.00  0.00     0.002 C 
ENDBRANCH  24  25
ENDBRANCH   6  24
BRANCH   8  27
ATOM     27  N   UNL d   1     -49.600  15.051  22.979  0.00  0.00    -0.298 N 
ATOM     28  C   UNL d   1     -50.188  14.905  22.418  0.00  0.00     0.107 A 
ATOM     29  C   UNL d   1     -50.926  15.268  22.493  0.00  0.00     0.142 A 
ATOM     30  O   UNL d   1     -51.064  15.780  23.138  0.00  0.00    -0.300 OA
ATOM     31  C   UNL d   1     -50.470  15.922  23.695  0.00  0.00     0.142 A 
ATOM     32  C   UNL d   1     -49.742  15.556  23.612  0.00  0.00     0.107 A 
ENDBRANCH   8  27
TORSDOF 5
ENDMDL
MODEL 2
REMARK VINA RESULT:      -4.5      2.001      5.494
REMARK  5 active torsions:
REMARK  status: ('A' for Active; 'I' for Inactive)
REMARK    1  A    between atoms: S_2  and  C_1 
REMARK    2  A    between atoms: C_8  and  S_2 
REMARK    3  A    between atoms: C_23  and  N_7 
REMARK    4  A    between atoms: N_13  and  C_10 
REMARK    5  A    between atoms: C_31  and  C_23 
ROOT
ATOM      1  C   UNL d   1     -48.180  13.197  22.914  0.00  0.00     0.144 A 
ATOM      2  C   UNL d   1     -47.447  11.994  23.199  0.00  0.00     0.058 A 
ATOM      3  C   UNL d   1     -48.166  12.392  23.129  0.00  0.00     0.209 A 
ATOM      4  C   UNL d   1     -47.470  13.596  22.771  0.00  0.00     0.095 A 
ATOM      5  C   UNL d   1     -46.737  12.393  23.056  0.00  0.00     0.069 A 
ATOM      6  N   UNL d   1     -46.746  13.191  22.843  0.00  0.00    -0.303 N 
ATOM      7  C   UNL d   1     -46.017  11.996  23.126  0.00  0.00     0.037 A 
ATOM      8  C   UNL d   1     -46.008  11.198  23.339  0.00  0.00     0.093 A 
ATOM      9  C   UNL d   1     -47.437  11.198  23.412  0.00  0.00     0.036 A 
ATOM     10  C   UNL d   1     -46.718  10.799  23.482  0.00  0.00     0.156 A 
ATOM     11  O   UNL d   1     -48.875  11.994  23.272  0.00  0.00    -0.286 OA
ATOM     12  F   UNL d   1     -46.703   9.993  23.698  0.00  0.00    -0.203 F 
ENDROOT
BRANCH   1  13
ATOM     13  S   UNL d   1     -48.901  13.598  22.843  0.00  0.00     0.214 S 
ATOM     14  O   UNL d   1     -49.078  13.413  23.639  0.00  0.00    -0.217 OA
ATOM     15  O   UNL d   1     -48.724  13.782  22.047  0.00  0.00    -0.217 OA
BRANCH  13  16
ATOM     16  C   UNL d   1     -49.629  14.002  22.775  0.00  0.00     0.088 A 
ATOM     17  C   UNL d   1     -50.195  13.752  22.230  0.00  0.00     0.011 A 
ATOM     18  C   UNL d   1     -50.913  14.154  22.167  0.00  0.00     0.001 A 
ATOM     19  C   UNL d   1     -50.044  13.097  21.747  0.00  0.00     0.001 C 
ATOM     20  C   UNL d   1     -51.064  14.812  22.652  0.00  0.00     0.000 A 
ATOM     21  C   UNL d   1     -50.497  15.059  23.195  0.00  0.00     0.001 A 
ATOM     22  C   UNL d   1     -49.781  14.660  23.260  0.00  0.00     0.011 A 
ATOM     23  C   UNL d   1     -50.645  15.713  23.680  0.00  0.00     0.000 C 
ENDBRANCH  13  16
ENDBRANCH   1  13
BRANCH   6  24
ATOM     24  C   UNL d   1     -46.037  13.589  22.700  0.00  0.00     0.080 C 
BRANCH  24  25
ATOM     25  C   UNL d   1     -45.975  14.396  22.865  0.00  0.00     0.019 C 
ATOM     26  C   UNL d   1     -45.447  14.866  22.438  0.00  0.00     0.002 C 
ENDBRANCH  24  25
ENDBRANCH   6  24
BRANCH   8  27
ATOM     27  N   UNL d   1     -45.287  10.797  23.410  0.00  0.00    -0.298 N 
ATOM     28  C   UNL d   1     -44.579  11.199  23.264  0.00  0.00     0.107 A 
ATOM     29  C   UNL d   1     -43.860  10.801  23.334  0.00  0.00     0.142 A 
ATOM     30  O   UNL d   1     -43.859   9.995  23.553  0.00  0.00    -0.300 OA
ATOM     31  C   UNL d   1     -44.571   9.600  23.697  0.00  0.00     0.142 A 
ATOM     32  C   UNL d   1     -45.280  10.004  23.625  0.00  0.00     0.107 A 
ENDBRANCH   8  27
TORSDOF 5
ENDMDL
