MODEL 1
REMARK VINA RESULT:      48.8      0.000      0.000
REMARK  1 active torsions:
REMARK  status: ('A' for Active; 'I' for Inactive)
REMARK    1  A    between atoms: C_2  and  C_1 
REMARK       I    between atoms: N_3  and  C_2 
ROOT
ATOM      1  C   UNL d   1      60.274  49.699  50.188  0.00  0.00     0.248 C 
ATOM      2  N   UNL d   1      59.449  49.700  50.099  0.00  0.00    -0.278 N 
ATOM      3  C   UNL d   1      59.178  49.699  49.405  0.00  0.00     0.067 A 
ATOM      4  C   UNL d   1      59.051  49.702  50.689  0.00  0.00     0.067 A 
ATOM      5  C   UNL d   1      58.245  49.703  50.565  0.00  0.00     0.018 A 
ATOM      6  C   UNL d   1      58.444  49.700  49.293  0.00  0.00     0.019 A 
ATOM      7  O   UNL d   1      60.634  49.697  49.434  0.00  0.00    -0.271 OA
ATOM      8  C   UNL d   1      59.652  49.697  48.829  0.00  0.00     0.019 C 
ATOM      9  C   UNL d   1      59.355  49.703  51.456  0.00  0.00     0.018 A 
ATOM     10  C   UNL d   1      57.729  49.705  51.203  0.00  0.00     0.002 A 
ATOM     11  C   UNL d   1      58.839  49.705  52.100  0.00  0.00     0.002 A 
ATOM     12  C   UNL d   1      58.025  49.706  51.971  0.00  0.00     0.000 A 
ENDROOT
BRANCH   1  13
ATOM     13  C   UNL d   1      60.447  49.700  50.977  0.00  0.00     0.112 A 
ATOM     14  C   UNL d   1      60.325  49.703  52.394  0.00  0.00     0.025 A 
ATOM     15  C   UNL d   1      60.870  49.701  51.756  0.00  0.00     0.074 A 
ATOM     16  C   UNL d   1      59.501  49.705  52.250  0.00  0.00     0.002 C 
ATOM     17  C   UNL d   1      60.802  49.704  53.075  0.00  0.00     0.002 C 
ATOM     18  C   UNL d   1      61.345  49.701  52.444  0.00  0.00     0.012 C 
ATOM     19  C   UNL d   1      60.229  49.701  51.220  0.00  0.00    -0.023 A 
ATOM     20  C   UNL d   1      61.681  49.699  51.896  0.00  0.00     0.172 A 
ATOM     21  C   UNL d   1      59.939  49.700  50.431  0.00  0.00    -0.018 A 
ATOM     22  C   UNL d   1      61.392  49.698  51.109  0.00  0.00     0.024 A 
ATOM     23  O   UNL d   1      62.321  49.698  52.437  0.00  0.00    -0.291 OA
ENDBRANCH   1  13
TORSDOF 1
ENDMDL
MODEL 2
REMARK VINA RESULT:      50.3      1.147      3.027
REMARK  1 active torsions:
REMARK  status: ('A' for Active; 'I' for Inactive)
REMARK    1  A    between atoms: C_2  and  C_1 
REMARK       I    between atoms: N_3  and  C_2 
ROOT
ATOM      1  C   UNL d   1      59.282  49.504  49.930  0.00  0.00     0.248 C 
ATOM      2  N   UNL d   1      59.689  49.509  50.653  0.00  0.00    -0.278 N 
ATOM      3  C   UNL d   1      60.433  49.470  50.629  0.00  0.00     0.067 A 
ATOM      4  C   UNL d   1      59.304  49.550  51.250  0.00  0.00     0.067 A 
ATOM      5  C   UNL d   1      59.736  49.553  51.943  0.00  0.00     0.018 A 
ATOM      6  C   UNL d   1      60.825  49.473  51.260  0.00  0.00     0.019 A 
ATOM      7  O   UNL d   1      59.832  49.453  49.303  0.00  0.00    -0.271 OA
ATOM      8  C   UNL d   1      60.774  49.429  49.968  0.00  0.00     0.019 C 
ATOM      9  C   UNL d   1      58.481  49.593  51.273  0.00  0.00     0.018 A 
ATOM     10  C   UNL d   1      59.353  49.599  52.667  0.00  0.00     0.002 A 
ATOM     11  C   UNL d   1      58.093  49.639  52.000  0.00  0.00     0.002 A 
ATOM     12  C   UNL d   1      58.533  49.642  52.696  0.00  0.00     0.000 A 
ENDROOT
BRANCH   1  13
ATOM     13  C   UNL d   1      58.490  49.550  50.081  0.00  0.00     0.112 A 
ATOM     14  C   UNL d   1      57.237  49.629  50.750  0.00  0.00     0.025 A 
ATOM     15  C   UNL d   1      57.608  49.596  49.998  0.00  0.00     0.074 A 
ATOM     16  C   UNL d   1      57.693  49.615  51.451  0.00  0.00     0.002 C 
ATOM     17  C   UNL d   1      56.425  49.671  50.578  0.00  0.00     0.002 C 
ATOM     18  C   UNL d   1      56.790  49.639  49.832  0.00  0.00     0.012 C 
ATOM     19  C   UNL d   1      58.353  49.562  50.377  0.00  0.00    -0.023 A 
ATOM     20  C   UNL d   1      57.162  49.610  49.307  0.00  0.00     0.172 A 
ATOM     21  C   UNL d   1      59.191  49.515  50.333  0.00  0.00    -0.018 A 
ATOM     22  C   UNL d   1      57.998  49.563  49.264  0.00  0.00     0.024 A 
ATOM     23  O   UNL d   1      56.413  49.645  48.931  0.00  0.00    -0.291 OA
ENDBRANCH   1  13
TORSDOF 1
ENDMDL
