MODEL 1
REMARK VINA RESULT:      -3.3      0.000      0.000
REMARK  11 active torsions:
REMARK  status: ('A' for Active; 'I' for Inactive)
REMARK    1  A    between atoms: S_2  and  N_15 
REMARK    2  A    between atoms: C_10  and  S_2 
REMARK    3  A    between atoms: C_14  and  C_4 
REMARK    4  A    between atoms: N_16  and  C_8 
REMARK    5  A    between atoms: C_19  and  C_14 
REMARK    6  A    between atoms: N_15  and  C_19 
REMARK    7  A    between atoms: C_24  and  N_16 
REMARK    8  A    between atoms: N_20  and  C_25 
REMARK    9  A    between atoms: C_26  and  N_20 
REMARK   10  A    between atoms: C_27  and  N_20 
REMARK   11  A    between atoms: C_25  and  C_24 
ROOT
ATOM      1  N   UNL d   1      32.588  17.776 -23.821  0.00  0.00    -0.190 N 
ATOM      2  C   UNL d   1      32.729  17.769 -24.633  0.00  0.00     0.187 A 
ATOM      3  C   UNL d   1      32.907  18.480 -23.512  0.00  0.00     0.188 A 
ATOM      4  N   UNL d   1      32.191  17.147 -23.468  0.00  0.00    -0.143 NA
ATOM      5  N   UNL d   1      33.137  18.472 -24.824  0.00  0.00    -0.127 NA
ATOM      6  N   UNL d   1      33.241  18.900 -24.134  0.00  0.00    -0.127 NA
ATOM      7  C   UNL d   1      31.935  16.510 -23.926  0.00  0.00     0.182 A 
ATOM      8  C   UNL d   1      32.473  17.132 -25.091  0.00  0.00     0.044 A 
ATOM      9  C   UNL d   1      32.076  16.503 -24.738  0.00  0.00     0.044 A 
ENDROOT
BRANCH   3  10
ATOM     10  C   UNL d   1      32.891  18.715 -22.726  0.00  0.00     0.062 C 
BRANCH  10  11
ATOM     11  C   UNL d   1      32.951  19.510 -22.530  0.00  0.00     0.115 C 
BRANCH  11  12
ATOM     12  N   UNL d   1      32.906  19.735 -21.737  0.00  0.00    -0.157 NA
BRANCH  12  13
ATOM     13  S   UNL d   1      32.828  20.525 -21.535  0.00  0.00     0.285 S 
ATOM     14  O   UNL d   1      32.921  20.334 -20.735  0.00  0.00    -0.198 OA
ATOM     15  O   UNL d   1      32.734  20.727 -22.332  0.00  0.00    -0.198 OA
BRANCH  13  16
ATOM     16  C   UNL d   1      32.750  21.317 -21.325  0.00  0.00     0.105 A 
ATOM     17  C   UNL d   1      32.185  21.546 -20.758  0.00  0.00     0.013 A 
ATOM     18  C   UNL d   1      32.110  22.331 -20.552  0.00  0.00     0.001 A 
ATOM     19  C   UNL d   1      32.594  22.901 -20.905  0.00  0.00     0.000 A 
ATOM     20  C   UNL d   1      33.149  22.688 -21.460  0.00  0.00     0.001 A 
ATOM     21  C   UNL d   1      32.510  23.702 -20.687  0.00  0.00     0.000 C 
ATOM     22  C   UNL d   1      33.237  21.899 -21.678  0.00  0.00     0.013 A 
ENDBRANCH  13  16
ENDBRANCH  12  13
ENDBRANCH  11  12
ENDBRANCH  10  11
ENDBRANCH   3  10
BRANCH   7  23
ATOM     23  N   UNL d   1      31.534  15.871 -23.580  0.00  0.00    -0.222 NA
BRANCH  23  24
ATOM     24  C   UNL d   1      30.798  15.627 -23.907  0.00  0.00     0.120 C 
BRANCH  24  25
ATOM     25  C   UNL d   1      30.119  15.671 -23.450  0.00  0.00     0.101 C 
BRANCH  25  26
ATOM     26  N   UNL d   1      29.382  15.767 -23.813  0.00  0.00    -0.301 N 
BRANCH  26  27
ATOM     27  C   UNL d   1      29.237  15.458 -24.567  0.00  0.00     0.080 C 
ATOM     28  C   UNL d   1      28.492  15.577 -24.923  0.00  0.00     0.021 C 
ENDBRANCH  26  27
BRANCH  26  29
ATOM     29  C   UNL d   1      28.774  16.179 -23.418  0.00  0.00     0.080 C 
ATOM     30  C   UNL d   1      28.259  15.760 -22.918  0.00  0.00     0.021 C 
ENDBRANCH  26  29
ENDBRANCH  25  26
ENDBRANCH  24  25
ENDBRANCH  23  24
ENDBRANCH   7  23
TORSDOF 11
ENDMDL
MODEL 2
REMARK VINA RESULT:      -0.5      2.472      6.950
REMARK  11 active torsions:
REMARK  status: ('A' for Active; 'I' for Inactive)
REMARK    1  A    between atoms: S_2  and  N_15 
REMARK    2  A    between atoms: C_10  and  S_2 
REMARK    3  A    between atoms: C_14  and  C_4 
REMARK    4  A    between atoms: N_16  and  C_8 
REMARK    5  A    between atoms: C_19  and  C_14 
REMARK    6  A    between atoms: N_15  and  C_19 
REMARK    7  A    between atoms: C_24  and  N_16 
REMARK    8  A    between atoms: N_20  and  C_25 
REMARK    9  A    between atoms: C_26  and  N_20 
REMARK   10  A    between atoms: C_27  and  N_20 
REMARK   11  A    between atoms: C_25  and  C_24 
ROOT
ATOM      1  N   UNL d   1      32.697  22.065 -21.021  0.00  0.00    -0.190 N 
ATOM      2  C   UNL d   1      32.161  22.629 -21.293  0.00  0.00     0.187 A 
ATOM      3  C   UNL d   1      32.759  21.471 -21.600  0.00  0.00     0.188 A 
ATOM      4  N   UNL d   1      33.058  22.163 -20.286  0.00  0.00    -0.143 NA
ATOM      5  N   UNL d   1      31.893  22.380 -22.043  0.00  0.00    -0.127 NA
ATOM      6  N   UNL d   1      32.263  21.672 -22.223  0.00  0.00    -0.127 NA
ATOM      7  C   UNL d   1      32.883  22.824 -19.824  0.00  0.00     0.182 A 
ATOM      8  C   UNL d   1      31.986  23.291 -20.830  0.00  0.00     0.044 A 
ATOM      9  C   UNL d   1      32.347  23.388 -20.096  0.00  0.00     0.044 A 
ENDROOT
BRANCH   3  10
ATOM     10  C   UNL d   1      33.232  20.802 -21.558  0.00  0.00     0.062 C 
BRANCH  10  11
ATOM     11  C   UNL d   1      33.204  20.237 -22.153  0.00  0.00     0.115 C 
BRANCH  11  12
ATOM     12  N   UNL d   1      32.751  19.556 -22.041  0.00  0.00    -0.157 NA
BRANCH  12  13
ATOM     13  S   UNL d   1      32.736  18.970 -22.615  0.00  0.00     0.285 S 
ATOM     14  O   UNL d   1      33.240  18.502 -22.155  0.00  0.00    -0.198 OA
ATOM     15  O   UNL d   1      32.231  19.430 -23.082  0.00  0.00    -0.198 OA
BRANCH  13  16
ATOM     16  C   UNL d   1      32.725  18.378 -23.186  0.00  0.00     0.105 A 
ATOM     17  C   UNL d   1      32.383  17.639 -23.017  0.00  0.00     0.013 A 
ATOM     18  C   UNL d   1      32.373  17.055 -23.585  0.00  0.00     0.001 A 
ATOM     19  C   UNL d   1      32.704  17.194 -24.329  0.00  0.00     0.000 A 
ATOM     20  C   UNL d   1      33.042  17.912 -24.505  0.00  0.00     0.001 A 
ATOM     21  C   UNL d   1      32.690  16.589 -24.904  0.00  0.00     0.000 C 
ATOM     22  C   UNL d   1      33.059  18.513 -23.942  0.00  0.00     0.013 A 
ENDBRANCH  13  16
ENDBRANCH  12  13
ENDBRANCH  11  12
ENDBRANCH  10  11
ENDBRANCH   3  10
BRANCH   7  23
ATOM     23  N   UNL d   1      33.241  22.932 -19.083  0.00  0.00    -0.222 NA
BRANCH  23  24
ATOM     24  C   UNL d   1      32.780  23.239 -18.450  0.00  0.00     0.120 C 
BRANCH  24  25
ATOM     25  C   UNL d   1      33.080  23.224 -17.687  0.00  0.00     0.101 C 
BRANCH  25  26
ATOM     26  N   UNL d   1      32.574  23.098 -17.046  0.00  0.00    -0.301 N 
BRANCH  26  27
ATOM     27  C   UNL d   1      32.842  22.721 -16.360  0.00  0.00     0.080 C 
ATOM     28  C   UNL d   1      33.239  23.164 -15.776  0.00  0.00     0.021 C 
ENDBRANCH  26  27
BRANCH  26  29
ATOM     29  C   UNL d   1      31.781  23.353 -17.087  0.00  0.00     0.080 C 
ATOM     30  C   UNL d   1      31.199  22.934 -16.668  0.00  0.00     0.021 C 
ENDBRANCH  26  29
ENDBRANCH  25  26
ENDBRANCH  24  25
ENDBRANCH  23  24
ENDBRANCH   7  23
TORSDOF 11
ENDMDL
