MODEL 1
REMARK VINA RESULT:      39.4      0.000      0.000
REMARK  4 active torsions:
REMARK  status: ('A' for Active; 'I' for Inactive)
REMARK    1  A    between atoms: C_3  and  C_1 
REMARK    2  A    between atoms: C_2  and  C_3 
REMARK    3  A    between atoms: C_6  and  C_2 
REMARK    4  A    between atoms: C_16  and  C_6 
ROOT
ATOM      1  C   UNL d   1     -51.837  24.389  33.361  0.00  0.00     0.119 A 
ATOM      2  C   UNL d   1     -52.552  24.792  33.349  0.00  0.00     0.119 A 
ATOM      3  O   UNL d   1     -52.000  23.581  33.386  0.00  0.00    -0.300 OA
ATOM      4  O   UNL d   1     -53.159  24.234  33.367  0.00  0.00    -0.300 OA
ATOM      5  C   UNL d   1     -52.820  23.494  33.389  0.00  0.00     0.304 A 
ATOM      6  C   UNL d   1     -51.134  24.804  33.348  0.00  0.00     0.026 A 
ATOM      7  C   UNL d   1     -51.140  25.633  33.323  0.00  0.00     0.002 A 
ATOM      8  C   UNL d   1     -52.561  25.608  33.324  0.00  0.00     0.026 A 
ATOM      9  C   UNL d   1     -51.848  26.031  33.311  0.00  0.00     0.002 A 
ENDROOT
BRANCH   7  10
ATOM     10  C   UNL d   1     -50.433  26.066  33.309  0.00  0.00     0.003 C 
BRANCH  10  11
ATOM     11  C   UNL d   1     -50.083  26.309  34.020  0.00  0.00     0.044 C 
BRANCH  11  12
ATOM     12  C   UNL d   1     -49.488  26.887  34.012  0.00  0.00     0.213 C 
ATOM     13  O   UNL d   1     -49.052  27.015  33.334  0.00  0.00    -0.285 OA
BRANCH  12  14
ATOM     14  C   UNL d   1     -49.334  27.336  34.692  0.00  0.00     0.120 A 
ATOM     15  N   UNL d   1     -48.836  27.986  34.654  0.00  0.00    -0.241 NA
ATOM     16  C   UNL d   1     -48.790  28.320  35.411  0.00  0.00     0.099 A 
ATOM     17  C   UNL d   1     -49.264  27.867  35.909  0.00  0.00     0.022 A 
ATOM     18  C   UNL d   1     -49.598  27.267  35.475  0.00  0.00     0.024 A 
ENDBRANCH  12  14
ENDBRANCH  11  12
ENDBRANCH  10  11
ENDBRANCH   7  10
TORSDOF 4
ENDMDL
MODEL 2
REMARK VINA RESULT:      40.9      1.939      4.428
REMARK  4 active torsions:
REMARK  status: ('A' for Active; 'I' for Inactive)
REMARK    1  A    between atoms: C_3  and  C_1 
REMARK    2  A    between atoms: C_2  and  C_3 
REMARK    3  A    between atoms: C_6  and  C_2 
REMARK    4  A    between atoms: C_16  and  C_6 
ROOT
ATOM      1  C   UNL d   1     -50.094  26.734  33.657  0.00  0.00     0.119 A 
ATOM      2  C   UNL d   1     -49.391  26.329  33.540  0.00  0.00     0.119 A 
ATOM      3  O   UNL d   1     -49.911  27.521  33.822  0.00  0.00    -0.300 OA
ATOM      4  O   UNL d   1     -48.770  26.863  33.632  0.00  0.00    -0.300 OA
ATOM      5  C   UNL d   1     -49.089  27.592  33.805  0.00  0.00     0.304 A 
ATOM      6  C   UNL d   1     -50.808  26.341  33.599  0.00  0.00     0.026 A 
ATOM      7  C   UNL d   1     -50.823  25.531  33.422  0.00  0.00     0.002 A 
ATOM      8  C   UNL d   1     -49.403  25.531  33.365  0.00  0.00     0.026 A 
ATOM      9  C   UNL d   1     -50.127  25.130  33.306  0.00  0.00     0.002 A 
ENDROOT
BRANCH   7  10
ATOM     10  C   UNL d   1     -51.541  25.120  33.360  0.00  0.00     0.003 C 
BRANCH  10  11
ATOM     11  C   UNL d   1     -52.062  25.099  34.003  0.00  0.00     0.044 C 
BRANCH  11  12
ATOM     12  C   UNL d   1     -52.877  25.194  33.879  0.00  0.00     0.213 C 
ATOM     13  O   UNL d   1     -53.212  25.938  33.907  0.00  0.00    -0.285 OA
BRANCH  12  14
ATOM     14  C   UNL d   1     -53.355  24.532  33.726  0.00  0.00     0.120 A 
ATOM     15  N   UNL d   1     -54.111  24.630  33.427  0.00  0.00    -0.241 NA
ATOM     16  C   UNL d   1     -54.450  23.880  33.333  0.00  0.00     0.099 A 
ATOM     17  C   UNL d   1     -53.892  23.325  33.578  0.00  0.00     0.022 A 
ATOM     18  C   UNL d   1     -53.223  23.719  33.819  0.00  0.00     0.024 A 
ENDBRANCH  12  14
ENDBRANCH  11  12
ENDBRANCH  10  11
ENDBRANCH   7  10
TORSDOF 4
ENDMDL
MODEL 3
REMARK VINA RESULT:      41.6      4.773      7.143
REMARK  4 active torsions:
REMARK  status: ('A' for Active; 'I' for Inactive)
REMARK    1  A    between atoms: C_3  and  C_1 
REMARK    2  A    between atoms: C_2  and  C_3 
REMARK    3  A    between atoms: C_6  and  C_2 
REMARK    4  A    between atoms: C_16  and  C_6 
ROOT
ATOM      1  C   UNL d   1     -48.209  32.714  34.148  0.00  0.00     0.119 A 
ATOM      2  C   UNL d   1     -47.573  33.121  33.828  0.00  0.00     0.119 A 
ATOM      3  O   UNL d   1     -48.900  33.027  33.826  0.00  0.00    -0.300 OA
ATOM      4  O   UNL d   1     -47.869  33.687  33.307  0.00  0.00    -0.300 OA
ATOM      5  C   UNL d   1     -48.681  33.628  33.306  0.00  0.00     0.304 A 
ATOM      6  C   UNL d   1     -48.081  32.115  34.689  0.00  0.00     0.026 A 
ATOM      7  C   UNL d   1     -47.308  31.916  34.915  0.00  0.00     0.002 A 
ATOM      8  C   UNL d   1     -46.811  32.927  34.049  0.00  0.00     0.026 A 
ATOM      9  C   UNL d   1     -46.679  32.319  34.597  0.00  0.00     0.002 A 
ENDROOT
BRANCH   7  10
ATOM     10  C   UNL d   1     -47.164  31.310  35.462  0.00  0.00     0.003 C 
BRANCH  10  11
ATOM     11  C   UNL d   1     -47.283  30.520  35.244  0.00  0.00     0.044 C 
BRANCH  11  12
ATOM     12  C   UNL d   1     -47.364  29.937  35.829  0.00  0.00     0.213 C 
ATOM     13  O   UNL d   1     -47.015  30.039  36.560  0.00  0.00    -0.285 OA
BRANCH  12  14
ATOM     14  C   UNL d   1     -47.800  29.248  35.673  0.00  0.00     0.120 A 
ATOM     15  N   UNL d   1     -48.439  29.048  36.146  0.00  0.00    -0.241 NA
ATOM     16  C   UNL d   1     -48.760  28.341  35.859  0.00  0.00     0.099 A 
ATOM     17  C   UNL d   1     -48.311  28.112  35.207  0.00  0.00     0.022 A 
ATOM     18  C   UNL d   1     -47.725  28.662  35.091  0.00  0.00     0.024 A 
ENDBRANCH  12  14
ENDBRANCH  11  12
ENDBRANCH  10  11
ENDBRANCH   7  10
TORSDOF 4
ENDMDL
