MODEL 1
REMARK VINA RESULT:       9.8      0.000      0.000
REMARK  4 active torsions:
REMARK  status: ('A' for Active; 'I' for Inactive)
REMARK    1  A    between atoms: C_2  and  S_1 
REMARK    2  A    between atoms: N_5  and  S_1 
REMARK    3  A    between atoms: C_13  and  N_5 
REMARK    4  A    between atoms: C_11  and  C_13 
ROOT
ATOM      1  C   UNL d   1      46.386 -18.373  43.565  0.00  0.00     0.105 A 
ATOM      2  C   UNL d   1      46.452 -18.609  42.784  0.00  0.00     0.012 A 
ATOM      3  C   UNL d   1      46.344 -18.943  44.161  0.00  0.00     0.012 A 
ATOM      4  C   UNL d   1      46.369 -19.747  43.972  0.00  0.00     0.001 A 
ATOM      5  C   UNL d   1      46.478 -19.408  42.588  0.00  0.00     0.001 A 
ATOM      6  C   UNL d   1      46.437 -19.981  43.183  0.00  0.00     0.000 A 
ATOM      7  C   UNL d   1      46.494 -18.041  42.188  0.00  0.00     0.001 C 
ATOM      8  C   UNL d   1      46.277 -18.704  44.951  0.00  0.00     0.001 C 
ATOM      9  C   UNL d   1      46.545 -19.647  41.802  0.00  0.00     0.000 C 
ATOM     10  C   UNL d   1      46.328 -20.316  44.568  0.00  0.00     0.000 C 
ENDROOT
BRANCH   1  11
ATOM     11  S   UNL d   1      46.361 -17.572  43.749  0.00  0.00     0.285 S 
ATOM     12  O   UNL d   1      46.433 -17.392  42.941  0.00  0.00    -0.198 OA
ATOM     13  O   UNL d   1      46.290 -17.756  44.539  0.00  0.00    -0.198 OA
BRANCH  11  14
ATOM     14  N   UNL d   1      46.337 -16.768  43.921  0.00  0.00    -0.155 NA
BRANCH  14  15
ATOM     15  C   UNL d   1      45.653 -16.431  44.234  0.00  0.00     0.137 C 
BRANCH  15  16
ATOM     16  C   UNL d   1      45.658 -15.641  44.463  0.00  0.00     0.120 A 
ATOM     17  O   UNL d   1      46.150 -14.986  44.528  0.00  0.00    -0.304 OA
ATOM     18  C   UNL d   1      45.703 -14.358  44.826  0.00  0.00     0.123 A 
ATOM     19  C   UNL d   1      44.933 -14.626  44.946  0.00  0.00     0.029 A 
ATOM     20  C   UNL d   1      44.904 -15.421  44.721  0.00  0.00     0.028 A 
ENDBRANCH  15  16
ENDBRANCH  14  15
ENDBRANCH  11  14
ENDBRANCH   1  11
TORSDOF 4
ENDMDL
