MODEL 1
REMARK VINA RESULT:      22.7      0.000      0.000
REMARK  5 active torsions:
REMARK  status: ('A' for Active; 'I' for Inactive)
REMARK    1  A    between atoms: C_6  and  C_1 
REMARK    2  A    between atoms: N_7  and  C_2 
REMARK    3  A    between atoms: O_11  and  C_6 
REMARK       I    between atoms: C_8  and  N_7 
REMARK    4  A    between atoms: C_14  and  C_8 
REMARK    5  A    between atoms: C_15  and  O_11 
ROOT
ATOM      1  C   UNL d   1      45.771 -14.810  44.211  0.00  0.00     0.162 A 
ATOM      2  C   UNL d   1      45.244 -14.260  44.528  0.00  0.00     0.109 A 
ATOM      3  N   UNL d   1      46.380 -14.399  43.841  0.00  0.00    -0.239 NA
ATOM      4  C   UNL d   1      45.529 -13.510  44.353  0.00  0.00     0.037 A 
ATOM      5  C   UNL d   1      46.230 -13.590  43.929  0.00  0.00     0.083 A 
ATOM      6  C   UNL d   1      45.233 -12.758  44.530  0.00  0.00     0.003 A 
ATOM      7  C   UNL d   1      46.643 -12.919  43.677  0.00  0.00     0.019 A 
ATOM      8  C   UNL d   1      45.646 -12.088  44.278  0.00  0.00     0.000 A 
ATOM      9  C   UNL d   1      46.346 -12.171  43.854  0.00  0.00     0.002 A 
ENDROOT
BRANCH   1  10
ATOM     10  C   UNL d   1      45.696 -15.631  44.259  0.00  0.00     0.320 C 
ATOM     11  O   UNL d   1      45.297 -15.972  44.893  0.00  0.00    -0.257 OA
BRANCH  10  12
ATOM     12  O   UNL d   1      46.017 -16.117  43.676  0.00  0.00    -0.270 OA
BRANCH  12  13
ATOM     13  C   UNL d   1      45.863 -16.927  43.695  0.00  0.00     0.126 C 
ATOM     14  C   UNL d   1      46.444 -17.442  43.954  0.00  0.00     0.029 C 
ENDBRANCH  12  13
ENDBRANCH  10  12
ENDBRANCH   1  10
BRANCH   2  15
ATOM     15  N   UNL d   1      44.552 -14.434  44.948  0.00  0.00    -0.206 NA
ATOM     16  C   UNL d   1      43.832 -14.522  44.534  0.00  0.00     0.279 C 
ATOM     17  O   UNL d   1      43.818 -14.435  43.711  0.00  0.00    -0.265 OA
BRANCH  16  18
ATOM     18  C   UNL d   1      43.144 -14.696  44.954  0.00  0.00     0.062 C 
ATOM     19  C   UNL d   1      42.468 -14.232  44.838  0.00  0.00     0.005 C 
ENDBRANCH  16  18
ENDBRANCH   2  15
TORSDOF 5
ENDMDL
MODEL 2
REMARK VINA RESULT:      23.1      6.965      7.812
REMARK  5 active torsions:
REMARK  status: ('A' for Active; 'I' for Inactive)
REMARK    1  A    between atoms: C_6  and  C_1 
REMARK    2  A    between atoms: N_7  and  C_2 
REMARK    3  A    between atoms: O_11  and  C_6 
REMARK       I    between atoms: C_8  and  N_7 
REMARK    4  A    between atoms: C_14  and  C_8 
REMARK    5  A    between atoms: C_15  and  O_11 
ROOT
ATOM      1  C   UNL d   1      44.788 -15.188  36.750  0.00  0.00     0.162 A 
ATOM      2  C   UNL d   1      44.446 -15.912  36.950  0.00  0.00     0.109 A 
ATOM      3  N   UNL d   1      44.193 -14.685  36.488  0.00  0.00    -0.239 NA
ATOM      4  C   UNL d   1      43.639 -15.854  36.810  0.00  0.00     0.037 A 
ATOM      5  C   UNL d   1      43.477 -15.099  36.525  0.00  0.00     0.083 A 
ATOM      6  C   UNL d   1      43.026 -16.401  36.909  0.00  0.00     0.003 A 
ATOM      7  C   UNL d   1      42.702 -14.883  36.335  0.00  0.00     0.019 A 
ATOM      8  C   UNL d   1      42.251 -16.185  36.719  0.00  0.00     0.000 A 
ATOM      9  C   UNL d   1      42.093 -15.430  36.434  0.00  0.00     0.002 A 
ENDROOT
BRANCH   1  10
ATOM     10  C   UNL d   1      45.592 -15.005  36.806  0.00  0.00     0.320 C 
ATOM     11  O   UNL d   1      46.138 -15.399  36.334  0.00  0.00    -0.257 OA
BRANCH  10  12
ATOM     12  O   UNL d   1      45.855 -14.428  37.333  0.00  0.00    -0.270 OA
BRANCH  12  13
ATOM     13  C   UNL d   1      46.355 -13.832  37.062  0.00  0.00     0.126 C 
ATOM     14  C   UNL d   1      46.644 -13.276  37.590  0.00  0.00     0.029 C 
ENDBRANCH  12  13
ENDBRANCH  10  12
ENDBRANCH   1  10
BRANCH   2  15
ATOM     15  N   UNL d   1      44.845 -16.576  37.239  0.00  0.00    -0.206 NA
ATOM     16  C   UNL d   1      44.847 -16.730  38.060  0.00  0.00     0.279 C 
ATOM     17  O   UNL d   1      44.450 -16.217  38.574  0.00  0.00    -0.265 OA
BRANCH  16  18
ATOM     18  C   UNL d   1      45.245 -17.393  38.346  0.00  0.00     0.062 C 
ATOM     19  C   UNL d   1      45.121 -17.638  39.127  0.00  0.00     0.005 C 
ENDBRANCH  16  18
ENDBRANCH   2  15
TORSDOF 5
ENDMDL
MODEL 3
REMARK VINA RESULT:      25.3      6.884      7.285
REMARK  5 active torsions:
REMARK  status: ('A' for Active; 'I' for Inactive)
REMARK    1  A    between atoms: C_6  and  C_1 
REMARK    2  A    between atoms: N_7  and  C_2 
REMARK    3  A    between atoms: O_11  and  C_6 
REMARK       I    between atoms: C_8  and  N_7 
REMARK    4  A    between atoms: C_14  and  C_8 
REMARK    5  A    between atoms: C_15  and  O_11 
ROOT
ATOM      1  C   UNL d   1      45.070 -16.033  37.247  0.00  0.00     0.162 A 
ATOM      2  C   UNL d   1      44.788 -15.436  36.752  0.00  0.00     0.109 A 
ATOM      3  N   UNL d   1      45.805 -15.803  37.534  0.00  0.00    -0.239 NA
ATOM      4  C   UNL d   1      45.350 -14.838  36.734  0.00  0.00     0.037 A 
ATOM      5  C   UNL d   1      45.981 -15.060  37.216  0.00  0.00     0.083 A 
ATOM      6  C   UNL d   1      45.367 -14.114  36.336  0.00  0.00     0.003 A 
ATOM      7  C   UNL d   1      46.633 -14.560  37.304  0.00  0.00     0.019 A 
ATOM      8  C   UNL d   1      46.019 -13.614  36.424  0.00  0.00     0.000 A 
ATOM      9  C   UNL d   1      46.646 -13.838  36.906  0.00  0.00     0.002 A 
ENDROOT
BRANCH   1  10
ATOM     10  C   UNL d   1      44.677 -16.738  37.421  0.00  0.00     0.320 C 
ATOM     11  O   UNL d   1      44.411 -17.223  36.811  0.00  0.00    -0.257 OA
BRANCH  10  12
ATOM     12  O   UNL d   1      44.546 -16.964  38.203  0.00  0.00    -0.270 OA
BRANCH  12  13
ATOM     13  C   UNL d   1      45.078 -17.476  38.569  0.00  0.00     0.126 C 
ATOM     14  C   UNL d   1      44.870 -17.838  39.274  0.00  0.00     0.029 C 
ENDBRANCH  12  13
ENDBRANCH  10  12
ENDBRANCH   1  10
BRANCH   2  15
ATOM     15  N   UNL d   1      44.066 -15.440  36.345  0.00  0.00    -0.206 NA
ATOM     16  C   UNL d   1      43.370 -15.202  36.741  0.00  0.00     0.279 C 
ATOM     17  O   UNL d   1      43.409 -14.965  37.533  0.00  0.00    -0.265 OA
BRANCH  16  18
ATOM     18  C   UNL d   1      42.654 -15.207  36.334  0.00  0.00     0.062 C 
ATOM     19  C   UNL d   1      41.970 -15.474  36.717  0.00  0.00     0.005 C 
ENDBRANCH  16  18
ENDBRANCH   2  15
TORSDOF 5
ENDMDL
