MODEL 1
REMARK VINA RESULT:      -5.2      0.000      0.000
REMARK  5 active torsions:
REMARK  status: ('A' for Active; 'I' for Inactive)
REMARK    1  A    between atoms: C_2  and  N_1 
REMARK    2  A    between atoms: C_5  and  C_18 
REMARK       I    between atoms: N_9  and  C_5 
REMARK    3  A    between atoms: O_15  and  C_7 
REMARK    4  A    between atoms: C_13  and  N_9 
REMARK    5  A    between atoms: C_18  and  O_15 
ROOT
ATOM      1  C   UNL d   1      57.718   0.192  31.207  0.00  0.00     0.304 C 
ATOM      2  N   UNL d   1      56.976  -0.169  31.170  0.00  0.00    -0.206 NA
ATOM      3  O   UNL d   1      58.030   0.419  31.936  0.00  0.00    -0.263 OA
ENDROOT
BRANCH   1   4
ATOM      4  C   UNL d   1      58.147   0.325  30.515  0.00  0.00     0.185 C 
BRANCH   4   5
ATOM      5  O   UNL d   1      58.501  -0.306  30.121  0.00  0.00    -0.298 OA
BRANCH   5   6
ATOM      6  C   UNL d   1      59.112  -0.168  29.585  0.00  0.00     0.122 A 
ATOM      7  C   UNL d   1      59.304  -0.750  29.019  0.00  0.00     0.149 A 
ATOM      8  C   UNL d   1      59.915  -0.611  28.482  0.00  0.00     0.026 A 
ATOM      9  C   UNL d   1      60.334   0.110  28.511  0.00  0.00     0.002 A 
ATOM     10  C   UNL d   1      60.140   0.682  29.072  0.00  0.00     0.002 A 
ATOM     11  C   UNL d   1      59.529   0.543  29.609  0.00  0.00     0.026 A 
BRANCH   7  12
ATOM     12  N   UNL d   1      58.888  -1.454  28.998  0.00  0.00    -0.112 N 
ATOM     13  O   UNL d   1      58.218  -1.517  28.522  0.00  0.00    -0.532 OA
ATOM     14  O   UNL d   1      59.136  -2.098  29.450  0.00  0.00    -0.532 OA
ENDBRANCH   7  12
ENDBRANCH   5   6
ENDBRANCH   4   5
ENDBRANCH   1   4
BRANCH   2  15
ATOM     15  C   UNL d   1      56.548  -0.302  31.863  0.00  0.00     0.087 A 
ATOM     16  C   UNL d   1      56.128   0.316  32.213  0.00  0.00     0.045 A 
ATOM     17  C   UNL d   1      55.699   0.183  32.905  0.00  0.00     0.121 A 
ATOM     18  O   UNL d   1      55.237   0.682  33.370  0.00  0.00    -0.299 OA
ATOM     19  C   UNL d   1      55.690  -0.569  33.247  0.00  0.00     0.119 A 
ATOM     20  C   UNL d   1      54.939   0.244  34.003  0.00  0.00     0.304 A 
ATOM     21  O   UNL d   1      55.221  -0.532  33.924  0.00  0.00    -0.300 OA
ATOM     22  C   UNL d   1      56.108  -1.178  32.896  0.00  0.00     0.028 A 
ATOM     23  C   UNL d   1      56.537  -1.045  32.204  0.00  0.00     0.021 A 
ENDBRANCH   2  15
TORSDOF 5
ENDMDL
