MODEL 1
REMARK VINA RESULT:      -8.0      0.000      0.000
REMARK  4 active torsions:
REMARK  status: ('A' for Active; 'I' for Inactive)
REMARK    1  A    between atoms: C_3  and  C_1 
REMARK    2  A    between atoms: N_5  and  C_3 
REMARK    3  A    between atoms: C_10  and  C_3 
REMARK    4  A    between atoms: C_7  and  N_5 
ROOT
ATOM      1  C   UNL d   1     -49.125  13.463  22.901  0.00  0.00     0.086 C 
ENDROOT
BRANCH   1   2
ATOM      2  C   UNL d   1     -48.296  13.483  22.763  0.00  0.00     0.058 A 
ATOM      3  C   UNL d   1     -47.829  12.916  23.155  0.00  0.00     0.214 A 
ATOM      4  C   UNL d   1     -47.016  12.943  23.014  0.00  0.00     0.120 A 
ATOM      5  O   UNL d   1     -48.164  12.357  23.660  0.00  0.00    -0.285 OA
ATOM      6  N   UNL d   1     -46.532  12.369  23.410  0.00  0.00    -0.241 NA
ATOM      7  C   UNL d   1     -46.681  13.503  22.509  0.00  0.00     0.021 A 
ATOM      8  C   UNL d   1     -45.720  12.396  23.268  0.00  0.00     0.099 A 
ATOM      9  C   UNL d   1     -45.385  12.956  22.763  0.00  0.00     0.021 A 
ATOM     10  C   UNL d   1     -45.862  13.489  22.400  0.00  0.00     0.003 A 
ATOM     11  C   UNL d   1     -47.158  14.036  22.145  0.00  0.00     0.002 A 
ATOM     12  C   UNL d   1     -47.961  14.043  22.258  0.00  0.00     0.005 A 
ENDBRANCH   1   2
BRANCH   1  13
ATOM     13  N   UNL d   1     -49.440  13.787  23.599  0.00  0.00    -0.227 NA
BRANCH  13  14
ATOM     14  C   UNL d   1     -49.827  14.495  23.600  0.00  0.00     0.162 A 
ATOM     15  N   UNL d   1     -50.646  14.513  23.694  0.00  0.00    -0.225 NA
ATOM     16  C   UNL d   1     -51.059  15.230  23.698  0.00  0.00     0.101 A 
ATOM     17  C   UNL d   1     -50.626  15.922  23.605  0.00  0.00     0.021 A 
ATOM     18  C   UNL d   1     -49.807  15.904  23.511  0.00  0.00     0.005 A 
ATOM     19  C   UNL d   1     -49.420  15.195  23.510  0.00  0.00     0.039 A 
ENDBRANCH  13  14
ENDBRANCH   1  13
BRANCH   1  20
ATOM     20  C   UNL d   1     -49.633  13.131  22.363  0.00  0.00     0.018 A 
ATOM     21  C   UNL d   1     -50.082  12.492  22.572  0.00  0.00     0.002 A 
ATOM     22  C   UNL d   1     -50.598  12.154  22.024  0.00  0.00     0.000 A 
ATOM     23  C   UNL d   1     -50.665  12.456  21.267  0.00  0.00     0.000 A 
ATOM     24  C   UNL d   1     -50.202  13.108  21.063  0.00  0.00     0.000 A 
ATOM     25  C   UNL d   1     -49.686  13.446  21.611  0.00  0.00     0.002 A 
ENDBRANCH   1  20
TORSDOF 4
ENDMDL
MODEL 2
REMARK VINA RESULT:      -7.9      1.028      1.344
REMARK  4 active torsions:
REMARK  status: ('A' for Active; 'I' for Inactive)
REMARK    1  A    between atoms: C_3  and  C_1 
REMARK    2  A    between atoms: N_5  and  C_3 
REMARK    3  A    between atoms: C_10  and  C_3 
REMARK    4  A    between atoms: C_7  and  N_5 
ROOT
ATOM      1  C   UNL d   1     -48.916  13.419  22.487  0.00  0.00     0.086 C 
ENDROOT
BRANCH   1   2
ATOM      2  C   UNL d   1     -48.089  13.393  22.636  0.00  0.00     0.058 A 
ATOM      3  C   UNL d   1     -47.588  13.241  21.988  0.00  0.00     0.214 A 
ATOM      4  C   UNL d   1     -46.778  13.218  22.143  0.00  0.00     0.120 A 
ATOM      5  O   UNL d   1     -47.889  13.120  21.229  0.00  0.00    -0.285 OA
ATOM      6  N   UNL d   1     -46.260  13.064  21.489  0.00  0.00    -0.241 NA
ATOM      7  C   UNL d   1     -46.477  13.339  22.902  0.00  0.00     0.021 A 
ATOM      8  C   UNL d   1     -45.450  13.041  21.644  0.00  0.00     0.099 A 
ATOM      9  C   UNL d   1     -45.149  13.162  22.403  0.00  0.00     0.021 A 
ATOM     10  C   UNL d   1     -45.657  13.306  23.006  0.00  0.00     0.003 A 
ATOM     11  C   UNL d   1     -46.986  13.484  23.505  0.00  0.00     0.002 A 
ATOM     12  C   UNL d   1     -47.788  13.515  23.394  0.00  0.00     0.005 A 
ENDBRANCH   1   2
BRANCH   1  13
ATOM     13  N   UNL d   1     -49.254  14.082  22.117  0.00  0.00    -0.227 NA
BRANCH  13  14
ATOM     14  C   UNL d   1     -49.614  14.666  22.540  0.00  0.00     0.162 A 
ATOM     15  N   UNL d   1     -50.436  14.671  22.612  0.00  0.00    -0.225 NA
ATOM     16  C   UNL d   1     -50.823  15.263  23.043  0.00  0.00     0.101 A 
ATOM     17  C   UNL d   1     -50.361  15.843  23.396  0.00  0.00     0.021 A 
ATOM     18  C   UNL d   1     -49.539  15.838  23.325  0.00  0.00     0.005 A 
ATOM     19  C   UNL d   1     -49.179  15.253  22.900  0.00  0.00     0.039 A 
ENDBRANCH  13  14
ENDBRANCH   1  13
BRANCH   1  20
ATOM     20  C   UNL d   1     -49.400  12.804  22.699  0.00  0.00     0.018 A 
ATOM     21  C   UNL d   1     -49.843  12.425  22.138  0.00  0.00     0.002 A 
ATOM     22  C   UNL d   1     -50.334  11.799  22.354  0.00  0.00     0.000 A 
ATOM     23  C   UNL d   1     -50.383  11.551  23.132  0.00  0.00     0.000 A 
ATOM     24  C   UNL d   1     -49.928  11.944  23.697  0.00  0.00     0.000 A 
ATOM     25  C   UNL d   1     -49.436  12.570  23.481  0.00  0.00     0.002 A 
ENDBRANCH   1  20
TORSDOF 4
ENDMDL
MODEL 3
REMARK VINA RESULT:      -7.8      1.211      2.345
REMARK  4 active torsions:
REMARK  status: ('A' for Active; 'I' for Inactive)
REMARK    1  A    between atoms: C_3  and  C_1 
REMARK    2  A    between atoms: N_5  and  C_3 
REMARK    3  A    between atoms: C_10  and  C_3 
REMARK    4  A    between atoms: C_7  and  N_5 
ROOT
ATOM      1  C   UNL d   1     -48.812  13.489  22.514  0.00  0.00     0.086 C 
ENDROOT
BRANCH   1   2
ATOM      2  C   UNL d   1     -47.992  13.370  22.658  0.00  0.00     0.058 A 
ATOM      3  C   UNL d   1     -47.503  13.235  21.998  0.00  0.00     0.214 A 
ATOM      4  C   UNL d   1     -46.700  13.120  22.148  0.00  0.00     0.120 A 
ATOM      5  O   UNL d   1     -47.809  13.219  21.231  0.00  0.00    -0.285 OA
ATOM      6  N   UNL d   1     -46.194  12.982  21.481  0.00  0.00    -0.241 NA
ATOM      7  C   UNL d   1     -46.395  13.136  22.914  0.00  0.00     0.021 A 
ATOM      8  C   UNL d   1     -45.391  12.867  21.632  0.00  0.00     0.099 A 
ATOM      9  C   UNL d   1     -45.086  12.883  22.398  0.00  0.00     0.021 A 
ATOM     10  C   UNL d   1     -45.583  13.015  23.013  0.00  0.00     0.003 A 
ATOM     11  C   UNL d   1     -46.892  13.268  23.530  0.00  0.00     0.002 A 
ATOM     12  C   UNL d   1     -47.687  13.386  23.424  0.00  0.00     0.005 A 
ENDBRANCH   1   2
BRANCH   1  13
ATOM     13  N   UNL d   1     -49.280  12.866  22.225  0.00  0.00    -0.227 NA
BRANCH  13  14
ATOM     14  C   UNL d   1     -49.746  12.424  22.714  0.00  0.00     0.162 A 
ATOM     15  N   UNL d   1     -50.563  12.541  22.715  0.00  0.00    -0.225 NA
ATOM     16  C   UNL d   1     -51.056  12.097  23.210  0.00  0.00     0.101 A 
ATOM     17  C   UNL d   1     -50.705  11.537  23.698  0.00  0.00     0.021 A 
ATOM     18  C   UNL d   1     -49.888  11.420  23.697  0.00  0.00     0.005 A 
ATOM     19  C   UNL d   1     -49.423  11.863  23.207  0.00  0.00     0.039 A 
ENDBRANCH  13  14
ENDBRANCH   1  13
BRANCH   1  20
ATOM     20  C   UNL d   1     -49.163  14.207  22.653  0.00  0.00     0.018 A 
ATOM     21  C   UNL d   1     -49.197  14.501  23.406  0.00  0.00     0.002 A 
ATOM     22  C   UNL d   1     -49.553  15.232  23.547  0.00  0.00     0.000 A 
ATOM     23  C   UNL d   1     -49.875  15.668  22.935  0.00  0.00     0.000 A 
ATOM     24  C   UNL d   1     -49.836  15.359  22.170  0.00  0.00     0.000 A 
ATOM     25  C   UNL d   1     -49.480  14.629  22.029  0.00  0.00     0.002 A 
ENDBRANCH   1  20
TORSDOF 4
ENDMDL
MODEL 4
REMARK VINA RESULT:      -7.0      9.301     10.479
REMARK  4 active torsions:
REMARK  status: ('A' for Active; 'I' for Inactive)
REMARK    1  A    between atoms: C_3  and  C_1 
REMARK    2  A    between atoms: N_5  and  C_3 
REMARK    3  A    between atoms: C_10  and  C_3 
REMARK    4  A    between atoms: C_7  and  N_5 
ROOT
ATOM      1  C   UNL d   1     -39.342  15.008  18.196  0.00  0.00     0.086 C 
ENDROOT
BRANCH   1   2
ATOM      2  C   UNL d   1     -39.493  14.953  19.022  0.00  0.00     0.058 A 
ATOM      3  C   UNL d   1     -39.027  15.421  19.528  0.00  0.00     0.214 A 
ATOM      4  C   UNL d   1     -39.181  15.360  20.336  0.00  0.00     0.120 A 
ATOM      5  O   UNL d   1     -38.439  15.920  19.234  0.00  0.00    -0.285 OA
ATOM      6  N   UNL d   1     -38.711  15.833  20.861  0.00  0.00    -0.241 NA
ATOM      7  C   UNL d   1     -39.769  14.861  20.630  0.00  0.00     0.021 A 
ATOM      8  C   UNL d   1     -38.866  15.773  21.669  0.00  0.00     0.099 A 
ATOM      9  C   UNL d   1     -39.453  15.273  21.962  0.00  0.00     0.021 A 
ATOM     10  C   UNL d   1     -39.886  14.835  21.448  0.00  0.00     0.003 A 
ATOM     11  C   UNL d   1     -40.202  14.423  20.116  0.00  0.00     0.002 A 
ATOM     12  C   UNL d   1     -40.081  14.454  19.316  0.00  0.00     0.005 A 
ENDBRANCH   1   2
BRANCH   1  13
ATOM     13  N   UNL d   1     -39.542  15.700  17.781  0.00  0.00    -0.227 NA
BRANCH  13  14
ATOM     14  C   UNL d   1     -40.246  15.774  17.394  0.00  0.00     0.162 A 
ATOM     15  N   UNL d   1     -40.949  15.781  17.824  0.00  0.00    -0.225 NA
ATOM     16  C   UNL d   1     -41.681  15.856  17.444  0.00  0.00     0.101 A 
ATOM     17  C   UNL d   1     -41.681  15.922  16.625  0.00  0.00     0.021 A 
ATOM     18  C   UNL d   1     -40.978  15.914  16.195  0.00  0.00     0.005 A 
ATOM     19  C   UNL d   1     -40.273  15.841  16.582  0.00  0.00     0.039 A 
ENDBRANCH  13  14
ENDBRANCH   1  13
BRANCH   1  20
ATOM     20  C   UNL d   1     -39.003  14.394  17.790  0.00  0.00     0.018 A 
ATOM     21  C   UNL d   1     -39.354  13.666  17.791  0.00  0.00     0.002 A 
ATOM     22  C   UNL d   1     -39.008  13.041  17.377  0.00  0.00     0.000 A 
ATOM     23  C   UNL d   1     -38.311  13.145  16.963  0.00  0.00     0.000 A 
ATOM     24  C   UNL d   1     -37.960  13.892  16.967  0.00  0.00     0.000 A 
ATOM     25  C   UNL d   1     -38.306  14.517  17.381  0.00  0.00     0.002 A 
ENDBRANCH   1  20
TORSDOF 4
ENDMDL
MODEL 5
REMARK VINA RESULT:      -6.7      9.239     10.815
REMARK  4 active torsions:
REMARK  status: ('A' for Active; 'I' for Inactive)
REMARK    1  A    between atoms: C_3  and  C_1 
REMARK    2  A    between atoms: N_5  and  C_3 
REMARK    3  A    between atoms: C_10  and  C_3 
REMARK    4  A    between atoms: C_7  and  N_5 
ROOT
ATOM      1  C   UNL d   1     -39.253  14.845  18.270  0.00  0.00     0.086 C 
ENDROOT
BRANCH   1   2
ATOM      2  C   UNL d   1     -39.507  14.841  19.072  0.00  0.00     0.058 A 
ATOM      3  C   UNL d   1     -39.123  15.360  19.598  0.00  0.00     0.214 A 
ATOM      4  C   UNL d   1     -39.379  15.349  20.382  0.00  0.00     0.120 A 
ATOM      5  O   UNL d   1     -38.516  15.858  19.345  0.00  0.00    -0.285 OA
ATOM      6  N   UNL d   1     -38.992  15.875  20.925  0.00  0.00    -0.241 NA
ATOM      7  C   UNL d   1     -39.985  14.850  20.635  0.00  0.00     0.021 A 
ATOM      8  C   UNL d   1     -39.248  15.864  21.709  0.00  0.00     0.099 A 
ATOM      9  C   UNL d   1     -39.855  15.366  21.962  0.00  0.00     0.021 A 
ATOM     10  C   UNL d   1     -40.205  14.877  21.431  0.00  0.00     0.003 A 
ATOM     11  C   UNL d   1     -40.336  14.362  20.104  0.00  0.00     0.002 A 
ATOM     12  C   UNL d   1     -40.114  14.342  19.325  0.00  0.00     0.005 A 
ENDBRANCH   1   2
BRANCH   1  13
ATOM     13  N   UNL d   1     -38.480  14.607  18.076  0.00  0.00    -0.227 NA
BRANCH  13  14
ATOM     14  C   UNL d   1     -38.310  13.846  17.871  0.00  0.00     0.162 A 
ATOM     15  N   UNL d   1     -38.182  13.284  18.461  0.00  0.00    -0.225 NA
ATOM     16  C   UNL d   1     -38.006  12.497  18.270  0.00  0.00     0.101 A 
ATOM     17  C   UNL d   1     -37.965  12.297  17.475  0.00  0.00     0.021 A 
ATOM     18  C   UNL d   1     -38.093  12.859  16.884  0.00  0.00     0.005 A 
ATOM     19  C   UNL d   1     -38.263  13.622  17.090  0.00  0.00     0.039 A 
ENDBRANCH  13  14
ENDBRANCH   1  13
BRANCH   1  20
ATOM     20  C   UNL d   1     -39.750  15.078  17.673  0.00  0.00     0.018 A 
ATOM     21  C   UNL d   1     -39.532  15.678  17.177  0.00  0.00     0.002 A 
ATOM     22  C   UNL d   1     -40.038  15.915  16.570  0.00  0.00     0.000 A 
ATOM     23  C   UNL d   1     -40.762  15.551  16.459  0.00  0.00     0.000 A 
ATOM     24  C   UNL d   1     -40.976  14.940  16.971  0.00  0.00     0.000 A 
ATOM     25  C   UNL d   1     -40.470  14.703  17.578  0.00  0.00     0.002 A 
ENDBRANCH   1  20
TORSDOF 4
ENDMDL
MODEL 6
REMARK VINA RESULT:      -5.8      0.868      2.406
REMARK  4 active torsions:
REMARK  status: ('A' for Active; 'I' for Inactive)
REMARK    1  A    between atoms: C_3  and  C_1 
REMARK    2  A    between atoms: N_5  and  C_3 
REMARK    3  A    between atoms: C_10  and  C_3 
REMARK    4  A    between atoms: C_7  and  N_5 
ROOT
ATOM      1  C   UNL d   1     -48.709  13.406  22.895  0.00  0.00     0.086 C 
ENDROOT
BRANCH   1   2
ATOM      2  C   UNL d   1     -47.910  13.145  22.879  0.00  0.00     0.058 A 
ATOM      3  C   UNL d   1     -47.728  12.444  23.290  0.00  0.00     0.214 A 
ATOM      4  C   UNL d   1     -46.942  12.195  23.268  0.00  0.00     0.120 A 
ATOM      5  O   UNL d   1     -48.307  12.021  23.698  0.00  0.00    -0.285 OA
ATOM      6  N   UNL d   1     -46.747  11.481  23.685  0.00  0.00    -0.241 NA
ATOM      7  C   UNL d   1     -46.363  12.618  22.860  0.00  0.00     0.021 A 
ATOM      8  C   UNL d   1     -45.960  11.233  23.663  0.00  0.00     0.099 A 
ATOM      9  C   UNL d   1     -45.381  11.656  23.255  0.00  0.00     0.021 A 
ATOM     10  C   UNL d   1     -45.589  12.327  22.869  0.00  0.00     0.003 A 
ATOM     11  C   UNL d   1     -46.570  13.290  22.474  0.00  0.00     0.002 A 
ATOM     12  C   UNL d   1     -47.331  13.568  22.471  0.00  0.00     0.005 A 
ENDBRANCH   1   2
BRANCH   1  13
ATOM     13  N   UNL d   1     -49.329  12.858  22.819  0.00  0.00    -0.227 NA
BRANCH  13  14
ATOM     14  C   UNL d   1     -49.758  12.796  22.138  0.00  0.00     0.162 A 
ATOM     15  N   UNL d   1     -49.376  12.609  21.431  0.00  0.00    -0.225 NA
ATOM     16  C   UNL d   1     -49.800  12.541  20.723  0.00  0.00     0.101 A 
ATOM     17  C   UNL d   1     -50.611  12.667  20.749  0.00  0.00     0.021 A 
ATOM     18  C   UNL d   1     -50.993  12.855  21.456  0.00  0.00     0.005 A 
ATOM     19  C   UNL d   1     -50.563  12.917  22.137  0.00  0.00     0.039 A 
ENDBRANCH  13  14
ENDBRANCH   1  13
BRANCH   1  20
ATOM     20  C   UNL d   1     -48.892  14.191  22.985  0.00  0.00     0.018 A 
ATOM     21  C   UNL d   1     -48.602  14.736  22.462  0.00  0.00     0.002 A 
ATOM     22  C   UNL d   1     -48.788  15.535  22.554  0.00  0.00     0.000 A 
ATOM     23  C   UNL d   1     -49.264  15.788  23.169  0.00  0.00     0.000 A 
ATOM     24  C   UNL d   1     -49.554  15.225  23.698  0.00  0.00     0.000 A 
ATOM     25  C   UNL d   1     -49.369  14.426  23.606  0.00  0.00     0.002 A 
ENDBRANCH   1  20
TORSDOF 4
ENDMDL
