MODEL 1
REMARK VINA RESULT:      42.5      0.000      0.000
REMARK  6 active torsions:
REMARK  status: ('A' for Active; 'I' for Inactive)
REMARK    1  A    between atoms: N_5  and  S_1 
REMARK    2  A    between atoms: C_6  and  S_1 
REMARK    3  A    between atoms: C_2  and  C_14 
REMARK    4  A    between atoms: C_8  and  N_5 
REMARK    5  A    between atoms: C_7  and  C_8 
REMARK       I    between atoms: N_11  and  C_7 
REMARK    6  A    between atoms: C_20  and  N_11 
ROOT
ATOM      1  C   UNL d   1      45.818 -13.475  43.940  0.00  0.00     0.298 C 
ATOM      2  N   UNL d   1      45.282 -14.011  44.254  0.00  0.00    -0.207 NA
ATOM      3  O   UNL d   1      46.529 -13.740  43.619  0.00  0.00    -0.264 OA
ENDROOT
BRANCH   1   4
ATOM      4  C   UNL d   1      45.638 -12.674  43.951  0.00  0.00     0.151 C 
ATOM      5  C   UNL d   1      45.286 -12.337  44.623  0.00  0.00     0.027 C 
BRANCH   4   6
ATOM      6  N   UNL d   1      45.800 -12.199  43.306  0.00  0.00    -0.153 NA
BRANCH   6   7
ATOM      7  S   UNL d   1      45.314 -12.212  42.639  0.00  0.00     0.285 S 
ATOM      8  O   UNL d   1      44.654 -12.086  43.117  0.00  0.00    -0.198 OA
ATOM      9  O   UNL d   1      45.974 -12.338  42.160  0.00  0.00    -0.198 OA
BRANCH   7  10
ATOM     10  C   UNL d   1      44.831 -12.225  41.976  0.00  0.00     0.105 A 
ATOM     11  C   UNL d   1      44.016 -12.208  42.070  0.00  0.00     0.012 A 
ATOM     12  C   UNL d   1      43.523 -12.220  41.399  0.00  0.00     0.001 A 
ATOM     13  C   UNL d   1      43.686 -12.177  42.838  0.00  0.00     0.001 C 
ATOM     14  C   UNL d   1      43.850 -12.250  40.649  0.00  0.00     0.000 A 
ATOM     15  C   UNL d   1      44.670 -12.267  40.555  0.00  0.00     0.001 A 
ATOM     16  C   UNL d   1      45.158 -12.255  41.226  0.00  0.00     0.013 A 
ATOM     17  C   UNL d   1      45.003 -12.298  39.791  0.00  0.00     0.000 C 
ENDBRANCH   7  10
ENDBRANCH   6   7
ENDBRANCH   4   6
ENDBRANCH   1   4
BRANCH   2  18
ATOM     18  C   UNL d   1      45.459 -14.817  44.245  0.00  0.00     0.085 A 
ATOM     19  C   UNL d   1      45.588 -15.193  43.526  0.00  0.00     0.019 A 
ATOM     20  C   UNL d   1      45.767 -16.007  43.501  0.00  0.00     0.004 A 
ATOM     21  C   UNL d   1      45.816 -16.438  44.200  0.00  0.00     0.024 A 
ATOM     22  C   UNL d   1      45.687 -16.061  44.924  0.00  0.00     0.004 A 
ATOM     23  C   UNL d   1      45.509 -15.255  44.953  0.00  0.00     0.019 A 
BRANCH  21  24
ATOM     24  C   UNL d   1      45.995 -17.247  44.163  0.00  0.00     0.111 A 
ATOM     25  N   UNL d   1      46.107 -17.647  43.455  0.00  0.00    -0.239 NA
ATOM     26  C   UNL d   1      46.275 -18.438  43.624  0.00  0.00     0.088 A 
ATOM     27  C   UNL d   1      46.434 -19.086  43.143  0.00  0.00     0.020 A 
ATOM     28  C   UNL d   1      46.267 -18.525  44.445  0.00  0.00     0.049 A 
ATOM     29  C   UNL d   1      46.584 -19.822  43.481  0.00  0.00     0.002 A 
ATOM     30  C   UNL d   1      46.576 -19.909  44.302  0.00  0.00     0.001 A 
ATOM     31  C   UNL d   1      46.417 -19.260  44.784  0.00  0.00     0.008 A 
ATOM     32  S   UNL d   1      46.093 -17.786  44.777  0.00  0.00    -0.066 SA
ENDBRANCH  21  24
ENDBRANCH   2  18
TORSDOF 6
ENDMDL
