MODEL 1
REMARK VINA RESULT:     -10.3      0.000      0.000
REMARK  4 active torsions:
REMARK  status: ('A' for Active; 'I' for Inactive)
REMARK    1  A    between atoms: C_7  and  C_2 
REMARK    2  A    between atoms: C_9  and  C_4 
REMARK    3  A    between atoms: C_15  and  C_7 
REMARK    4  A    between atoms: N_8  and  C_9 
ROOT
ATOM      1  C   UNL d   1      53.444  33.951  54.015  0.00  0.00     0.108 A 
ATOM      2  C   UNL d   1      54.053  32.758  54.032  0.00  0.00     0.139 A 
ATOM      3  O   UNL d   1      53.619  33.283  53.555  0.00  0.00    -0.304 OA
ATOM      4  C   UNL d   1      53.034  34.645  53.847  0.00  0.00     0.079 A 
ATOM      5  C   UNL d   1      53.768  33.838  54.768  0.00  0.00     0.064 A 
ATOM      6  C   UNL d   1      54.142  33.103  54.776  0.00  0.00     0.220 A 
ATOM      7  C   UNL d   1      53.680  34.418  55.347  0.00  0.00     0.009 A 
ATOM      8  C   UNL d   1      52.949  35.218  54.425  0.00  0.00     0.199 A 
ATOM      9  O   UNL d   1      54.540  32.767  55.421  0.00  0.00    -0.284 OA
ATOM     10  C   UNL d   1      53.268  35.112  55.175  0.00  0.00     0.042 A 
ATOM     11  O   UNL d   1      52.537  35.912  54.252  0.00  0.00    -0.286 OA
ENDROOT
BRANCH   2  12
ATOM     12  C   UNL d   1      54.343  32.020  53.796  0.00  0.00     0.028 C 
BRANCH  12  13
ATOM     13  C   UNL d   1      53.820  31.403  53.623  0.00  0.00     0.002 A 
ATOM     14  C   UNL d   1      53.677  30.818  54.186  0.00  0.00     0.000 A 
ATOM     15  C   UNL d   1      53.158  30.202  54.020  0.00  0.00     0.000 A 
ATOM     16  C   UNL d   1      52.778  30.170  53.282  0.00  0.00     0.000 A 
ATOM     17  C   UNL d   1      52.920  30.755  52.718  0.00  0.00     0.000 A 
ATOM     18  C   UNL d   1      52.257  29.553  53.112  0.00  0.00     0.000 C 
ATOM     19  C   UNL d   1      53.443  31.372  52.892  0.00  0.00     0.000 A 
ENDBRANCH  12  13
ENDBRANCH   2  12
BRANCH   4  20
ATOM     20  C   UNL d   1      52.714  34.757  53.103  0.00  0.00     0.086 C 
BRANCH  20  21
ATOM     21  N   UNL d   1      51.936  34.564  52.875  0.00  0.00    -0.300 N 
ATOM     22  C   UNL d   1      51.800  34.332  52.101  0.00  0.00     0.100 A 
ATOM     23  C   UNL d   1      51.035  34.139  51.866  0.00  0.00     0.100 A 
ATOM     24  N   UNL d   1      50.427  34.184  52.411  0.00  0.00    -0.299 N 
ATOM     25  C   UNL d   1      50.580  34.418  53.180  0.00  0.00     0.100 A 
ATOM     26  C   UNL d   1      49.668  33.994  52.182  0.00  0.00     0.100 C 
ATOM     27  C   UNL d   1      51.338  34.606  53.405  0.00  0.00     0.100 A 
ENDBRANCH  20  21
ENDBRANCH   4  20
TORSDOF 4
ENDMDL
MODEL 2
REMARK VINA RESULT:      -9.5      1.193      3.660
REMARK  4 active torsions:
REMARK  status: ('A' for Active; 'I' for Inactive)
REMARK    1  A    between atoms: C_7  and  C_2 
REMARK    2  A    between atoms: C_9  and  C_4 
REMARK    3  A    between atoms: C_15  and  C_7 
REMARK    4  A    between atoms: N_8  and  C_9 
ROOT
ATOM      1  C   UNL d   1      53.594  33.598  53.968  0.00  0.00     0.108 A 
ATOM      2  C   UNL d   1      52.768  34.615  53.689  0.00  0.00     0.139 A 
ATOM      3  O   UNL d   1      53.065  33.894  53.400  0.00  0.00    -0.304 OA
ATOM      4  C   UNL d   1      54.051  32.914  53.991  0.00  0.00     0.079 A 
ATOM      5  C   UNL d   1      53.622  34.133  54.598  0.00  0.00     0.064 A 
ATOM      6  C   UNL d   1      53.113  34.758  54.425  0.00  0.00     0.220 A 
ATOM      7  C   UNL d   1      54.106  33.981  55.248  0.00  0.00     0.009 A 
ATOM      8  C   UNL d   1      54.531  32.768  54.638  0.00  0.00     0.199 A 
ATOM      9  O   UNL d   1      52.971  35.418  54.906  0.00  0.00    -0.284 OA
ATOM     10  C   UNL d   1      54.564  33.295  55.268  0.00  0.00     0.042 A 
ATOM     11  O   UNL d   1      54.988  32.081  54.658  0.00  0.00    -0.286 OA
ENDROOT
BRANCH   2  12
ATOM     12  C   UNL d   1      52.222  35.101  53.301  0.00  0.00     0.028 C 
BRANCH  12  13
ATOM     13  C   UNL d   1      51.573  34.770  52.911  0.00  0.00     0.002 A 
ATOM     14  C   UNL d   1      51.622  34.602  52.105  0.00  0.00     0.000 A 
ATOM     15  C   UNL d   1      50.979  34.273  51.711  0.00  0.00     0.000 A 
ATOM     16  C   UNL d   1      50.279  34.108  52.128  0.00  0.00     0.000 A 
ATOM     17  C   UNL d   1      50.230  34.275  52.934  0.00  0.00     0.000 A 
ATOM     18  C   UNL d   1      49.633  33.778  51.736  0.00  0.00     0.000 C 
ATOM     19  C   UNL d   1      50.880  34.607  53.324  0.00  0.00     0.000 A 
ENDBRANCH  12  13
ENDBRANCH   2  12
BRANCH   4  20
ATOM     20  C   UNL d   1      54.024  32.385  53.368  0.00  0.00     0.086 C 
BRANCH  20  21
ATOM     21  N   UNL d   1      53.604  31.666  53.360  0.00  0.00    -0.300 N 
ATOM     22  C   UNL d   1      52.943  31.603  52.879  0.00  0.00     0.100 A 
ATOM     23  C   UNL d   1      52.521  30.896  52.865  0.00  0.00     0.100 A 
ATOM     24  N   UNL d   1      52.770  30.273  53.330  0.00  0.00    -0.299 N 
ATOM     25  C   UNL d   1      53.432  30.352  53.805  0.00  0.00     0.100 A 
ATOM     26  C   UNL d   1      52.355  29.571  53.318  0.00  0.00     0.100 C 
ATOM     27  C   UNL d   1      53.844  31.052  53.814  0.00  0.00     0.100 A 
ENDBRANCH  20  21
ENDBRANCH   4  20
TORSDOF 4
ENDMDL
MODEL 3
REMARK VINA RESULT:      -7.4      1.469      2.998
REMARK  4 active torsions:
REMARK  status: ('A' for Active; 'I' for Inactive)
REMARK    1  A    between atoms: C_7  and  C_2 
REMARK    2  A    between atoms: C_9  and  C_4 
REMARK    3  A    between atoms: C_15  and  C_7 
REMARK    4  A    between atoms: N_8  and  C_9 
ROOT
ATOM      1  C   UNL d   1      52.335  33.306  53.151  0.00  0.00     0.108 A 
ATOM      2  C   UNL d   1      52.112  32.042  52.767  0.00  0.00     0.139 A 
ATOM      3  O   UNL d   1      52.709  32.590  52.959  0.00  0.00    -0.304 OA
ATOM      4  C   UNL d   1      52.632  34.038  53.381  0.00  0.00     0.079 A 
ATOM      5  C   UNL d   1      51.518  33.199  53.077  0.00  0.00     0.064 A 
ATOM      6  C   UNL d   1      51.383  32.421  52.841  0.00  0.00     0.220 A 
ATOM      7  C   UNL d   1      51.004  33.824  53.235  0.00  0.00     0.009 A 
ATOM      8  C   UNL d   1      52.118  34.656  53.536  0.00  0.00     0.199 A 
ATOM      9  O   UNL d   1      50.642  32.076  52.702  0.00  0.00    -0.284 OA
ATOM     10  C   UNL d   1      51.305  34.557  53.466  0.00  0.00     0.042 A 
ATOM     11  O   UNL d   1      52.420  35.388  53.767  0.00  0.00    -0.286 OA
ENDROOT
BRANCH   2  12
ATOM     12  C   UNL d   1      52.236  31.256  52.542  0.00  0.00     0.028 C 
BRANCH  12  13
ATOM     13  C   UNL d   1      52.592  30.724  53.065  0.00  0.00     0.002 A 
ATOM     14  C   UNL d   1      53.409  30.613  53.041  0.00  0.00     0.000 A 
ATOM     15  C   UNL d   1      53.770  30.084  53.559  0.00  0.00     0.000 A 
ATOM     16  C   UNL d   1      53.309  29.663  54.106  0.00  0.00     0.000 A 
ATOM     17  C   UNL d   1      52.492  29.774  54.130  0.00  0.00     0.000 A 
ATOM     18  C   UNL d   1      53.667  29.132  54.626  0.00  0.00     0.000 C 
ATOM     19  C   UNL d   1      52.135  30.306  53.608  0.00  0.00     0.000 A 
ENDBRANCH  12  13
ENDBRANCH   2  12
BRANCH   4  20
ATOM     20  C   UNL d   1      53.440  34.144  53.454  0.00  0.00     0.086 C 
BRANCH  20  21
ATOM     21  N   UNL d   1      53.890  33.990  54.137  0.00  0.00    -0.300 N 
ATOM     22  C   UNL d   1      54.645  33.683  54.049  0.00  0.00     0.100 A 
ATOM     23  C   UNL d   1      55.098  33.526  54.719  0.00  0.00     0.100 A 
ATOM     24  N   UNL d   1      54.784  33.681  55.457  0.00  0.00    -0.299 N 
ATOM     25  C   UNL d   1      54.029  33.988  55.528  0.00  0.00     0.100 A 
ATOM     26  C   UNL d   1      55.230  33.528  56.123  0.00  0.00     0.100 C 
ATOM     27  C   UNL d   1      53.588  34.140  54.863  0.00  0.00     0.100 A 
ENDBRANCH  20  21
ENDBRANCH   4  20
TORSDOF 4
ENDMDL
