MODEL 1
REMARK VINA RESULT:       6.7      0.000      0.000
REMARK  1 active torsions:
REMARK  status: ('A' for Active; 'I' for Inactive)
REMARK    1  A    between atoms: C_5  and  C_1 
ROOT
ATOM      1  C   UNL d   1      57.540  49.701  50.449  0.00  0.00     0.169 A 
ATOM      2  N   UNL d   1      56.862  49.704  50.920  0.00  0.00    -0.142 NA
ATOM      3  C   UNL d   1      57.303  49.696  49.656  0.00  0.00     0.048 A 
ATOM      4  N   UNL d   1      56.214  49.702  50.412  0.00  0.00    -0.148 NA
ATOM      5  C   UNL d   1      56.497  49.697  49.636  0.00  0.00     0.105 A 
ATOM      6  C   UNL d   1      56.034  49.693  48.952  0.00  0.00     0.023 C 
ENDROOT
BRANCH   1   7
ATOM      7  C   UNL d   1      58.315  49.702  50.725  0.00  0.00     0.231 C 
ATOM      8  O   UNL d   1      58.945  49.700  50.195  0.00  0.00    -0.643 OA
ATOM      9  O   UNL d   1      58.460  49.706  51.537  0.00  0.00    -0.643 OA
ENDBRANCH   1   7
TORSDOF 1
ENDMDL
MODEL 2
REMARK VINA RESULT:       8.2      2.579      3.232
REMARK  1 active torsions:
REMARK  status: ('A' for Active; 'I' for Inactive)
REMARK    1  A    between atoms: C_5  and  C_1 
ROOT
ATOM      1  C   UNL d   1      60.529  49.676  51.151  0.00  0.00     0.169 A 
ATOM      2  N   UNL d   1      60.656  49.631  50.336  0.00  0.00    -0.142 NA
ATOM      3  C   UNL d   1      59.713  49.703  51.284  0.00  0.00     0.048 A 
ATOM      4  N   UNL d   1      59.916  49.630  49.976  0.00  0.00    -0.148 NA
ATOM      5  C   UNL d   1      59.342  49.675  50.569  0.00  0.00     0.105 A 
ATOM      6  C   UNL d   1      58.524  49.688  50.451  0.00  0.00     0.023 C 
ENDROOT
BRANCH   1   7
ATOM      7  C   UNL d   1      61.117  49.692  51.726  0.00  0.00     0.231 C 
ATOM      8  O   UNL d   1      60.916  49.698  52.525  0.00  0.00    -0.643 OA
ATOM      9  O   UNL d   1      61.910  49.702  51.502  0.00  0.00    -0.643 OA
ENDBRANCH   1   7
TORSDOF 1
ENDMDL
MODEL 3
REMARK VINA RESULT:       8.6      2.144      3.289
REMARK  1 active torsions:
REMARK  status: ('A' for Active; 'I' for Inactive)
REMARK    1  A    between atoms: C_5  and  C_1 
ROOT
ATOM      1  C   UNL d   1      59.262  49.691  50.713  0.00  0.00     0.169 A 
ATOM      2  N   UNL d   1      59.839  49.703  50.123  0.00  0.00    -0.142 NA
ATOM      3  C   UNL d   1      59.644  49.686  51.447  0.00  0.00     0.048 A 
ATOM      4  N   UNL d   1      60.571  49.704  50.500  0.00  0.00    -0.148 NA
ATOM      5  C   UNL d   1      60.440  49.694  51.315  0.00  0.00     0.105 A 
ATOM      6  C   UNL d   1      61.023  49.691  51.900  0.00  0.00     0.023 C 
ENDROOT
BRANCH   1   7
ATOM      7  C   UNL d   1      58.449  49.687  50.587  0.00  0.00     0.231 C 
ATOM      8  O   UNL d   1      57.930  49.703  51.226  0.00  0.00    -0.643 OA
ATOM      9  O   UNL d   1      58.154  49.665  49.818  0.00  0.00    -0.643 OA
ENDBRANCH   1   7
TORSDOF 1
ENDMDL
