MODEL 1
REMARK VINA RESULT:      55.4      0.000      0.000
REMARK  5 active torsions:
REMARK  status: ('A' for Active; 'I' for Inactive)
REMARK    1  A    between atoms: C_2  and  C_1 
REMARK       I    between atoms: N_3  and  C_1 
REMARK    2  A    between atoms: C_8  and  N_3 
REMARK    3  A    between atoms: N_4  and  C_9 
REMARK    4  A    between atoms: N_5  and  N_4 
REMARK    5  A    between atoms: C_10  and  N_5 
ROOT
ATOM      1  C   UNL d   1     -50.368  26.634  33.917  0.00  0.00     0.085 A 
ATOM      2  C   UNL d   1     -49.369  27.929  34.164  0.00  0.00     0.103 A 
ATOM      3  C   UNL d   1     -49.997  26.741  34.647  0.00  0.00     0.021 A 
ATOM      4  C   UNL d   1     -50.236  27.179  33.312  0.00  0.00     0.021 A 
ATOM      5  C   UNL d   1     -49.740  27.822  33.433  0.00  0.00     0.022 A 
ATOM      6  C   UNL d   1     -49.495  27.389  34.774  0.00  0.00     0.022 A 
ENDROOT
BRANCH   1   7
ATOM      7  N   UNL d   1     -50.868  25.987  33.793  0.00  0.00    -0.208 NA
ATOM      8  C   UNL d   1     -50.551  25.226  33.726  0.00  0.00     0.280 C 
ATOM      9  O   UNL d   1     -49.753  25.006  33.768  0.00  0.00    -0.265 OA
BRANCH   8  10
ATOM     10  C   UNL d   1     -51.201  24.739  33.608  0.00  0.00     0.069 A 
ATOM     11  C   UNL d   1     -51.085  23.941  33.445  0.00  0.00     0.062 A 
ATOM     12 CL   UNL d   1     -50.327  23.629  33.398  0.00  0.00    -0.082 Cl
ATOM     13  C   UNL d   1     -51.742  23.448  33.326  0.00  0.00     0.012 A 
ATOM     14  C   UNL d   1     -52.507  23.763  33.373  0.00  0.00     0.001 A 
ATOM     15  C   UNL d   1     -52.607  24.564  33.538  0.00  0.00     0.000 A 
ATOM     16  C   UNL d   1     -51.958  25.047  33.655  0.00  0.00     0.006 A 
ENDBRANCH   8  10
ENDBRANCH   1   7
BRANCH   2  17
ATOM     17  N   UNL d   1     -48.871  28.576  34.284  0.00  0.00    -0.148 NA
BRANCH  17  18
ATOM     18  N   UNL d   1     -48.201  28.497  34.758  0.00  0.00    -0.148 NA
BRANCH  18  19
ATOM     19  C   UNL d   1     -47.860  29.166  35.108  0.00  0.00     0.103 A 
ATOM     20  C   UNL d   1     -48.282  29.870  35.157  0.00  0.00     0.021 A 
ATOM     21  C   UNL d   1     -47.944  30.532  35.503  0.00  0.00     0.002 A 
ATOM     22  C   UNL d   1     -47.175  30.492  35.804  0.00  0.00     0.000 A 
ATOM     23  C   UNL d   1     -46.745  29.791  35.759  0.00  0.00     0.002 A 
ATOM     24  C   UNL d   1     -47.091  29.126  35.409  0.00  0.00     0.021 A 
ENDBRANCH  18  19
ENDBRANCH  17  18
ENDBRANCH   2  17
TORSDOF 5
ENDMDL
MODEL 2
REMARK VINA RESULT:      56.9      1.611      5.762
REMARK  5 active torsions:
REMARK  status: ('A' for Active; 'I' for Inactive)
REMARK    1  A    between atoms: C_2  and  C_1 
REMARK       I    between atoms: N_3  and  C_1 
REMARK    2  A    between atoms: C_8  and  N_3 
REMARK    3  A    between atoms: N_4  and  C_9 
REMARK    4  A    between atoms: N_5  and  N_4 
REMARK    5  A    between atoms: C_10  and  N_5 
ROOT
ATOM      1  C   UNL d   1     -49.445  27.797  34.019  0.00  0.00     0.085 A 
ATOM      2  C   UNL d   1     -50.379  26.509  33.565  0.00  0.00     0.103 A 
ATOM      3  C   UNL d   1     -49.259  27.035  34.278  0.00  0.00     0.021 A 
ATOM      4  C   UNL d   1     -50.101  27.910  33.533  0.00  0.00     0.021 A 
ATOM      5  C   UNL d   1     -50.566  27.272  33.307  0.00  0.00     0.022 A 
ATOM      6  C   UNL d   1     -49.725  26.387  34.052  0.00  0.00     0.022 A 
ENDROOT
BRANCH   1   7
ATOM      7  N   UNL d   1     -48.978  28.441  34.246  0.00  0.00    -0.208 NA
ATOM      8  C   UNL d   1     -48.649  28.468  35.005  0.00  0.00     0.280 C 
ATOM      9  O   UNL d   1     -48.727  27.905  35.608  0.00  0.00    -0.265 OA
BRANCH   8  10
ATOM     10  C   UNL d   1     -48.232  29.174  35.025  0.00  0.00     0.069 A 
ATOM     11  C   UNL d   1     -47.779  29.357  35.688  0.00  0.00     0.062 A 
ATOM     12 CL   UNL d   1     -47.744  28.841  36.326  0.00  0.00    -0.082 Cl
ATOM     13  C   UNL d   1     -47.356  30.071  35.711  0.00  0.00     0.012 A 
ATOM     14  C   UNL d   1     -47.393  30.591  35.067  0.00  0.00     0.001 A 
ATOM     15  C   UNL d   1     -47.851  30.393  34.410  0.00  0.00     0.000 A 
ATOM     16  C   UNL d   1     -48.266  29.690  34.391  0.00  0.00     0.006 A 
ENDBRANCH   8  10
ENDBRANCH   1   7
BRANCH   2  17
ATOM     17  N   UNL d   1     -50.847  25.870  33.337  0.00  0.00    -0.148 NA
BRANCH  17  18
ATOM     18  N   UNL d   1     -51.255  25.435  33.907  0.00  0.00    -0.148 NA
BRANCH  18  19
ATOM     19  C   UNL d   1     -51.601  24.709  33.705  0.00  0.00     0.103 A 
ATOM     20  C   UNL d   1     -51.130  24.048  33.573  0.00  0.00     0.021 A 
ATOM     21  C   UNL d   1     -51.473  23.330  33.373  0.00  0.00     0.002 A 
ATOM     22  C   UNL d   1     -52.295  23.270  33.306  0.00  0.00     0.000 A 
ATOM     23  C   UNL d   1     -52.773  23.928  33.437  0.00  0.00     0.002 A 
ATOM     24  C   UNL d   1     -52.423  24.649  33.637  0.00  0.00     0.021 A 
ENDBRANCH  18  19
ENDBRANCH  17  18
ENDBRANCH   2  17
TORSDOF 5
ENDMDL
