MODEL 1
REMARK VINA RESULT:      46.8      0.000      0.000
REMARK  3 active torsions:
REMARK  status: ('A' for Active; 'I' for Inactive)
REMARK       I    between atoms: C_6  and  N_9 
REMARK    1  A    between atoms: C_7  and  C_6 
REMARK    2  A    between atoms: N_9  and  C_17 
REMARK    3  A    between atoms: C_17  and  C_16 
ROOT
ATOM      1  N   UNL d   1     -52.124  24.651  33.308  0.00  0.00    -0.304 N 
ATOM      2  C   UNL d   1     -51.692  23.952  33.308  0.00  0.00     0.064 A 
ATOM      3  C   UNL d   1     -51.595  25.281  33.307  0.00  0.00     0.064 A 
ATOM      4  C   UNL d   1     -50.834  24.965  33.307  0.00  0.00     0.018 A 
ATOM      5  C   UNL d   1     -50.895  24.150  33.308  0.00  0.00     0.019 A 
ATOM      6  C   UNL d   1     -51.711  26.095  33.306  0.00  0.00     0.018 A 
ATOM      7  C   UNL d   1     -50.175  25.475  33.307  0.00  0.00     0.003 A 
ATOM      8  C   UNL d   1     -50.290  26.293  33.306  0.00  0.00     0.019 A 
ATOM      9  C   UNL d   1     -51.061  26.604  33.306  0.00  0.00     0.003 A 
ATOM     10  C   UNL d   1     -52.946  24.714  33.308  0.00  0.00     0.099 C 
ATOM     11  C   UNL d   1     -52.000  23.188  33.309  0.00  0.00     0.019 C 
ENDROOT
BRANCH   8  12
ATOM     12  C   UNL d   1     -49.641  26.799  33.306  0.00  0.00     0.102 C 
BRANCH  12  13
ATOM     13  N   UNL d   1     -49.515  27.312  33.927  0.00  0.00    -0.206 NA
ATOM     14  C   UNL d   1     -48.758  27.538  34.140  0.00  0.00     0.285 C 
ATOM     15  O   UNL d   1     -48.112  27.244  33.721  0.00  0.00    -0.265 OA
BRANCH  14  16
ATOM     16  C   UNL d   1     -48.630  28.058  34.768  0.00  0.00     0.087 A 
ATOM     17  S   UNL d   1     -48.082  28.675  34.792  0.00  0.00    -0.082 SA
ATOM     18  C   UNL d   1     -48.149  29.042  35.524  0.00  0.00     0.036 A 
ATOM     19  C   UNL d   1     -48.738  28.659  35.964  0.00  0.00     0.008 A 
ATOM     20  C   UNL d   1     -49.033  28.050  35.491  0.00  0.00     0.012 A 
ENDBRANCH  14  16
ENDBRANCH  12  13
ENDBRANCH   8  12
TORSDOF 3
ENDMDL
