MODEL 1
REMARK VINA RESULT:      -7.3      0.000      0.000
REMARK  5 active torsions:
REMARK  status: ('A' for Active; 'I' for Inactive)
REMARK    1  A    between atoms: O_8  and  S_1 
REMARK    2  A    between atoms: C_13  and  S_1 
REMARK    3  A    between atoms: C_7  and  C_2 
REMARK    4  A    between atoms: C_18  and  C_7 
REMARK    5  A    between atoms: C_14  and  O_8 
ROOT
ATOM      1  C   UNL d   1     -49.602  12.962  22.713  0.00  0.00     0.139 A 
ATOM      2  C   UNL d   1     -48.589  12.115  22.874  0.00  0.00     0.064 A 
ATOM      3  C   UNL d   1     -49.371  12.174  22.627  0.00  0.00     0.220 A 
ATOM      4  C   UNL d   1     -48.332  12.861  23.113  0.00  0.00     0.105 A 
ATOM      5  O   UNL d   1     -48.961  13.387  23.013  0.00  0.00    -0.304 OA
ATOM      6  C   UNL d   1     -47.570  12.957  23.385  0.00  0.00     0.050 A 
ATOM      7  C   UNL d   1     -48.077  11.471  22.911  0.00  0.00     0.007 A 
ATOM      8  C   UNL d   1     -47.058  12.314  23.422  0.00  0.00     0.116 A 
ATOM      9  O   UNL d   1     -49.847  11.564  22.343  0.00  0.00    -0.284 OA
ATOM     10  C   UNL d   1     -47.313  11.574  23.185  0.00  0.00     0.026 A 
ENDROOT
BRANCH   8  11
ATOM     11  O   UNL d   1     -46.289  12.416  23.698  0.00  0.00    -0.227 OA
BRANCH  11  12
ATOM     12  S   UNL d   1     -45.665  12.487  23.164  0.00  0.00     0.304 S 
ATOM     13  O   UNL d   1     -45.856  13.264  23.024  0.00  0.00    -0.193 OA
ATOM     14  O   UNL d   1     -45.464  11.710  23.295  0.00  0.00    -0.193 OA
BRANCH  12  15
ATOM     15  C   UNL d   1     -45.038  12.553  22.630  0.00  0.00     0.111 A 
ATOM     16  C   UNL d   1     -44.440  11.977  22.616  0.00  0.00     0.013 A 
ATOM     17  C   UNL d   1     -43.814  12.042  22.083  0.00  0.00     0.001 A 
ATOM     18  C   UNL d   1     -43.780  12.685  21.558  0.00  0.00     0.000 A 
ATOM     19  C   UNL d   1     -44.380  13.257  21.576  0.00  0.00     0.001 A 
ATOM     20  C   UNL d   1     -45.004  13.188  22.111  0.00  0.00     0.013 A 
ENDBRANCH  12  15
ENDBRANCH  11  12
ENDBRANCH   8  11
BRANCH   1  21
ATOM     21  C   UNL d   1     -50.343  13.276  22.532  0.00  0.00     0.029 C 
BRANCH  21  22
ATOM     22  C   UNL d   1     -50.517  14.068  22.700  0.00  0.00     0.021 A 
ATOM     23  C   UNL d   1     -50.318  14.645  22.153  0.00  0.00     0.099 A 
ATOM     24  N   UNL d   1     -50.484  15.433  22.306  0.00  0.00    -0.242 NA
ATOM     25  C   UNL d   1     -50.858  15.646  23.020  0.00  0.00     0.099 A 
ATOM     26  C   UNL d   1     -51.058  15.060  23.569  0.00  0.00     0.021 A 
ATOM     27  C   UNL d   1     -50.883  14.269  23.401  0.00  0.00     0.003 A 
ENDBRANCH  21  22
ENDBRANCH   1  21
TORSDOF 5
ENDMDL
MODEL 2
REMARK VINA RESULT:      -6.3      8.429      9.923
REMARK  5 active torsions:
REMARK  status: ('A' for Active; 'I' for Inactive)
REMARK    1  A    between atoms: O_8  and  S_1 
REMARK    2  A    between atoms: C_13  and  S_1 
REMARK    3  A    between atoms: C_7  and  C_2 
REMARK    4  A    between atoms: C_18  and  C_7 
REMARK    5  A    between atoms: C_14  and  O_8 
ROOT
ATOM      1  C   UNL d   1     -39.918  14.591  17.834  0.00  0.00     0.139 A 
ATOM      2  C   UNL d   1     -40.383  14.595  19.079  0.00  0.00     0.064 A 
ATOM      3  C   UNL d   1     -40.569  14.400  18.303  0.00  0.00     0.220 A 
ATOM      4  C   UNL d   1     -39.619  14.907  19.096  0.00  0.00     0.105 A 
ATOM      5  O   UNL d   1     -39.331  14.904  18.322  0.00  0.00    -0.304 OA
ATOM      6  C   UNL d   1     -39.297  15.147  19.805  0.00  0.00     0.050 A 
ATOM      7  C   UNL d   1     -40.816  14.528  19.777  0.00  0.00     0.007 A 
ATOM      8  C   UNL d   1     -39.730  15.080  20.502  0.00  0.00     0.116 A 
ATOM      9  O   UNL d   1     -41.275  14.072  18.032  0.00  0.00    -0.284 OA
ATOM     10  C   UNL d   1     -40.486  14.771  20.486  0.00  0.00     0.026 A 
ENDROOT
BRANCH   8  11
ATOM     11  O   UNL d   1     -39.400  15.323  21.215  0.00  0.00    -0.227 OA
BRANCH  11  12
ATOM     12  S   UNL d   1     -39.075  14.768  21.732  0.00  0.00     0.304 S 
ATOM     13  O   UNL d   1     -38.353  14.831  21.365  0.00  0.00    -0.193 OA
ATOM     14  O   UNL d   1     -39.793  14.696  22.106  0.00  0.00    -0.193 OA
BRANCH  12  15
ATOM     15  C   UNL d   1     -38.754  14.211  22.251  0.00  0.00     0.111 A 
ATOM     16  C   UNL d   1     -38.930  14.250  23.062  0.00  0.00     0.013 A 
ATOM     17  C   UNL d   1     -38.610  13.695  23.581  0.00  0.00     0.001 A 
ATOM     18  C   UNL d   1     -38.111  13.095  23.294  0.00  0.00     0.000 A 
ATOM     19  C   UNL d   1     -37.940  13.062  22.484  0.00  0.00     0.001 A 
ATOM     20  C   UNL d   1     -38.261  13.619  21.968  0.00  0.00     0.013 A 
ENDBRANCH  12  15
ENDBRANCH  11  12
ENDBRANCH   8  11
BRANCH   1  21
ATOM     21  C   UNL d   1     -39.858  14.489  17.017  0.00  0.00     0.029 C 
BRANCH  21  22
ATOM     22  C   UNL d   1     -39.223  14.815  16.597  0.00  0.00     0.021 A 
ATOM     23  C   UNL d   1     -38.575  14.345  16.424  0.00  0.00     0.099 A 
ATOM     24  N   UNL d   1     -37.940  14.655  16.009  0.00  0.00    -0.242 NA
ATOM     25  C   UNL d   1     -37.954  15.451  15.763  0.00  0.00     0.099 A 
ATOM     26  C   UNL d   1     -38.611  15.922  15.941  0.00  0.00     0.021 A 
ATOM     27  C   UNL d   1     -39.244  15.596  16.360  0.00  0.00     0.003 A 
ENDBRANCH  21  22
ENDBRANCH   1  21
TORSDOF 5
ENDMDL
MODEL 3
REMARK VINA RESULT:      -5.9      8.096      9.909
REMARK  5 active torsions:
REMARK  status: ('A' for Active; 'I' for Inactive)
REMARK    1  A    between atoms: O_8  and  S_1 
REMARK    2  A    between atoms: C_13  and  S_1 
REMARK    3  A    between atoms: C_7  and  C_2 
REMARK    4  A    between atoms: C_18  and  C_7 
REMARK    5  A    between atoms: C_14  and  O_8 
ROOT
ATOM      1  C   UNL d   1     -40.128  14.726  21.002  0.00  0.00     0.139 A 
ATOM      2  C   UNL d   1     -40.521  14.675  19.732  0.00  0.00     0.064 A 
ATOM      3  C   UNL d   1     -40.728  14.464  20.499  0.00  0.00     0.220 A 
ATOM      4  C   UNL d   1     -39.796  15.068  19.755  0.00  0.00     0.105 A 
ATOM      5  O   UNL d   1     -39.553  15.099  20.543  0.00  0.00    -0.304 OA
ATOM      6  C   UNL d   1     -39.462  15.339  19.062  0.00  0.00     0.050 A 
ATOM      7  C   UNL d   1     -40.905  14.559  19.013  0.00  0.00     0.007 A 
ATOM      8  C   UNL d   1     -39.845  15.222  18.343  0.00  0.00     0.116 A 
ATOM      9  O   UNL d   1     -41.409  14.062  20.734  0.00  0.00    -0.284 OA
ATOM     10  C   UNL d   1     -40.564  14.834  18.321  0.00  0.00     0.026 A 
ENDROOT
BRANCH   8  11
ATOM     11  O   UNL d   1     -39.505  15.498  17.647  0.00  0.00    -0.227 OA
BRANCH  11  12
ATOM     12  S   UNL d   1     -39.113  14.975  17.143  0.00  0.00     0.304 S 
ATOM     13  O   UNL d   1     -38.426  15.059  17.569  0.00  0.00    -0.193 OA
ATOM     14  O   UNL d   1     -39.794  14.882  16.709  0.00  0.00    -0.193 OA
BRANCH  12  15
ATOM     15  C   UNL d   1     -38.724  14.450  16.637  0.00  0.00     0.111 A 
ATOM     16  C   UNL d   1     -38.733  14.582  15.816  0.00  0.00     0.013 A 
ATOM     17  C   UNL d   1     -38.345  14.059  15.310  0.00  0.00     0.001 A 
ATOM     18  C   UNL d   1     -37.945  13.399  15.618  0.00  0.00     0.000 A 
ATOM     19  C   UNL d   1     -37.941  13.273  16.438  0.00  0.00     0.001 A 
ATOM     20  C   UNL d   1     -38.329  13.799  16.942  0.00  0.00     0.013 A 
ENDBRANCH  12  15
ENDBRANCH  11  12
ENDBRANCH   8  11
BRANCH   1  21
ATOM     21  C   UNL d   1     -40.104  14.634  21.821  0.00  0.00     0.029 C 
BRANCH  21  22
ATOM     22  C   UNL d   1     -39.383  14.515  22.210  0.00  0.00     0.021 A 
ATOM     23  C   UNL d   1     -39.079  13.755  22.265  0.00  0.00     0.099 A 
ATOM     24  N   UNL d   1     -38.366  13.623  22.647  0.00  0.00    -0.242 NA
ATOM     25  C   UNL d   1     -37.949  14.264  22.981  0.00  0.00     0.099 A 
ATOM     26  C   UNL d   1     -38.260  15.028  22.922  0.00  0.00     0.021 A 
ATOM     27  C   UNL d   1     -38.980  15.147  22.534  0.00  0.00     0.003 A 
ENDBRANCH  21  22
ENDBRANCH   1  21
TORSDOF 5
ENDMDL
MODEL 4
REMARK VINA RESULT:      -4.9      2.080      5.403
REMARK  5 active torsions:
REMARK  status: ('A' for Active; 'I' for Inactive)
REMARK    1  A    between atoms: O_8  and  S_1 
REMARK    2  A    between atoms: C_13  and  S_1 
REMARK    3  A    between atoms: C_7  and  C_2 
REMARK    4  A    between atoms: C_18  and  C_7 
REMARK    5  A    between atoms: C_14  and  O_8 
ROOT
ATOM      1  C   UNL d   1     -44.795  12.438  22.416  0.00  0.00     0.139 A 
ATOM      2  C   UNL d   1     -45.946  12.700  23.029  0.00  0.00     0.064 A 
ATOM      3  C   UNL d   1     -45.328  12.160  22.982  0.00  0.00     0.220 A 
ATOM      4  C   UNL d   1     -45.801  13.313  22.495  0.00  0.00     0.105 A 
ATOM      5  O   UNL d   1     -45.086  13.149  22.115  0.00  0.00    -0.304 OA
ATOM      6  C   UNL d   1     -46.333  13.927  22.431  0.00  0.00     0.050 A 
ATOM      7  C   UNL d   1     -46.626  12.711  23.494  0.00  0.00     0.007 A 
ATOM      8  C   UNL d   1     -47.012  13.938  22.895  0.00  0.00     0.116 A 
ATOM      9  O   UNL d   1     -45.246  11.464  23.417  0.00  0.00    -0.284 OA
ATOM     10  C   UNL d   1     -47.156  13.332  23.424  0.00  0.00     0.026 A 
ENDROOT
BRANCH   8  11
ATOM     11  O   UNL d   1     -47.546  14.560  22.827  0.00  0.00    -0.227 OA
BRANCH  11  12
ATOM     12  S   UNL d   1     -48.311  14.419  22.552  0.00  0.00     0.304 S 
ATOM     13  O   UNL d   1     -48.063  14.493  21.782  0.00  0.00    -0.193 OA
ATOM     14  O   UNL d   1     -48.573  14.343  23.318  0.00  0.00    -0.193 OA
BRANCH  12  15
ATOM     15  C   UNL d   1     -49.079  14.278  22.281  0.00  0.00     0.111 A 
ATOM     16  C   UNL d   1     -49.211  13.727  21.673  0.00  0.00     0.013 A 
ATOM     17  C   UNL d   1     -49.977  13.585  21.402  0.00  0.00     0.001 A 
ATOM     18  C   UNL d   1     -50.619  13.993  21.737  0.00  0.00     0.000 A 
ATOM     19  C   UNL d   1     -50.481  14.541  22.343  0.00  0.00     0.001 A 
ATOM     20  C   UNL d   1     -49.713  14.681  22.611  0.00  0.00     0.013 A 
ENDBRANCH  12  15
ENDBRANCH  11  12
ENDBRANCH   8  11
BRANCH   1  21
ATOM     21  C   UNL d   1     -44.093  12.071  22.186  0.00  0.00     0.029 C 
BRANCH  21  22
ATOM     22  C   UNL d   1     -43.537  12.477  21.726  0.00  0.00     0.021 A 
ATOM     23  C   UNL d   1     -43.665  12.555  20.921  0.00  0.00     0.099 A 
ATOM     24  N   UNL d   1     -43.123  12.955  20.453  0.00  0.00    -0.242 NA
ATOM     25  C   UNL d   1     -42.439  13.282  20.800  0.00  0.00     0.099 A 
ATOM     26  C   UNL d   1     -42.314  13.201  21.613  0.00  0.00     0.021 A 
ATOM     27  C   UNL d   1     -42.870  12.795  22.072  0.00  0.00     0.003 A 
ENDBRANCH  21  22
ENDBRANCH   1  21
TORSDOF 5
ENDMDL
MODEL 5
REMARK VINA RESULT:      -4.9      1.831      4.939
REMARK  5 active torsions:
REMARK  status: ('A' for Active; 'I' for Inactive)
REMARK    1  A    between atoms: O_8  and  S_1 
REMARK    2  A    between atoms: C_13  and  S_1 
REMARK    3  A    between atoms: C_7  and  C_2 
REMARK    4  A    between atoms: C_18  and  C_7 
REMARK    5  A    between atoms: C_14  and  O_8 
ROOT
ATOM      1  C   UNL d   1     -46.383  12.007  23.574  0.00  0.00     0.139 A 
ATOM      2  C   UNL d   1     -47.618  11.511  23.570  0.00  0.00     0.064 A 
ATOM      3  C   UNL d   1     -46.822  11.308  23.537  0.00  0.00     0.220 A 
ATOM      4  C   UNL d   1     -47.677  12.332  23.627  0.00  0.00     0.105 A 
ATOM      5  O   UNL d   1     -46.911  12.639  23.629  0.00  0.00    -0.304 OA
ATOM      6  C   UNL d   1     -48.412  12.682  23.668  0.00  0.00     0.050 A 
ATOM      7  C   UNL d   1     -48.299  11.049  23.556  0.00  0.00     0.007 A 
ATOM      8  C   UNL d   1     -49.093  12.219  23.654  0.00  0.00     0.116 A 
ATOM      9  O   UNL d   1     -46.508  10.548  23.479  0.00  0.00    -0.284 OA
ATOM     10  C   UNL d   1     -49.034  11.406  23.598  0.00  0.00     0.026 A 
ENDROOT
BRANCH   8  11
ATOM     11  O   UNL d   1     -49.833  12.577  23.695  0.00  0.00    -0.227 OA
BRANCH  11  12
ATOM     12  S   UNL d   1     -50.141  12.968  23.037  0.00  0.00     0.304 S 
ATOM     13  O   UNL d   1     -50.344  12.259  22.696  0.00  0.00    -0.193 OA
ATOM     14  O   UNL d   1     -49.943  13.683  23.369  0.00  0.00    -0.193 OA
BRANCH  12  15
ATOM     15  C   UNL d   1     -50.448  13.363  22.380  0.00  0.00     0.111 A 
ATOM     16  C   UNL d   1     -50.482  14.193  22.374  0.00  0.00     0.013 A 
ATOM     17  C   UNL d   1     -50.789  14.589  21.718  0.00  0.00     0.001 A 
ATOM     18  C   UNL d   1     -51.064  14.159  21.063  0.00  0.00     0.000 A 
ATOM     19  C   UNL d   1     -51.028  13.330  21.076  0.00  0.00     0.001 A 
ATOM     20  C   UNL d   1     -50.720  12.938  21.733  0.00  0.00     0.013 A 
ENDBRANCH  12  15
ENDBRANCH  11  12
ENDBRANCH   8  11
BRANCH   1  21
ATOM     21  C   UNL d   1     -45.561  12.067  23.558  0.00  0.00     0.029 C 
BRANCH  21  22
ATOM     22  C   UNL d   1     -45.176  12.404  22.906  0.00  0.00     0.021 A 
ATOM     23  C   UNL d   1     -44.542  12.008  22.569  0.00  0.00     0.099 A 
ATOM     24  N   UNL d   1     -44.152  12.329  21.923  0.00  0.00    -0.242 NA
ATOM     25  C   UNL d   1     -44.402  13.061  21.610  0.00  0.00     0.099 A 
ATOM     26  C   UNL d   1     -45.042  13.456  21.955  0.00  0.00     0.021 A 
ATOM     27  C   UNL d   1     -45.426  13.120  22.605  0.00  0.00     0.003 A 
ENDBRANCH  21  22
ENDBRANCH   1  21
TORSDOF 5
ENDMDL
MODEL 6
REMARK VINA RESULT:      -4.9      1.412      2.080
REMARK  5 active torsions:
REMARK  status: ('A' for Active; 'I' for Inactive)
REMARK    1  A    between atoms: O_8  and  S_1 
REMARK    2  A    between atoms: C_13  and  S_1 
REMARK    3  A    between atoms: C_7  and  C_2 
REMARK    4  A    between atoms: C_18  and  C_7 
REMARK    5  A    between atoms: C_14  and  O_8 
ROOT
ATOM      1  C   UNL d   1     -49.082  13.803  22.337  0.00  0.00     0.139 A 
ATOM      2  C   UNL d   1     -47.932  14.461  22.454  0.00  0.00     0.064 A 
ATOM      3  C   UNL d   1     -48.712  14.529  22.204  0.00  0.00     0.220 A 
ATOM      4  C   UNL d   1     -47.814  13.696  22.741  0.00  0.00     0.105 A 
ATOM      5  O   UNL d   1     -48.529  13.289  22.669  0.00  0.00    -0.304 OA
ATOM      6  C   UNL d   1     -47.082  13.481  23.026  0.00  0.00     0.050 A 
ATOM      7  C   UNL d   1     -47.311  15.002  22.455  0.00  0.00     0.007 A 
ATOM      8  C   UNL d   1     -46.461  14.022  23.028  0.00  0.00     0.116 A 
ATOM      9  O   UNL d   1     -49.070  15.197  21.879  0.00  0.00    -0.284 OA
ATOM     10  C   UNL d   1     -46.578  14.778  22.743  0.00  0.00     0.026 A 
ENDROOT
BRANCH   8  11
ATOM     11  O   UNL d   1     -45.723  13.799  23.316  0.00  0.00    -0.227 OA
BRANCH  11  12
ATOM     12  S   UNL d   1     -45.181  13.426  22.819  0.00  0.00     0.304 S 
ATOM     13  O   UNL d   1     -44.946  14.141  22.516  0.00  0.00    -0.193 OA
ATOM     14  O   UNL d   1     -45.408  12.703  23.115  0.00  0.00    -0.193 OA
BRANCH  12  15
ATOM     15  C   UNL d   1     -44.639  13.047  22.323  0.00  0.00     0.111 A 
ATOM     16  C   UNL d   1     -44.429  13.392  21.597  0.00  0.00     0.013 A 
ATOM     17  C   UNL d   1     -43.888  13.015  21.101  0.00  0.00     0.001 A 
ATOM     18  C   UNL d   1     -43.552  12.289  21.327  0.00  0.00     0.000 A 
ATOM     19  C   UNL d   1     -43.766  11.950  22.053  0.00  0.00     0.001 A 
ATOM     20  C   UNL d   1     -44.308  12.330  22.546  0.00  0.00     0.013 A 
ENDBRANCH  12  15
ENDBRANCH  11  12
ENDBRANCH   8  11
BRANCH   1  21
ATOM     21  C   UNL d   1     -49.869  13.619  22.170  0.00  0.00     0.029 C 
BRANCH  21  22
ATOM     22  C   UNL d   1     -50.261  13.025  22.593  0.00  0.00     0.021 A 
ATOM     23  C   UNL d   1     -50.233  12.253  22.319  0.00  0.00     0.099 A 
ATOM     24  N   UNL d   1     -50.617  11.656  22.728  0.00  0.00    -0.242 NA
ATOM     25  C   UNL d   1     -51.038  11.836  23.425  0.00  0.00     0.099 A 
ATOM     26  C   UNL d   1     -51.064  12.616  23.698  0.00  0.00     0.021 A 
ATOM     27  C   UNL d   1     -50.671  13.209  23.274  0.00  0.00     0.003 A 
ENDBRANCH  21  22
ENDBRANCH   1  21
TORSDOF 5
ENDMDL
MODEL 7
REMARK VINA RESULT:      -4.3      1.376      1.928
REMARK  5 active torsions:
REMARK  status: ('A' for Active; 'I' for Inactive)
REMARK    1  A    between atoms: O_8  and  S_1 
REMARK    2  A    between atoms: C_13  and  S_1 
REMARK    3  A    between atoms: C_7  and  C_2 
REMARK    4  A    between atoms: C_18  and  C_7 
REMARK    5  A    between atoms: C_14  and  O_8 
ROOT
ATOM      1  C   UNL d   1     -48.687  12.741  21.936  0.00  0.00     0.139 A 
ATOM      2  C   UNL d   1     -47.385  12.935  21.748  0.00  0.00     0.064 A 
ATOM      3  C   UNL d   1     -48.121  12.987  21.387  0.00  0.00     0.220 A 
ATOM      4  C   UNL d   1     -47.489  12.657  22.518  0.00  0.00     0.105 A 
ATOM      5  O   UNL d   1     -48.298  12.537  22.633  0.00  0.00    -0.304 OA
ATOM      6  C   UNL d   1     -46.840  12.553  23.001  0.00  0.00     0.050 A 
ATOM      7  C   UNL d   1     -46.629  13.106  21.470  0.00  0.00     0.007 A 
ATOM      8  C   UNL d   1     -46.084  12.724  22.723  0.00  0.00     0.116 A 
ATOM      9  O   UNL d   1     -48.278  13.239  20.618  0.00  0.00    -0.284 OA
ATOM     10  C   UNL d   1     -45.981  12.999  21.961  0.00  0.00     0.026 A 
ENDROOT
BRANCH   8  11
ATOM     11  O   UNL d   1     -45.433  12.618  23.214  0.00  0.00    -0.227 OA
BRANCH  11  12
ATOM     12  S   UNL d   1     -45.056  11.885  23.248  0.00  0.00     0.304 S 
ATOM     13  O   UNL d   1     -44.417  12.180  22.845  0.00  0.00    -0.193 OA
ATOM     14  O   UNL d   1     -45.691  11.578  23.653  0.00  0.00    -0.193 OA
BRANCH  12  15
ATOM     15  C   UNL d   1     -44.684  11.148  23.285  0.00  0.00     0.111 A 
ATOM     16  C   UNL d   1     -43.934  11.045  22.942  0.00  0.00     0.013 A 
ATOM     17  C   UNL d   1     -43.560  10.310  22.978  0.00  0.00     0.001 A 
ATOM     18  C   UNL d   1     -43.933   9.672  23.357  0.00  0.00     0.000 A 
ATOM     19  C   UNL d   1     -44.682   9.781  23.697  0.00  0.00     0.001 A 
ATOM     20  C   UNL d   1     -45.052  10.518  23.659  0.00  0.00     0.013 A 
ENDBRANCH  12  15
ENDBRANCH  11  12
ENDBRANCH   8  11
BRANCH   1  21
ATOM     21  C   UNL d   1     -49.502  12.703  21.812  0.00  0.00     0.029 C 
BRANCH  21  22
ATOM     22  C   UNL d   1     -50.023  13.104  22.315  0.00  0.00     0.021 A 
ATOM     23  C   UNL d   1     -50.538  13.658  21.998  0.00  0.00     0.099 A 
ATOM     24  N   UNL d   1     -51.059  14.062  22.485  0.00  0.00    -0.242 NA
ATOM     25  C   UNL d   1     -51.064  13.910  23.305  0.00  0.00     0.099 A 
ATOM     26  C   UNL d   1     -50.543  13.350  23.619  0.00  0.00     0.021 A 
ATOM     27  C   UNL d   1     -50.022  12.950  23.116  0.00  0.00     0.003 A 
ENDBRANCH  21  22
ENDBRANCH   1  21
TORSDOF 5
ENDMDL
