MODEL 1
REMARK VINA RESULT:      -6.7      0.000      0.000
REMARK  6 active torsions:
REMARK  status: ('A' for Active; 'I' for Inactive)
REMARK    1  A    between atoms: S_3  and  C_1 
REMARK    2  A    between atoms: C_11  and  S_3 
REMARK    3  A    between atoms: N_8  and  C_4 
REMARK    4  A    between atoms: C_7  and  C_5 
REMARK    5  A    between atoms: C_18  and  N_8 
REMARK    6  A    between atoms: C_17  and  C_18 
ROOT
ATOM      1  C   UNL d   1     -46.213  12.274  23.233  0.00  0.00     0.212 A 
ATOM      2  N   UNL d   1     -45.482  11.901  23.294  0.00  0.00    -0.205 NA
ATOM      3  C   UNL d   1     -46.800  11.721  23.413  0.00  0.00     0.213 A 
ATOM      4  C   UNL d   1     -45.616  11.117  23.512  0.00  0.00     0.208 A 
ATOM      5  O   UNL d   1     -46.425  11.007  23.585  0.00  0.00    -0.267 OA
ENDROOT
BRANCH   1   6
ATOM      6  S   UNL d   1     -46.261  13.069  23.022  0.00  0.00     0.230 S 
ATOM      7  O   UNL d   1     -46.325  13.652  23.600  0.00  0.00    -0.215 OA
ATOM      8  O   UNL d   1     -46.245  13.286  22.220  0.00  0.00    -0.215 OA
BRANCH   6   9
ATOM      9  C   UNL d   1     -46.309  13.862  22.803  0.00  0.00     0.090 A 
ATOM     10  C   UNL d   1     -45.663  14.236  22.443  0.00  0.00     0.011 A 
ATOM     11  C   UNL d   1     -45.715  15.032  22.224  0.00  0.00     0.001 A 
ATOM     12  C   UNL d   1     -46.415  15.455  22.365  0.00  0.00     0.000 A 
ATOM     13  C   UNL d   1     -47.061  15.082  22.725  0.00  0.00     0.001 A 
ATOM     14  C   UNL d   1     -47.003  14.282  22.943  0.00  0.00     0.011 A 
ENDBRANCH   6   9
ENDBRANCH   1   6
BRANCH   3  15
ATOM     15  N   UNL d   1     -47.615  11.857  23.421  0.00  0.00    -0.219 NA
BRANCH  15  16
ATOM     16  C   UNL d   1     -48.137  11.267  23.191  0.00  0.00     0.103 C 
BRANCH  16  17
ATOM     17  C   UNL d   1     -48.936  11.451  23.108  0.00  0.00     0.038 A 
ATOM     18  C   UNL d   1     -49.482  11.206  23.681  0.00  0.00     0.101 A 
ATOM     19  N   UNL d   1     -50.279  11.393  23.593  0.00  0.00    -0.242 NA
ATOM     20  C   UNL d   1     -50.524  11.821  22.937  0.00  0.00     0.099 A 
ATOM     21  C   UNL d   1     -49.986  12.065  22.369  0.00  0.00     0.021 A 
ATOM     22  C   UNL d   1     -49.185  11.879  22.455  0.00  0.00     0.005 A 
ENDBRANCH  16  17
ENDBRANCH  15  16
ENDBRANCH   3  15
BRANCH   4  23
ATOM     23  C   UNL d   1     -44.889  10.746  23.573  0.00  0.00     0.141 A 
ATOM     24  O   UNL d   1     -44.079  10.873  23.615  0.00  0.00    -0.302 OA
ATOM     25  C   UNL d   1     -43.704  10.141  23.672  0.00  0.00     0.123 A 
ATOM     26  C   UNL d   1     -44.291   9.559  23.665  0.00  0.00     0.029 A 
ATOM     27  C   UNL d   1     -45.021   9.932  23.604  0.00  0.00     0.030 A 
ENDBRANCH   4  23
TORSDOF 6
ENDMDL
MODEL 2
REMARK VINA RESULT:      -5.4      6.077      7.987
REMARK  6 active torsions:
REMARK  status: ('A' for Active; 'I' for Inactive)
REMARK    1  A    between atoms: S_3  and  C_1 
REMARK    2  A    between atoms: C_11  and  S_3 
REMARK    3  A    between atoms: N_8  and  C_4 
REMARK    4  A    between atoms: C_7  and  C_5 
REMARK    5  A    between atoms: C_18  and  N_8 
REMARK    6  A    between atoms: C_17  and  C_18 
ROOT
ATOM      1  C   UNL d   1     -40.798  14.116  20.833  0.00  0.00     0.212 A 
ATOM      2  N   UNL d   1     -41.359  13.700  21.269  0.00  0.00    -0.205 NA
ATOM      3  C   UNL d   1     -41.024  14.099  20.039  0.00  0.00     0.213 A 
ATOM      4  C   UNL d   1     -41.934  13.426  20.744  0.00  0.00     0.208 A 
ATOM      5  O   UNL d   1     -41.728  13.672  19.989  0.00  0.00    -0.267 OA
ENDROOT
BRANCH   1   6
ATOM      6  S   UNL d   1     -40.148  14.460  21.207  0.00  0.00     0.230 S 
ATOM      7  O   UNL d   1     -40.187  15.234  21.484  0.00  0.00    -0.215 OA
ATOM      8  O   UNL d   1     -39.448  14.022  21.306  0.00  0.00    -0.215 OA
BRANCH   6   9
ATOM      9  C   UNL d   1     -39.495  14.796  21.579  0.00  0.00     0.090 A 
ATOM     10  C   UNL d   1     -39.521  15.581  21.841  0.00  0.00     0.011 A 
ATOM     11  C   UNL d   1     -38.862  15.915  22.215  0.00  0.00     0.001 A 
ATOM     12  C   UNL d   1     -38.176  15.462  22.326  0.00  0.00     0.000 A 
ATOM     13  C   UNL d   1     -38.149  14.676  22.065  0.00  0.00     0.001 A 
ATOM     14  C   UNL d   1     -38.814  14.347  21.691  0.00  0.00     0.011 A 
ENDBRANCH   6   9
ENDBRANCH   1   6
BRANCH   3  15
ATOM     15  N   UNL d   1     -40.621  14.447  19.408  0.00  0.00    -0.219 NA
BRANCH  15  16
ATOM     16  C   UNL d   1     -40.904  14.372  18.641  0.00  0.00     0.103 C 
BRANCH  16  17
ATOM     17  C   UNL d   1     -40.495  14.740  18.027  0.00  0.00     0.038 A 
ATOM     18  C   UNL d   1     -39.836  14.373  17.686  0.00  0.00     0.101 A 
ATOM     19  N   UNL d   1     -39.431  14.745  17.073  0.00  0.00    -0.242 NA
ATOM     20  C   UNL d   1     -39.688  15.477  16.806  0.00  0.00     0.099 A 
ATOM     21  C   UNL d   1     -40.340  15.843  17.141  0.00  0.00     0.021 A 
ATOM     22  C   UNL d   1     -40.748  15.472  17.757  0.00  0.00     0.005 A 
ENDBRANCH  16  17
ENDBRANCH  15  16
ENDBRANCH   3  15
BRANCH   4  23
ATOM     23  C   UNL d   1     -42.492  13.013  21.177  0.00  0.00     0.141 A 
ATOM     24  O   UNL d   1     -42.594  12.429  21.745  0.00  0.00    -0.302 OA
ATOM     25  C   UNL d   1     -43.402  12.340  21.883  0.00  0.00     0.123 A 
ATOM     26  C   UNL d   1     -43.799  12.875  21.394  0.00  0.00     0.029 A 
ATOM     27  C   UNL d   1     -43.238  13.290  20.959  0.00  0.00     0.030 A 
ENDBRANCH   4  23
TORSDOF 6
ENDMDL
MODEL 3
REMARK VINA RESULT:      -4.9      5.785      7.387
REMARK  6 active torsions:
REMARK  status: ('A' for Active; 'I' for Inactive)
REMARK    1  A    between atoms: S_3  and  C_1 
REMARK    2  A    between atoms: C_11  and  S_3 
REMARK    3  A    between atoms: N_8  and  C_4 
REMARK    4  A    between atoms: C_7  and  C_5 
REMARK    5  A    between atoms: C_18  and  N_8 
REMARK    6  A    between atoms: C_17  and  C_18 
ROOT
ATOM      1  C   UNL d   1     -40.259  14.341  20.508  0.00  0.00     0.212 A 
ATOM      2  N   UNL d   1     -39.911  14.631  19.820  0.00  0.00    -0.205 NA
ATOM      3  C   UNL d   1     -41.015  14.070  20.319  0.00  0.00     0.213 A 
ATOM      4  C   UNL d   1     -40.453  14.539  19.205  0.00  0.00     0.208 A 
ATOM      5  O   UNL d   1     -41.131  14.194  19.512  0.00  0.00    -0.267 OA
ENDROOT
BRANCH   1   6
ATOM      6  S   UNL d   1     -39.849  14.358  21.223  0.00  0.00     0.230 S 
ATOM      7  O   UNL d   1     -39.359  13.733  21.439  0.00  0.00    -0.215 OA
ATOM      8  O   UNL d   1     -39.932  15.010  21.732  0.00  0.00    -0.215 OA
BRANCH   6   9
ATOM      9  C   UNL d   1     -39.444  14.382  21.940  0.00  0.00     0.090 A 
ATOM     10  C   UNL d   1     -39.156  13.684  22.282  0.00  0.00     0.011 A 
ATOM     11  C   UNL d   1     -38.749  13.713  23.001  0.00  0.00     0.001 A 
ATOM     12  C   UNL d   1     -38.630  14.441  23.380  0.00  0.00     0.000 A 
ATOM     13  C   UNL d   1     -38.917  15.139  23.040  0.00  0.00     0.001 A 
ATOM     14  C   UNL d   1     -39.325  15.104  22.316  0.00  0.00     0.011 A 
ENDBRANCH   6   9
ENDBRANCH   1   6
BRANCH   3  15
ATOM     15  N   UNL d   1     -41.560  13.734  20.842  0.00  0.00    -0.219 NA
BRANCH  15  16
ATOM     16  C   UNL d   1     -42.300  13.496  20.577  0.00  0.00     0.103 C 
BRANCH  16  17
ATOM     17  C   UNL d   1     -42.808  13.114  21.101  0.00  0.00     0.038 A 
ATOM     18  C   UNL d   1     -42.558  12.435  21.504  0.00  0.00     0.101 A 
ATOM     19  N   UNL d   1     -43.070  12.057  22.027  0.00  0.00    -0.242 NA
ATOM     20  C   UNL d   1     -43.824  12.359  22.143  0.00  0.00     0.099 A 
ATOM     21  C   UNL d   1     -44.074  13.031  21.745  0.00  0.00     0.021 A 
ATOM     22  C   UNL d   1     -43.562  13.412  21.220  0.00  0.00     0.005 A 
ENDBRANCH  16  17
ENDBRANCH  15  16
ENDBRANCH   3  15
BRANCH   4  23
ATOM     23  C   UNL d   1     -40.107  14.827  18.522  0.00  0.00     0.141 A 
ATOM     24  O   UNL d   1     -39.469  15.251  18.227  0.00  0.00    -0.302 OA
ATOM     25  C   UNL d   1     -39.544  15.296  17.407  0.00  0.00     0.123 A 
ATOM     26  C   UNL d   1     -40.235  14.895  17.198  0.00  0.00     0.029 A 
ATOM     27  C   UNL d   1     -40.582  14.606  17.884  0.00  0.00     0.030 A 
ENDBRANCH   4  23
TORSDOF 6
ENDMDL
MODEL 4
REMARK VINA RESULT:      -4.3      1.295      3.384
REMARK  6 active torsions:
REMARK  status: ('A' for Active; 'I' for Inactive)
REMARK    1  A    between atoms: S_3  and  C_1 
REMARK    2  A    between atoms: C_11  and  S_3 
REMARK    3  A    between atoms: N_8  and  C_4 
REMARK    4  A    between atoms: C_7  and  C_5 
REMARK    5  A    between atoms: C_18  and  N_8 
REMARK    6  A    between atoms: C_17  and  C_18 
ROOT
ATOM      1  C   UNL d   1     -47.200  11.797  23.323  0.00  0.00     0.212 A 
ATOM      2  N   UNL d   1     -46.720  11.132  23.388  0.00  0.00    -0.205 NA
ATOM      3  C   UNL d   1     -46.726  12.467  23.419  0.00  0.00     0.213 A 
ATOM      4  C   UNL d   1     -45.948  11.389  23.524  0.00  0.00     0.208 A 
ATOM      5  O   UNL d   1     -45.953  12.209  23.543  0.00  0.00    -0.267 OA
ENDROOT
BRANCH   1   6
ATOM      6  S   UNL d   1     -48.009  11.718  23.185  0.00  0.00     0.230 S 
ATOM      7  O   UNL d   1     -48.283  11.281  22.543  0.00  0.00    -0.215 OA
ATOM      8  O   UNL d   1     -48.554  12.082  23.697  0.00  0.00    -0.215 OA
BRANCH   6   9
ATOM      9  C   UNL d   1     -48.819  11.644  23.054  0.00  0.00     0.090 A 
ATOM     10  C   UNL d   1     -49.328  11.455  23.680  0.00  0.00     0.011 A 
ATOM     11  C   UNL d   1     -50.141  11.382  23.545  0.00  0.00     0.001 A 
ATOM     12  C   UNL d   1     -50.445  11.498  22.781  0.00  0.00     0.000 A 
ATOM     13  C   UNL d   1     -49.937  11.687  22.155  0.00  0.00     0.001 A 
ATOM     14  C   UNL d   1     -49.121  11.759  22.297  0.00  0.00     0.011 A 
ENDBRANCH   6   9
ENDBRANCH   1   6
BRANCH   3  15
ATOM     15  N   UNL d   1     -46.979  13.253  23.396  0.00  0.00    -0.219 NA
BRANCH  15  16
ATOM     16  C   UNL d   1     -46.468  13.848  23.154  0.00  0.00     0.103 C 
BRANCH  16  17
ATOM     17  C   UNL d   1     -46.782  14.535  22.824  0.00  0.00     0.038 A 
ATOM     18  C   UNL d   1     -46.322  15.001  22.317  0.00  0.00     0.101 A 
ATOM     19  N   UNL d   1     -46.641  15.686  21.990  0.00  0.00    -0.242 NA
ATOM     20  C   UNL d   1     -47.412  15.899  22.170  0.00  0.00     0.099 A 
ATOM     21  C   UNL d   1     -47.870  15.439  22.672  0.00  0.00     0.021 A 
ATOM     22  C   UNL d   1     -47.552  14.750  23.002  0.00  0.00     0.005 A 
ENDBRANCH  16  17
ENDBRANCH  15  16
ENDBRANCH   3  15
BRANCH   4  23
ATOM     23  C   UNL d   1     -45.471  10.728  23.588  0.00  0.00     0.141 A 
ATOM     24  O   UNL d   1     -45.474   9.914  23.698  0.00  0.00    -0.302 OA
ATOM     25  C   UNL d   1     -44.693   9.650  23.693  0.00  0.00     0.123 A 
ATOM     26  C   UNL d   1     -44.207  10.309  23.580  0.00  0.00     0.029 A 
ATOM     27  C   UNL d   1     -44.686  10.973  23.515  0.00  0.00     0.030 A 
ENDBRANCH   4  23
TORSDOF 6
ENDMDL
MODEL 5
REMARK VINA RESULT:      -4.1      6.265      8.289
REMARK  6 active torsions:
REMARK  status: ('A' for Active; 'I' for Inactive)
REMARK    1  A    between atoms: S_3  and  C_1 
REMARK    2  A    between atoms: C_11  and  S_3 
REMARK    3  A    between atoms: N_8  and  C_4 
REMARK    4  A    between atoms: C_7  and  C_5 
REMARK    5  A    between atoms: C_18  and  N_8 
REMARK    6  A    between atoms: C_17  and  C_18 
ROOT
ATOM      1  C   UNL d   1     -40.933  14.334  19.844  0.00  0.00     0.212 A 
ATOM      2  N   UNL d   1     -41.576  13.832  19.953  0.00  0.00    -0.205 NA
ATOM      3  C   UNL d   1     -40.727  14.651  20.579  0.00  0.00     0.213 A 
ATOM      4  C   UNL d   1     -41.768  13.838  20.755  0.00  0.00     0.208 A 
ATOM      5  O   UNL d   1     -41.246  14.341  21.139  0.00  0.00    -0.267 OA
ENDROOT
BRANCH   1   6
ATOM      6  S   UNL d   1     -40.610  14.445  19.094  0.00  0.00     0.230 S 
ATOM      7  O   UNL d   1     -40.113  13.879  18.764  0.00  0.00    -0.215 OA
ATOM      8  O   UNL d   1     -40.789  15.135  18.665  0.00  0.00    -0.215 OA
BRANCH   6   9
ATOM      9  C   UNL d   1     -40.292  14.564  18.343  0.00  0.00     0.090 A 
ATOM     10  C   UNL d   1     -39.591  14.184  18.121  0.00  0.00     0.011 A 
ATOM     11  C   UNL d   1     -39.275  14.305  17.367  0.00  0.00     0.001 A 
ATOM     12  C   UNL d   1     -39.662  14.810  16.833  0.00  0.00     0.000 A 
ATOM     13  C   UNL d   1     -40.363  15.191  17.053  0.00  0.00     0.001 A 
ATOM     14  C   UNL d   1     -40.675  15.064  17.813  0.00  0.00     0.011 A 
ENDBRANCH   6   9
ENDBRANCH   1   6
BRANCH   3  15
ATOM     15  N   UNL d   1     -40.112  15.182  20.728  0.00  0.00    -0.219 NA
BRANCH  15  16
ATOM     16  C   UNL d   1     -40.094  15.614  21.425  0.00  0.00     0.103 C 
BRANCH  16  17
ATOM     17  C   UNL d   1     -39.374  15.717  21.814  0.00  0.00     0.038 A 
ATOM     18  C   UNL d   1     -39.344  15.724  22.641  0.00  0.00     0.101 A 
ATOM     19  N   UNL d   1     -38.623  15.827  23.024  0.00  0.00    -0.242 NA
ATOM     20  C   UNL d   1     -37.940  15.922  22.579  0.00  0.00     0.099 A 
ATOM     21  C   UNL d   1     -37.967  15.916  21.759  0.00  0.00     0.021 A 
ATOM     22  C   UNL d   1     -38.690  15.813  21.373  0.00  0.00     0.005 A 
ENDBRANCH  16  17
ENDBRANCH  15  16
ENDBRANCH   3  15
BRANCH   4  23
ATOM     23  C   UNL d   1     -42.408  13.339  20.863  0.00  0.00     0.141 A 
ATOM     24  O   UNL d   1     -42.955  12.865  20.475  0.00  0.00    -0.302 OA
ATOM     25  C   UNL d   1     -43.450  12.525  21.040  0.00  0.00     0.123 A 
ATOM     26  C   UNL d   1     -43.204  12.794  21.781  0.00  0.00     0.029 A 
ATOM     27  C   UNL d   1     -42.561  13.295  21.673  0.00  0.00     0.030 A 
ENDBRANCH   4  23
TORSDOF 6
ENDMDL
MODEL 6
REMARK VINA RESULT:      -3.9      2.135      3.782
REMARK  6 active torsions:
REMARK  status: ('A' for Active; 'I' for Inactive)
REMARK    1  A    between atoms: S_3  and  C_1 
REMARK    2  A    between atoms: C_11  and  S_3 
REMARK    3  A    between atoms: N_8  and  C_4 
REMARK    4  A    between atoms: C_7  and  C_5 
REMARK    5  A    between atoms: C_18  and  N_8 
REMARK    6  A    between atoms: C_17  and  C_18 
ROOT
ATOM      1  C   UNL d   1     -47.780  13.111  22.790  0.00  0.00     0.212 A 
ATOM      2  N   UNL d   1     -47.035  12.925  22.494  0.00  0.00    -0.205 NA
ATOM      3  C   UNL d   1     -47.852  13.933  22.808  0.00  0.00     0.213 A 
ATOM      4  C   UNL d   1     -46.645  13.633  22.329  0.00  0.00     0.208 A 
ATOM      5  O   UNL d   1     -47.147  14.252  22.522  0.00  0.00    -0.267 OA
ENDROOT
BRANCH   1   6
ATOM      6  S   UNL d   1     -48.305  12.513  23.008  0.00  0.00     0.230 S 
ATOM      7  O   UNL d   1     -48.170  12.063  23.683  0.00  0.00    -0.215 OA
ATOM      8  O   UNL d   1     -48.978  12.364  22.542  0.00  0.00    -0.215 OA
BRANCH   6   9
ATOM      9  C   UNL d   1     -48.835  11.918  23.218  0.00  0.00     0.090 A 
ATOM     10  C   UNL d   1     -48.556  11.186  23.487  0.00  0.00     0.011 A 
ATOM     11  C   UNL d   1     -49.091  10.591  23.697  0.00  0.00     0.001 A 
ATOM     12  C   UNL d   1     -49.907  10.730  23.639  0.00  0.00     0.000 A 
ATOM     13  C   UNL d   1     -50.187  11.461  23.370  0.00  0.00     0.001 A 
ATOM     14  C   UNL d   1     -49.644  12.055  23.160  0.00  0.00     0.011 A 
ENDBRANCH   6   9
ENDBRANCH   1   6
BRANCH   3  15
ATOM     15  N   UNL d   1     -48.510  14.361  23.066  0.00  0.00    -0.219 NA
BRANCH  15  16
ATOM     16  C   UNL d   1     -48.743  15.043  22.673  0.00  0.00     0.103 C 
BRANCH  16  17
ATOM     17  C   UNL d   1     -49.503  15.337  22.799  0.00  0.00     0.038 A 
ATOM     18  C   UNL d   1     -50.045  15.372  22.174  0.00  0.00     0.101 A 
ATOM     19  N   UNL d   1     -50.803  15.667  22.305  0.00  0.00    -0.242 NA
ATOM     20  C   UNL d   1     -51.012  15.922  23.056  0.00  0.00     0.099 A 
ATOM     21  C   UNL d   1     -50.478  15.887  23.677  0.00  0.00     0.021 A 
ATOM     22  C   UNL d   1     -49.716  15.593  23.548  0.00  0.00     0.005 A 
ENDBRANCH  16  17
ENDBRANCH  15  16
ENDBRANCH   3  15
BRANCH   4  23
ATOM     23  C   UNL d   1     -45.904  13.448  22.035  0.00  0.00     0.141 A 
ATOM     24  O   UNL d   1     -45.505  13.024  21.456  0.00  0.00    -0.302 OA
ATOM     25  C   UNL d   1     -44.696  13.148  21.556  0.00  0.00     0.123 A 
ATOM     26  C   UNL d   1     -44.599  13.653  22.202  0.00  0.00     0.029 A 
ATOM     27  C   UNL d   1     -45.343  13.838  22.498  0.00  0.00     0.030 A 
ENDBRANCH   4  23
TORSDOF 6
ENDMDL
