MODEL 1
REMARK VINA RESULT:       7.7      0.000      0.000
REMARK  5 active torsions:
REMARK  status: ('A' for Active; 'I' for Inactive)
REMARK    1  A    between atoms: C_13  and  C_2 
REMARK       I    between atoms: N_7  and  C_10 
REMARK    2  A    between atoms: S_14  and  C_8 
REMARK    3  A    between atoms: C_20  and  N_9 
REMARK    4  A    between atoms: C_10  and  C_19 
REMARK    5  A    between atoms: C_19  and  S_14 
ROOT
ATOM      1  S   UNL d   1     -42.167-121.858 -50.747  0.00  0.00    -0.061 SA
ENDROOT
BRANCH   1   2
ATOM      2  C   UNL d   1     -42.695-122.334 -50.326  0.00  0.00     0.131 A 
ATOM      3  N   UNL d   1     -42.508-122.584 -49.562  0.00  0.00    -0.156 NA
ATOM      4  N   UNL d   1     -43.045-123.067 -49.135  0.00  0.00    -0.191 N 
ATOM      5  C   UNL d   1     -43.004-123.390 -48.382  0.00  0.00     0.187 A 
ATOM      6  C   UNL d   1     -43.753-123.286 -49.483  0.00  0.00     0.187 A 
ATOM      7  N   UNL d   1     -43.693-123.817 -48.255  0.00  0.00    -0.127 NA
ATOM      8  N   UNL d   1     -44.162-123.758 -48.932  0.00  0.00    -0.127 NA
ATOM      9  C   UNL d   1     -43.940-123.036 -50.247  0.00  0.00     0.043 A 
ATOM     10  C   UNL d   1     -43.411-122.560 -50.668  0.00  0.00     0.031 A 
BRANCH   5  11
ATOM     11  C   UNL d   1     -42.389-123.307 -47.847  0.00  0.00     0.038 A 
ATOM     12  C   UNL d   1     -41.749-123.817 -47.867  0.00  0.00     0.003 A 
ATOM     13  C   UNL d   1     -41.128-123.735 -47.327  0.00  0.00     0.000 A 
ATOM     14  C   UNL d   1     -41.158-123.129 -46.764  0.00  0.00     0.000 A 
ATOM     15  C   UNL d   1     -41.801-122.612 -46.740  0.00  0.00     0.000 A 
ATOM     16  C   UNL d   1     -42.420-122.701 -47.284  0.00  0.00     0.003 A 
ENDBRANCH   5  11
ENDBRANCH   1   2
BRANCH   1  17
ATOM     17  C   UNL d   1     -42.397-121.525 -51.464  0.00  0.00     0.098 C 
BRANCH  17  18
ATOM     18  C   UNL d   1     -41.832-121.333 -52.022  0.00  0.00     0.272 C 
ATOM     19  N   UNL d   1     -41.975-121.495 -52.818  0.00  0.00    -0.269 N 
ATOM     20  C   UNL d   1     -41.410-121.303 -53.373  0.00  0.00     0.102 A 
ATOM     21  C   UNL d   1     -42.687-121.849 -53.044  0.00  0.00     0.102 A 
ATOM     22  C   UNL d   1     -41.549-121.462 -54.159  0.00  0.00     0.100 A 
ATOM     23  N   UNL d   1     -42.256-121.815 -54.401  0.00  0.00    -0.301 N 
ATOM     24  C   UNL d   1     -42.824-122.007 -53.834  0.00  0.00     0.100 A 
ATOM     25  O   UNL d   1     -41.125-120.981 -51.794  0.00  0.00    -0.266 OA
BRANCH  23  26
ATOM     26  C   UNL d   1     -42.388-121.972 -55.193  0.00  0.00     0.064 A 
ATOM     27  C   UNL d   1     -42.635-122.718 -55.435  0.00  0.00     0.018 A 
ATOM     28  C   UNL d   1     -42.767-122.871 -56.237  0.00  0.00     0.002 A 
ATOM     29  C   UNL d   1     -42.651-122.277 -56.787  0.00  0.00     0.000 A 
ATOM     30  C   UNL d   1     -42.401-121.517 -56.548  0.00  0.00     0.002 A 
ATOM     31  C   UNL d   1     -42.272-121.372 -55.750  0.00  0.00     0.018 A 
ENDBRANCH  23  26
ENDBRANCH  17  18
ENDBRANCH   1  17
TORSDOF 5
ENDMDL
