MODEL 1
REMARK VINA RESULT:       2.4      0.000      0.000
REMARK  5 active torsions:
REMARK  status: ('A' for Active; 'I' for Inactive)
REMARK    1  A    between atoms: C_3  and  C_1 
REMARK    2  A    between atoms: N_8  and  C_3 
REMARK    3  A    between atoms: C_9  and  C_3 
REMARK    4  A    between atoms: C_17  and  C_7 
REMARK    5  A    between atoms: C_10  and  N_8 
ROOT
ATOM      1  C   UNL d   1      57.209  -0.024  31.741  0.00  0.00     0.109 C 
ENDROOT
BRANCH   1   2
ATOM      2  C   UNL d   1      57.510  -0.260  31.009  0.00  0.00     0.160 A 
ATOM      3  C   UNL d   1      57.253   0.091  30.300  0.00  0.00     0.258 A 
ATOM      4  C   UNL d   1      57.578  -0.171  29.570  0.00  0.00     0.238 A 
ATOM      5  O   UNL d   1      56.691   0.682  30.316  0.00  0.00    -0.281 OA
ATOM      6  O   UNL d   1      57.320   0.180  28.861  0.00  0.00    -0.283 OA
ATOM      7  C   UNL d   1      58.140  -0.762  29.555  0.00  0.00     0.073 A 
ATOM      8  C   UNL d   1      58.398  -1.113  30.264  0.00  0.00     0.146 A 
ATOM      9  O   UNL d   1      58.090  -0.869  30.979  0.00  0.00    -0.299 OA
BRANCH   8  10
ATOM     10  C   UNL d   1      58.972  -1.717  30.238  0.00  0.00     0.259 C 
ATOM     11  O   UNL d   1      58.937  -2.329  29.661  0.00  0.00    -0.281 OA
ENDBRANCH   8  10
ENDBRANCH   1   2
BRANCH   1  12
ATOM     12  N   UNL d   1      57.452   0.681  32.101  0.00  0.00    -0.225 NA
BRANCH  12  13
ATOM     13  C   UNL d   1      58.057   0.681  32.645  0.00  0.00     0.163 A 
ATOM     14  N   UNL d   1      58.844   0.682  32.396  0.00  0.00    -0.225 NA
ATOM     15  C   UNL d   1      59.450   0.682  32.954  0.00  0.00     0.101 A 
ATOM     16  C   UNL d   1      59.274   0.682  33.757  0.00  0.00     0.021 A 
ATOM     17  C   UNL d   1      58.493   0.682  34.025  0.00  0.00     0.005 A 
ATOM     18  C   UNL d   1      57.885   0.681  33.474  0.00  0.00     0.039 A 
ENDBRANCH  12  13
ENDBRANCH   1  12
BRANCH   1  19
ATOM     19  C   UNL d   1      56.647  -0.511  32.123  0.00  0.00     0.022 A 
ATOM     20  C   UNL d   1      55.941  -0.190  32.402  0.00  0.00     0.031 A 
ATOM     21  C   UNL d   1      55.394  -0.676  32.776  0.00  0.00     0.140 A 
ATOM     22  F   UNL d   1      54.676  -0.355  33.061  0.00  0.00    -0.204 F 
ATOM     23  C   UNL d   1      55.549  -1.479  32.872  0.00  0.00     0.030 A 
ATOM     24  C   UNL d   1      56.253  -1.806  32.595  0.00  0.00     0.002 A 
ATOM     25  C   UNL d   1      56.803  -1.315  32.218  0.00  0.00     0.002 A 
ENDBRANCH   1  19
TORSDOF 5
ENDMDL
MODEL 2
REMARK VINA RESULT:       3.6      2.227      4.075
REMARK  5 active torsions:
REMARK  status: ('A' for Active; 'I' for Inactive)
REMARK    1  A    between atoms: C_3  and  C_1 
REMARK    2  A    between atoms: N_8  and  C_3 
REMARK    3  A    between atoms: C_9  and  C_3 
REMARK    4  A    between atoms: C_17  and  C_7 
REMARK    5  A    between atoms: C_10  and  N_8 
ROOT
ATOM      1  C   UNL d   1      58.953  -0.377  29.787  0.00  0.00     0.109 C 
ENDROOT
BRANCH   1   2
ATOM      2  C   UNL d   1      58.250  -0.301  30.214  0.00  0.00     0.160 A 
ATOM      3  C   UNL d   1      57.608   0.138  29.919  0.00  0.00     0.258 A 
ATOM      4  C   UNL d   1      56.906   0.197  30.378  0.00  0.00     0.238 A 
ATOM      5  O   UNL d   1      57.662   0.506  29.193  0.00  0.00    -0.281 OA
ATOM      6  O   UNL d   1      56.263   0.637  30.082  0.00  0.00    -0.283 OA
ATOM      7  C   UNL d   1      56.852  -0.171  31.103  0.00  0.00     0.073 A 
ATOM      8  C   UNL d   1      57.494  -0.610  31.399  0.00  0.00     0.146 A 
ATOM      9  O   UNL d   1      58.182  -0.675  30.964  0.00  0.00    -0.299 OA
BRANCH   8  10
ATOM     10  C   UNL d   1      57.429  -0.983  32.142  0.00  0.00     0.259 C 
ATOM     11  O   UNL d   1      56.950  -1.666  32.248  0.00  0.00    -0.281 OA
ENDBRANCH   8  10
ENDBRANCH   1   2
BRANCH   1  12
ATOM     12  N   UNL d   1      58.973  -0.756  29.051  0.00  0.00    -0.225 NA
BRANCH  12  13
ATOM     13  C   UNL d   1      59.163  -1.546  28.998  0.00  0.00     0.163 A 
ATOM     14  N   UNL d   1      59.938  -1.781  28.841  0.00  0.00    -0.225 NA
ATOM     15  C   UNL d   1      60.120  -2.582  28.789  0.00  0.00     0.101 A 
ATOM     16  C   UNL d   1      59.533  -3.149  28.892  0.00  0.00     0.021 A 
ATOM     17  C   UNL d   1      58.752  -2.933  29.049  0.00  0.00     0.005 A 
ATOM     18  C   UNL d   1      58.564  -2.136  29.102  0.00  0.00     0.039 A 
ENDBRANCH  12  13
ENDBRANCH   1  12
BRANCH   1  19
ATOM     19  C   UNL d   1      59.657  -0.062  30.109  0.00  0.00     0.022 A 
ATOM     20  C   UNL d   1      59.784  -0.078  30.925  0.00  0.00     0.031 A 
ATOM     21  C   UNL d   1      60.478   0.234  31.233  0.00  0.00     0.140 A 
ATOM     22  F   UNL d   1      60.612   0.221  32.058  0.00  0.00    -0.204 F 
ATOM     23  C   UNL d   1      61.046   0.560  30.733  0.00  0.00     0.030 A 
ATOM     24  C   UNL d   1      60.925   0.579  29.919  0.00  0.00     0.002 A 
ATOM     25  C   UNL d   1      60.225   0.265  29.609  0.00  0.00     0.002 A 
ENDBRANCH   1  19
TORSDOF 5
ENDMDL
MODEL 3
REMARK VINA RESULT:       3.9      2.075      3.641
REMARK  5 active torsions:
REMARK  status: ('A' for Active; 'I' for Inactive)
REMARK    1  A    between atoms: C_3  and  C_1 
REMARK    2  A    between atoms: N_8  and  C_3 
REMARK    3  A    between atoms: C_9  and  C_3 
REMARK    4  A    between atoms: C_17  and  C_7 
REMARK    5  A    between atoms: C_10  and  N_8 
ROOT
ATOM      1  C   UNL d   1      58.361  -0.137  29.898  0.00  0.00     0.109 C 
ENDROOT
BRANCH   1   2
ATOM      2  C   UNL d   1      57.925   0.020  30.581  0.00  0.00     0.160 A 
ATOM      3  C   UNL d   1      57.134   0.275  30.542  0.00  0.00     0.258 A 
ATOM      4  C   UNL d   1      56.716   0.426  31.256  0.00  0.00     0.238 A 
ATOM      5  O   UNL d   1      56.771   0.377  29.819  0.00  0.00    -0.281 OA
ATOM      6  O   UNL d   1      55.924   0.682  31.216  0.00  0.00    -0.283 OA
ATOM      7  C   UNL d   1      57.078   0.325  31.979  0.00  0.00     0.073 A 
ATOM      8  C   UNL d   1      57.869   0.070  32.018  0.00  0.00     0.146 A 
ATOM      9  O   UNL d   1      58.287  -0.081  31.334  0.00  0.00    -0.299 OA
BRANCH   8  10
ATOM     10  C   UNL d   1      58.232  -0.031  32.763  0.00  0.00     0.259 C 
ATOM     11  O   UNL d   1      58.436   0.630  33.242  0.00  0.00    -0.281 OA
ENDBRANCH   8  10
ENDBRANCH   1   2
BRANCH   1  12
ATOM     12  N   UNL d   1      58.696   0.474  29.450  0.00  0.00    -0.225 NA
BRANCH  12  13
ATOM     13  C   UNL d   1      59.503   0.517  29.346  0.00  0.00     0.163 A 
ATOM     14  N   UNL d   1      60.003   0.639  29.990  0.00  0.00    -0.225 NA
ATOM     15  C   UNL d   1      60.817   0.681  29.875  0.00  0.00     0.101 A 
ATOM     16  C   UNL d   1      61.133   0.601  29.120  0.00  0.00     0.021 A 
ATOM     17  C   UNL d   1      60.649   0.478  28.463  0.00  0.00     0.005 A 
ATOM     18  C   UNL d   1      59.837   0.435  28.572  0.00  0.00     0.039 A 
ENDBRANCH  12  13
ENDBRANCH   1  12
BRANCH   1  19
ATOM     19  C   UNL d   1      58.464  -0.931  29.658  0.00  0.00     0.022 A 
ATOM     20  C   UNL d   1      58.887  -1.456  30.133  0.00  0.00     0.031 A 
ATOM     21  C   UNL d   1      58.984  -2.235  29.890  0.00  0.00     0.140 A 
ATOM     22  F   UNL d   1      59.412  -2.772  30.367  0.00  0.00    -0.204 F 
ATOM     23  C   UNL d   1      58.661  -2.491  29.177  0.00  0.00     0.030 A 
ATOM     24  C   UNL d   1      58.238  -1.971  28.698  0.00  0.00     0.002 A 
ATOM     25  C   UNL d   1      58.141  -1.187  28.944  0.00  0.00     0.002 A 
ENDBRANCH   1  19
TORSDOF 5
ENDMDL
