MODEL 1
REMARK VINA RESULT:      44.6      0.000      0.000
REMARK  5 active torsions:
REMARK  status: ('A' for Active; 'I' for Inactive)
REMARK    1  A    between atoms: N_2  and  S_1 
REMARK    2  A    between atoms: C_5  and  S_1 
REMARK    3  A    between atoms: C_3  and  N_2 
REMARK    4  A    between atoms: C_4  and  C_3 
REMARK       I    between atoms: N_8  and  C_4 
REMARK    5  A    between atoms: C_13  and  N_8 
ROOT
ATOM      1  N   UNL d   1     -49.578  26.902  33.977  0.00  0.00    -0.223 N 
ATOM      2  C   UNL d   1     -48.936  26.500  33.650  0.00  0.00     0.112 C 
ENDROOT
BRANCH   1   3
ATOM      3  S   UNL d   1     -50.309  26.873  33.606  0.00  0.00     0.272 S 
ATOM      4  O   UNL d   1     -50.649  27.562  33.306  0.00  0.00    -0.200 OA
ATOM      5  O   UNL d   1     -49.817  26.316  33.960  0.00  0.00    -0.200 OA
BRANCH   3   6
ATOM      6  C   UNL d   1     -50.707  26.156  33.531  0.00  0.00     0.104 A 
ATOM      7  C   UNL d   1     -50.282  25.454  33.429  0.00  0.00     0.013 A 
ATOM      8  C   UNL d   1     -50.689  24.738  33.355  0.00  0.00     0.001 A 
ATOM      9  C   UNL d   1     -51.513  24.719  33.382  0.00  0.00     0.000 A 
ATOM     10  C   UNL d   1     -51.939  25.416  33.483  0.00  0.00     0.001 A 
ATOM     11  C   UNL d   1     -51.912  23.994  33.306  0.00  0.00     0.000 C 
ATOM     12  C   UNL d   1     -51.540  26.137  33.558  0.00  0.00     0.013 A 
ENDBRANCH   3   6
ENDBRANCH   1   3
BRANCH   1  13
ATOM     13  C   UNL d   1     -49.484  27.330  34.674  0.00  0.00     0.154 C 
BRANCH  13  14
ATOM     14  C   UNL d   1     -48.843  27.841  34.771  0.00  0.00     0.298 C 
ATOM     15  N   UNL d   1     -48.863  28.436  35.340  0.00  0.00    -0.207 NA
ATOM     16  O   UNL d   1     -48.178  27.751  34.291  0.00  0.00    -0.264 OA
BRANCH  15  17
ATOM     17  C   UNL d   1     -48.218  28.940  35.429  0.00  0.00     0.088 A 
ATOM     18  C   UNL d   1     -48.288  29.728  35.215  0.00  0.00     0.040 A 
ATOM     19  C   UNL d   1     -47.642  30.232  35.303  0.00  0.00     0.101 A 
ATOM     20  N   UNL d   1     -46.934  29.941  35.605  0.00  0.00    -0.242 NA
ATOM     21  C   UNL d   1     -46.872  29.147  35.818  0.00  0.00     0.101 A 
ATOM     22  C   UNL d   1     -47.517  28.647  35.729  0.00  0.00     0.040 A 
ENDBRANCH  15  17
ENDBRANCH  13  14
ENDBRANCH   1  13
TORSDOF 5
ENDMDL
MODEL 2
REMARK VINA RESULT:      44.9      0.866      1.363
REMARK  5 active torsions:
REMARK  status: ('A' for Active; 'I' for Inactive)
REMARK    1  A    between atoms: N_2  and  S_1 
REMARK    2  A    between atoms: C_5  and  S_1 
REMARK    3  A    between atoms: C_3  and  N_2 
REMARK    4  A    between atoms: C_4  and  C_3 
REMARK       I    between atoms: N_8  and  C_4 
REMARK    5  A    between atoms: C_13  and  N_8 
ROOT
ATOM      1  N   UNL d   1     -50.006  26.688  33.553  0.00  0.00    -0.223 N 
ATOM      2  C   UNL d   1     -50.607  27.248  33.473  0.00  0.00     0.112 C 
ENDROOT
BRANCH   1   3
ATOM      3  S   UNL d   1     -50.174  25.892  33.446  0.00  0.00     0.272 S 
ATOM      4  O   UNL d   1     -49.560  25.346  33.371  0.00  0.00    -0.200 OA
ATOM      5  O   UNL d   1     -50.629  26.572  33.538  0.00  0.00    -0.200 OA
BRANCH   3   6
ATOM      6  C   UNL d   1     -50.955  25.634  33.412  0.00  0.00     0.104 A 
ATOM      7  C   UNL d   1     -51.574  26.181  33.448  0.00  0.00     0.013 A 
ATOM      8  C   UNL d   1     -52.356  25.914  33.413  0.00  0.00     0.001 A 
ATOM      9  C   UNL d   1     -52.523  25.110  33.342  0.00  0.00     0.000 A 
ATOM     10  C   UNL d   1     -51.909  24.563  33.306  0.00  0.00     0.001 A 
ATOM     11  C   UNL d   1     -53.312  24.853  33.308  0.00  0.00     0.000 C 
ATOM     12  C   UNL d   1     -51.123  24.821  33.340  0.00  0.00     0.013 A 
ENDBRANCH   3   6
ENDBRANCH   1   3
BRANCH   1  13
ATOM     13  C   UNL d   1     -49.242  26.928  33.741  0.00  0.00     0.154 C 
BRANCH  13  14
ATOM     14  C   UNL d   1     -49.110  27.637  34.143  0.00  0.00     0.298 C 
ATOM     15  N   UNL d   1     -48.408  27.760  34.558  0.00  0.00    -0.207 NA
ATOM     16  O   UNL d   1     -49.688  28.225  34.126  0.00  0.00    -0.264 OA
BRANCH  15  17
ATOM     17  C   UNL d   1     -48.287  28.471  34.955  0.00  0.00     0.088 A 
ATOM     18  C   UNL d   1     -48.328  28.489  35.774  0.00  0.00     0.040 A 
ATOM     19  C   UNL d   1     -48.206  29.200  36.171  0.00  0.00     0.101 A 
ATOM     20  N   UNL d   1     -48.046  29.885  35.744  0.00  0.00    -0.242 NA
ATOM     21  C   UNL d   1     -48.007  29.860  34.921  0.00  0.00     0.101 A 
ATOM     22  C   UNL d   1     -48.129  29.149  34.528  0.00  0.00     0.040 A 
ENDBRANCH  15  17
ENDBRANCH  13  14
ENDBRANCH   1  13
TORSDOF 5
ENDMDL
