MODEL 1
REMARK VINA RESULT:      -7.4      0.000      0.000
REMARK  7 active torsions:
REMARK  status: ('A' for Active; 'I' for Inactive)
REMARK    1  A    between atoms: C_4  and  N_1 
REMARK    2  A    between atoms: O_2  and  C_10 
REMARK    3  A    between atoms: C_3  and  O_2 
REMARK    4  A    between atoms: C_9  and  C_4 
REMARK    5  A    between atoms: C_12  and  C_6 
REMARK    6  A    between atoms: C_7  and  C_12 
REMARK    7  A    between atoms: C_10  and  C_9 
ROOT
ATOM      1  O   UNL d   1      52.543  33.218  53.236  0.00  0.00    -0.302 OA
ENDROOT
BRANCH   1   2
ATOM      2  C   UNL d   1      51.817  33.281  52.847  0.00  0.00     0.166 C 
BRANCH   2   3
ATOM      3  C   UNL d   1      51.421  33.997  52.813  0.00  0.00     0.238 C 
ATOM      4  O   UNL d   1      51.775  34.651  52.491  0.00  0.00    -0.283 OA
BRANCH   3   5
ATOM      5  C   UNL d   1      50.653  34.040  53.112  0.00  0.00     0.125 C 
BRANCH   5   6
ATOM      6  N   UNL d   1      50.057  34.364  52.669  0.00  0.00    -0.296 N 
ATOM      7  C   UNL d   1      49.561  34.939  52.992  0.00  0.00     0.107 A 
ATOM      8  C   UNL d   1      48.953  35.269  52.540  0.00  0.00     0.142 A 
ATOM      9  O   UNL d   1      48.844  35.023  51.769  0.00  0.00    -0.300 OA
ATOM     10  C   UNL d   1      49.326  34.460  51.446  0.00  0.00     0.142 A 
ATOM     11  C   UNL d   1      49.934  34.130  51.898  0.00  0.00     0.107 A 
ENDBRANCH   5   6
ENDBRANCH   3   5
ENDBRANCH   2   3
ENDBRANCH   1   2
BRANCH   1  12
ATOM     12  C   UNL d   1      52.905  32.475  53.324  0.00  0.00     0.100 A 
ATOM     13  C   UNL d   1      53.581  32.395  53.803  0.00  0.00     0.023 A 
ATOM     14  C   UNL d   1      53.941  31.665  53.891  0.00  0.00     0.002 A 
ATOM     15  C   UNL d   1      53.629  31.010  53.504  0.00  0.00     0.000 A 
ATOM     16  C   UNL d   1      52.953  31.089  53.025  0.00  0.00     0.002 A 
ATOM     17  C   UNL d   1      52.607  31.822  52.947  0.00  0.00     0.025 A 
BRANCH  13  18
ATOM     18  C   UNL d   1      53.903  33.057  54.199  0.00  0.00     0.002 C 
BRANCH  18  19
ATOM     19  C   UNL d   1      54.483  32.958  54.787  0.00  0.00     0.000 C 
ATOM     20  C   UNL d   1      54.822  33.610  55.125  0.00  0.00     0.000 C 
ENDBRANCH  18  19
ENDBRANCH  13  18
ENDBRANCH   1  12
TORSDOF 7
ENDMDL
MODEL 2
REMARK VINA RESULT:      -7.2      0.564      1.744
REMARK  7 active torsions:
REMARK  status: ('A' for Active; 'I' for Inactive)
REMARK    1  A    between atoms: C_4  and  N_1 
REMARK    2  A    between atoms: O_2  and  C_10 
REMARK    3  A    between atoms: C_3  and  O_2 
REMARK    4  A    between atoms: C_9  and  C_4 
REMARK    5  A    between atoms: C_12  and  C_6 
REMARK    6  A    between atoms: C_7  and  C_12 
REMARK    7  A    between atoms: C_10  and  C_9 
ROOT
ATOM      1  O   UNL d   1      52.550  33.375  53.290  0.00  0.00    -0.302 OA
ENDROOT
BRANCH   1   2
ATOM      2  C   UNL d   1      52.006  33.996  53.305  0.00  0.00     0.166 C 
BRANCH   2   3
ATOM      3  C   UNL d   1      51.450  34.080  52.710  0.00  0.00     0.238 C 
ATOM      4  O   UNL d   1      51.654  34.399  51.994  0.00  0.00    -0.283 OA
BRANCH   3   5
ATOM      5  C   UNL d   1      50.675  33.834  52.853  0.00  0.00     0.125 C 
BRANCH   5   6
ATOM      6  N   UNL d   1      50.050  34.315  52.667  0.00  0.00    -0.296 N 
ATOM      7  C   UNL d   1      49.688  34.264  51.927  0.00  0.00     0.107 A 
ATOM      8  C   UNL d   1      49.051  34.753  51.738  0.00  0.00     0.142 A 
ATOM      9  O   UNL d   1      48.778  35.292  52.289  0.00  0.00    -0.300 OA
ATOM     10  C   UNL d   1      49.127  35.348  53.015  0.00  0.00     0.142 A 
ATOM     11  C   UNL d   1      49.765  34.858  53.205  0.00  0.00     0.107 A 
ENDBRANCH   5   6
ENDBRANCH   3   5
ENDBRANCH   2   3
ENDBRANCH   1   2
BRANCH   1  12
ATOM     12  C   UNL d   1      53.136  33.320  53.878  0.00  0.00     0.100 A 
ATOM     13  C   UNL d   1      53.539  32.602  53.998  0.00  0.00     0.023 A 
ATOM     14  C   UNL d   1      54.117  32.545  54.576  0.00  0.00     0.002 A 
ATOM     15  C   UNL d   1      54.296  33.202  55.037  0.00  0.00     0.000 A 
ATOM     16  C   UNL d   1      53.893  33.920  54.916  0.00  0.00     0.002 A 
ATOM     17  C   UNL d   1      53.321  33.961  54.338  0.00  0.00     0.025 A 
BRANCH  13  18
ATOM     18  C   UNL d   1      53.362  31.931  53.533  0.00  0.00     0.002 C 
BRANCH  18  19
ATOM     19  C   UNL d   1      53.671  31.184  53.731  0.00  0.00     0.000 C 
ATOM     20  C   UNL d   1      53.410  30.529  53.336  0.00  0.00     0.000 C 
ENDBRANCH  18  19
ENDBRANCH  13  18
ENDBRANCH   1  12
TORSDOF 7
ENDMDL
MODEL 3
REMARK VINA RESULT:      -7.1      1.977      4.561
REMARK  7 active torsions:
REMARK  status: ('A' for Active; 'I' for Inactive)
REMARK    1  A    between atoms: C_4  and  N_1 
REMARK    2  A    between atoms: O_2  and  C_10 
REMARK    3  A    between atoms: C_3  and  O_2 
REMARK    4  A    between atoms: C_9  and  C_4 
REMARK    5  A    between atoms: C_12  and  C_6 
REMARK    6  A    between atoms: C_7  and  C_12 
REMARK    7  A    between atoms: C_10  and  C_9 
ROOT
ATOM      1  O   UNL d   1      52.689  32.971  53.126  0.00  0.00    -0.302 OA
ENDROOT
BRANCH   1   2
ATOM      2  C   UNL d   1      53.170  32.344  53.365  0.00  0.00     0.166 C 
BRANCH   2   3
ATOM      3  C   UNL d   1      53.117  31.612  53.001  0.00  0.00     0.238 C 
ATOM      4  O   UNL d   1      52.557  31.471  52.433  0.00  0.00    -0.283 OA
BRANCH   3   5
ATOM      5  C   UNL d   1      53.647  31.019  53.223  0.00  0.00     0.125 C 
BRANCH   5   6
ATOM      6  N   UNL d   1      53.376  30.324  53.540  0.00  0.00    -0.296 N 
ATOM      7  C   UNL d   1      53.563  30.117  54.317  0.00  0.00     0.107 A 
ATOM      8  C   UNL d   1      53.288  29.409  54.640  0.00  0.00     0.142 A 
ATOM      9  O   UNL d   1      52.827  28.911  54.184  0.00  0.00    -0.300 OA
ATOM     10  C   UNL d   1      52.640  29.106  53.423  0.00  0.00     0.142 A 
ATOM     11  C   UNL d   1      52.915  29.815  53.100  0.00  0.00     0.107 A 
ENDBRANCH   5   6
ENDBRANCH   3   5
ENDBRANCH   2   3
ENDBRANCH   1   2
BRANCH   1  12
ATOM     12  C   UNL d   1      52.768  33.717  53.484  0.00  0.00     0.100 A 
ATOM     13  C   UNL d   1      52.205  34.312  53.336  0.00  0.00     0.023 A 
ATOM     14  C   UNL d   1      52.280  35.047  53.688  0.00  0.00     0.002 A 
ATOM     15  C   UNL d   1      52.915  35.195  54.188  0.00  0.00     0.000 A 
ATOM     16  C   UNL d   1      53.478  34.601  54.336  0.00  0.00     0.002 A 
ATOM     17  C   UNL d   1      53.390  33.874  53.980  0.00  0.00     0.025 A 
BRANCH  13  18
ATOM     18  C   UNL d   1      51.556  34.168  52.828  0.00  0.00     0.002 C 
BRANCH  18  19
ATOM     19  C   UNL d   1      50.834  34.565  52.940  0.00  0.00     0.000 C 
ATOM     20  C   UNL d   1      50.223  34.428  52.429  0.00  0.00     0.000 C 
ENDBRANCH  18  19
ENDBRANCH  13  18
ENDBRANCH   1  12
TORSDOF 7
ENDMDL
MODEL 4
REMARK VINA RESULT:      -6.8      2.085      4.371
REMARK  7 active torsions:
REMARK  status: ('A' for Active; 'I' for Inactive)
REMARK    1  A    between atoms: C_4  and  N_1 
REMARK    2  A    between atoms: O_2  and  C_10 
REMARK    3  A    between atoms: C_3  and  O_2 
REMARK    4  A    between atoms: C_9  and  C_4 
REMARK    5  A    between atoms: C_12  and  C_6 
REMARK    6  A    between atoms: C_7  and  C_12 
REMARK    7  A    between atoms: C_10  and  C_9 
ROOT
ATOM      1  O   UNL d   1      52.953  33.067  53.487  0.00  0.00    -0.302 OA
ENDROOT
BRANCH   1   2
ATOM      2  C   UNL d   1      52.951  32.262  53.304  0.00  0.00     0.166 C 
BRANCH   2   3
ATOM      3  C   UNL d   1      53.499  31.754  53.640  0.00  0.00     0.238 C 
ATOM      4  O   UNL d   1      53.841  31.928  54.354  0.00  0.00    -0.283 OA
BRANCH   3   5
ATOM      5  C   UNL d   1      53.697  31.061  53.238  0.00  0.00     0.125 C 
BRANCH   5   6
ATOM      6  N   UNL d   1      53.414  30.345  53.489  0.00  0.00    -0.296 N 
ATOM      7  C   UNL d   1      52.787  29.981  53.094  0.00  0.00     0.107 A 
ATOM      8  C   UNL d   1      52.498  29.251  53.350  0.00  0.00     0.142 A 
ATOM      9  O   UNL d   1      52.837  28.888  53.999  0.00  0.00    -0.300 OA
ATOM     10  C   UNL d   1      53.450  29.238  54.391  0.00  0.00     0.142 A 
ATOM     11  C   UNL d   1      53.739  29.968  54.135  0.00  0.00     0.107 A 
ENDBRANCH   5   6
ENDBRANCH   3   5
ENDBRANCH   2   3
ENDBRANCH   1   2
BRANCH   1  12
ATOM     12  C   UNL d   1      52.349  33.561  53.200  0.00  0.00     0.100 A 
ATOM     13  C   UNL d   1      52.334  34.366  53.409  0.00  0.00     0.023 A 
ATOM     14  C   UNL d   1      51.741  34.855  53.127  0.00  0.00     0.002 A 
ATOM     15  C   UNL d   1      51.158  34.545  52.636  0.00  0.00     0.000 A 
ATOM     16  C   UNL d   1      51.173  33.740  52.427  0.00  0.00     0.002 A 
ATOM     17  C   UNL d   1      51.770  33.266  52.715  0.00  0.00     0.025 A 
BRANCH  13  18
ATOM     18  C   UNL d   1      52.923  34.687  53.908  0.00  0.00     0.002 C 
BRANCH  18  19
ATOM     19  C   UNL d   1      52.855  35.464  54.198  0.00  0.00     0.000 C 
ATOM     20  C   UNL d   1      53.358  35.717  54.778  0.00  0.00     0.000 C 
ENDBRANCH  18  19
ENDBRANCH  13  18
ENDBRANCH   1  12
TORSDOF 7
ENDMDL
MODEL 5
REMARK VINA RESULT:      -6.6      2.620      3.633
REMARK  7 active torsions:
REMARK  status: ('A' for Active; 'I' for Inactive)
REMARK    1  A    between atoms: C_4  and  N_1 
REMARK    2  A    between atoms: O_2  and  C_10 
REMARK    3  A    between atoms: C_3  and  O_2 
REMARK    4  A    between atoms: C_9  and  C_4 
REMARK    5  A    between atoms: C_12  and  C_6 
REMARK    6  A    between atoms: C_7  and  C_12 
REMARK    7  A    between atoms: C_10  and  C_9 
ROOT
ATOM      1  O   UNL d   1      53.633  31.297  54.214  0.00  0.00    -0.302 OA
ENDROOT
BRANCH   1   2
ATOM      2  C   UNL d   1      53.637  32.107  54.054  0.00  0.00     0.166 C 
BRANCH   2   3
ATOM      3  C   UNL d   1      53.935  32.641  54.600  0.00  0.00     0.238 C 
ATOM      4  O   UNL d   1      53.943  32.464  55.390  0.00  0.00    -0.283 OA
BRANCH   3   5
ATOM      5  C   UNL d   1      54.227  33.364  54.329  0.00  0.00     0.125 C 
BRANCH   5   6
ATOM      6  N   UNL d   1      53.792  34.042  54.416  0.00  0.00    -0.296 N 
ATOM      7  C   UNL d   1      53.387  34.365  53.774  0.00  0.00     0.107 A 
ATOM      8  C   UNL d   1      52.944  35.056  53.863  0.00  0.00     0.142 A 
ATOM      9  O   UNL d   1      52.908  35.421  54.593  0.00  0.00    -0.300 OA
ATOM     10  C   UNL d   1      53.302  35.110  55.227  0.00  0.00     0.142 A 
ATOM     11  C   UNL d   1      53.745  34.419  55.138  0.00  0.00     0.107 A 
ENDBRANCH   5   6
ENDBRANCH   3   5
ENDBRANCH   2   3
ENDBRANCH   1   2
BRANCH   1  12
ATOM     12  C   UNL d   1      53.326  30.764  53.654  0.00  0.00     0.100 A 
ATOM     13  C   UNL d   1      53.217  29.965  53.857  0.00  0.00     0.023 A 
ATOM     14  C   UNL d   1      52.915  29.437  53.309  0.00  0.00     0.002 A 
ATOM     15  C   UNL d   1      52.720  29.702  52.555  0.00  0.00     0.000 A 
ATOM     16  C   UNL d   1      52.829  30.502  52.352  0.00  0.00     0.002 A 
ATOM     17  C   UNL d   1      53.130  31.015  52.908  0.00  0.00     0.025 A 
BRANCH  13  18
ATOM     18  C   UNL d   1      53.414  29.688  54.622  0.00  0.00     0.002 C 
BRANCH  18  19
ATOM     19  C   UNL d   1      53.354  28.880  54.809  0.00  0.00     0.000 C 
ATOM     20  C   UNL d   1      53.412  28.645  55.580  0.00  0.00     0.000 C 
ENDBRANCH  18  19
ENDBRANCH  13  18
ENDBRANCH   1  12
TORSDOF 7
ENDMDL
MODEL 6
REMARK VINA RESULT:      -6.0      1.141      4.953
REMARK  7 active torsions:
REMARK  status: ('A' for Active; 'I' for Inactive)
REMARK    1  A    between atoms: C_4  and  N_1 
REMARK    2  A    between atoms: O_2  and  C_10 
REMARK    3  A    between atoms: C_3  and  O_2 
REMARK    4  A    between atoms: C_9  and  C_4 
REMARK    5  A    between atoms: C_12  and  C_6 
REMARK    6  A    between atoms: C_7  and  C_12 
REMARK    7  A    between atoms: C_10  and  C_9 
ROOT
ATOM      1  O   UNL d   1      49.932  34.718  52.674  0.00  0.00    -0.302 OA
ENDROOT
BRANCH   1   2
ATOM      2  C   UNL d   1      50.544  34.181  52.535  0.00  0.00     0.166 C 
BRANCH   2   3
ATOM      3  C   UNL d   1      51.206  34.168  53.017  0.00  0.00     0.238 C 
ATOM      4  O   UNL d   1      51.709  34.802  53.047  0.00  0.00    -0.283 OA
BRANCH   3   5
ATOM      5  C   UNL d   1      51.353  33.494  53.471  0.00  0.00     0.125 C 
BRANCH   5   6
ATOM      6  N   UNL d   1      52.081  33.140  53.458  0.00  0.00    -0.296 N 
ATOM      7  C   UNL d   1      52.242  32.532  52.924  0.00  0.00     0.107 A 
ATOM      8  C   UNL d   1      52.985  32.170  52.911  0.00  0.00     0.142 A 
ATOM      9  O   UNL d   1      53.563  32.419  53.432  0.00  0.00    -0.300 OA
ATOM     10  C   UNL d   1      53.413  33.014  53.958  0.00  0.00     0.142 A 
ATOM     11  C   UNL d   1      52.671  33.375  53.971  0.00  0.00     0.107 A 
ENDBRANCH   5   6
ENDBRANCH   3   5
ENDBRANCH   2   3
ENDBRANCH   1   2
BRANCH   1  12
ATOM     12  C   UNL d   1      49.316  34.799  52.121  0.00  0.00     0.100 A 
ATOM     13  C   UNL d   1      48.645  35.254  52.309  0.00  0.00     0.023 A 
ATOM     14  C   UNL d   1      48.037  35.336  51.767  0.00  0.00     0.002 A 
ATOM     15  C   UNL d   1      48.093  34.966  51.035  0.00  0.00     0.000 A 
ATOM     16  C   UNL d   1      48.764  34.511  50.847  0.00  0.00     0.002 A 
ATOM     17  C   UNL d   1      49.361  34.439  51.396  0.00  0.00     0.025 A 
BRANCH  13  18
ATOM     18  C   UNL d   1      48.581  35.633  53.052  0.00  0.00     0.002 C 
BRANCH  18  19
ATOM     19  C   UNL d   1      47.934  36.126  53.222  0.00  0.00     0.000 C 
ATOM     20  C   UNL d   1      47.888  36.487  53.944  0.00  0.00     0.000 C 
ENDBRANCH  18  19
ENDBRANCH  13  18
ENDBRANCH   1  12
TORSDOF 7
ENDMDL
