MODEL 1
REMARK VINA RESULT:       8.9      0.000      0.000
REMARK  3 active torsions:
REMARK  status: ('A' for Active; 'I' for Inactive)
REMARK    1  A    between atoms: C_2  and  S_1 
REMARK    2  A    between atoms: N_6  and  S_1 
REMARK    3  A    between atoms: N_3  and  C_5 
ROOT
ATOM      1  C   UNL d   1     -51.512  25.272  33.322  0.00  0.00     0.106 A 
ATOM      2  C   UNL d   1     -52.302  25.034  33.327  0.00  0.00     0.036 A 
ATOM      3  C   UNL d   1     -52.488  24.230  33.328  0.00  0.00     0.127 A 
ATOM      4  C   UNL d   1     -50.909  24.707  33.319  0.00  0.00     0.012 A 
ATOM      5  C   UNL d   1     -51.886  23.665  33.325  0.00  0.00     0.024 A 
ATOM      6  C   UNL d   1     -51.095  23.903  33.320  0.00  0.00     0.002 A 
ATOM      7  C   UNL d   1     -50.110  24.948  33.314  0.00  0.00     0.001 C 
ENDROOT
BRANCH   1   8
ATOM      8  S   UNL d   1     -51.317  26.085  33.321  0.00  0.00     0.272 S 
ATOM      9  O   UNL d   1     -50.525  26.316  33.306  0.00  0.00    -0.200 OA
ATOM     10  O   UNL d   1     -51.915  26.654  33.335  0.00  0.00    -0.200 OA
BRANCH   8  11
ATOM     11  N   UNL d   1     -51.336  26.910  33.324  0.00  0.00    -0.226 N 
ATOM     12  C   UNL d   1     -50.628  27.343  33.343  0.00  0.00     0.111 C 
ATOM     13  C   UNL d   1     -52.064  27.303  33.309  0.00  0.00     0.111 C 
ENDBRANCH   8  11
ENDBRANCH   1   8
BRANCH   3  14
ATOM     14  N   UNL d   1     -53.279  23.992  33.333  0.00  0.00    -0.114 N 
ATOM     15  O   UNL d   1     -53.465  23.188  33.333  0.00  0.00    -0.532 OA
ATOM     16  O   UNL d   1     -53.881  24.557  33.337  0.00  0.00    -0.532 OA
ENDBRANCH   3  14
TORSDOF 3
ENDMDL
MODEL 2
REMARK VINA RESULT:      11.6      1.022      2.922
REMARK  3 active torsions:
REMARK  status: ('A' for Active; 'I' for Inactive)
REMARK    1  A    between atoms: C_2  and  S_1 
REMARK    2  A    between atoms: N_6  and  S_1 
REMARK    3  A    between atoms: N_3  and  C_5 
ROOT
ATOM      1  C   UNL d   1     -51.651  24.940  33.427  0.00  0.00     0.106 A 
ATOM      2  C   UNL d   1     -51.864  25.737  33.415  0.00  0.00     0.036 A 
ATOM      3  C   UNL d   1     -51.279  26.317  33.361  0.00  0.00     0.127 A 
ATOM      4  C   UNL d   1     -50.855  24.723  33.385  0.00  0.00     0.012 A 
ATOM      5  C   UNL d   1     -50.483  26.101  33.319  0.00  0.00     0.024 A 
ATOM      6  C   UNL d   1     -50.270  25.304  33.331  0.00  0.00     0.002 A 
ATOM      7  C   UNL d   1     -50.640  23.917  33.397  0.00  0.00     0.001 C 
ENDROOT
BRANCH   1   8
ATOM      8  S   UNL d   1     -52.238  24.348  33.481  0.00  0.00     0.272 S 
ATOM      9  O   UNL d   1     -52.046  23.564  33.310  0.00  0.00    -0.200 OA
ATOM     10  O   UNL d   1     -53.008  24.547  33.704  0.00  0.00    -0.200 OA
BRANCH   8  11
ATOM     11  N   UNL d   1     -52.941  23.928  33.591  0.00  0.00    -0.226 N 
ATOM     12  C   UNL d   1     -53.658  24.234  33.307  0.00  0.00     0.111 C 
ATOM     13  C   UNL d   1     -52.925  23.201  33.984  0.00  0.00     0.111 C 
ENDBRANCH   8  11
ENDBRANCH   1   8
BRANCH   3  14
ATOM     14  N   UNL d   1     -51.493  27.115  33.349  0.00  0.00    -0.114 N 
ATOM     15  O   UNL d   1     -52.290  27.326  33.380  0.00  0.00    -0.532 OA
ATOM     16  O   UNL d   1     -50.910  27.699  33.306  0.00  0.00    -0.532 OA
ENDBRANCH   3  14
TORSDOF 3
ENDMDL
