MODEL 1
REMARK VINA RESULT:      21.5      0.000      0.000
REMARK  5 active torsions:
REMARK  status: ('A' for Active; 'I' for Inactive)
REMARK    1  A    between atoms: N_3  and  S_1 
REMARK    2  A    between atoms: C_11  and  S_1 
REMARK    3  A    between atoms: C_9  and  C_2 
REMARK    4  A    between atoms: C_4  and  N_7 
REMARK       I    between atoms: N_7  and  C_10 
REMARK    5  A    between atoms: C_10  and  C_14 
ROOT
ATOM      1  C   UNL d   1     -42.084-122.778 -51.575  0.00  0.00     0.104 A 
ATOM      2  C   UNL d   1     -41.728-122.366 -53.141  0.00  0.00     0.058 A 
ATOM      3  C   UNL d   1     -42.658-122.809 -52.150  0.00  0.00     0.013 A 
ATOM      4  C   UNL d   1     -41.320-122.536 -51.792  0.00  0.00     0.013 A 
ATOM      5  C   UNL d   1     -42.489-122.606 -52.931  0.00  0.00     0.005 A 
ATOM      6  C   UNL d   1     -41.150-122.333 -52.573  0.00  0.00     0.005 A 
ENDROOT
BRANCH   2   7
ATOM      7  C   UNL d   1     -41.548-122.157 -53.939  0.00  0.00     0.282 C 
ATOM      8  N   UNL d   1     -41.309-121.387 -54.126  0.00  0.00    -0.165 NA
ATOM      9  O   UNL d   1     -41.612-122.719 -54.516  0.00  0.00    -0.265 OA
BRANCH   8  10
ATOM     10  C   UNL d   1     -41.247-120.830 -53.542  0.00  0.00     0.297 A 
ATOM     11  O   UNL d   1     -41.255-120.020 -53.738  0.00  0.00    -0.253 OA
ATOM     12  C   UNL d   1     -41.184-119.603 -53.036  0.00  0.00     0.207 A 
ATOM     13  N   UNL d   1     -41.134-120.138 -52.424  0.00  0.00    -0.119 NA
ATOM     14  N   UNL d   1     -41.172-120.900 -52.733  0.00  0.00    -0.101 NA
BRANCH  12  15
ATOM     15  C   UNL d   1     -41.173-118.774 -53.031  0.00  0.00     0.054 A 
ATOM     16  C   UNL d   1     -41.143-118.380 -52.310  0.00  0.00     0.061 A 
ATOM     17 CL   UNL d   1     -41.124-118.807 -51.603  0.00  0.00    -0.082 Cl
ATOM     18  C   UNL d   1     -41.132-117.554 -52.303  0.00  0.00     0.011 A 
ATOM     19  C   UNL d   1     -41.151-117.118 -53.005  0.00  0.00     0.001 A 
ATOM     20  C   UNL d   1     -41.181-117.508 -53.720  0.00  0.00     0.000 A 
ATOM     21  C   UNL d   1     -41.192-118.335 -53.736  0.00  0.00     0.004 A 
ENDBRANCH  12  15
ENDBRANCH   8  10
ENDBRANCH   2   7
BRANCH   1  22
ATOM     22  S   UNL d   1     -42.268-122.985 -50.789  0.00  0.00     0.271 S 
ATOM     23  O   UNL d   1     -42.016-123.763 -50.923  0.00  0.00    -0.200 OA
ATOM     24  O   UNL d   1     -42.520-122.211 -50.656  0.00  0.00    -0.200 OA
BRANCH  22  25
ATOM     25  N   UNL d   1     -42.456-123.167 -50.011  0.00  0.00    -0.231 N 
ATOM     26  C   UNL d   1     -41.973-122.875 -49.403  0.00  0.00     0.075 A 
ATOM     27  C   UNL d   1     -41.317-122.411 -49.579  0.00  0.00     0.020 C 
ATOM     28  C   UNL d   1     -42.153-123.052 -48.617  0.00  0.00     0.018 A 
ATOM     29  C   UNL d   1     -42.809-123.516 -48.441  0.00  0.00     0.003 A 
ATOM     30  C   UNL d   1     -43.285-123.803 -49.049  0.00  0.00     0.020 A 
ATOM     31  C   UNL d   1     -43.105-123.626 -49.835  0.00  0.00     0.092 A 
ENDBRANCH  22  25
ENDBRANCH   1  22
TORSDOF 5
ENDMDL
