MODEL 1
REMARK VINA RESULT:      45.3      0.000      0.000
REMARK  5 active torsions:
REMARK  status: ('A' for Active; 'I' for Inactive)
REMARK    1  A    between atoms: N_2  and  S_1 
REMARK    2  A    between atoms: C_5  and  S_1 
REMARK    3  A    between atoms: C_3  and  N_2 
REMARK    4  A    between atoms: C_4  and  C_3 
REMARK       I    between atoms: N_8  and  C_4 
REMARK    5  A    between atoms: C_13  and  N_8 
ROOT
ATOM      1  N   UNL d   1     -56.248 -99.261 -44.769  0.00  0.00    -0.223 N 
ATOM      2  C   UNL d   1     -55.632 -98.755 -44.983  0.00  0.00     0.112 C 
ENDROOT
BRANCH   1   3
ATOM      3  S   UNL d   1     -56.859 -98.982 -44.298  0.00  0.00     0.272 S 
ATOM      4  O   UNL d   1     -56.711 -98.756 -43.518  0.00  0.00    -0.200 OA
ATOM      5  O   UNL d   1     -56.801 -99.248 -45.075  0.00  0.00    -0.200 OA
BRANCH   3   6
ATOM      6  C   UNL d   1     -57.622 -98.926 -44.601  0.00  0.00     0.104 A 
ATOM      7  C   UNL d   1     -58.272 -98.924 -44.089  0.00  0.00     0.013 A 
ATOM      8  C   UNL d   1     -59.036 -98.868 -44.401  0.00  0.00     0.001 A 
ATOM      9  C   UNL d   1     -59.154 -98.814 -45.215  0.00  0.00     0.000 A 
ATOM     10  C   UNL d   1     -58.509 -98.815 -45.727  0.00  0.00     0.001 A 
ATOM     11  C   UNL d   1     -59.926 -98.757 -45.518  0.00  0.00     0.000 C 
ATOM     12  C   UNL d   1     -57.741 -98.871 -45.423  0.00  0.00     0.013 A 
ENDBRANCH   3   6
ENDBRANCH   1   3
BRANCH   1  13
ATOM     13  C   UNL d   1     -56.248-100.043 -45.027  0.00  0.00     0.154 C 
BRANCH  13  14
ATOM     14  C   UNL d   1     -55.792-100.614 -44.643  0.00  0.00     0.298 C 
ATOM     15  N   UNL d   1     -56.096-101.030 -44.000  0.00  0.00    -0.207 NA
ATOM     16  O   UNL d   1     -55.026-100.765 -44.908  0.00  0.00    -0.264 OA
BRANCH  15  17
ATOM     17  C   UNL d   1     -55.633-101.597 -43.624  0.00  0.00     0.088 A 
ATOM     18  C   UNL d   1     -55.193-102.123 -44.074  0.00  0.00     0.040 A 
ATOM     19  C   UNL d   1     -54.729-102.690 -43.697  0.00  0.00     0.101 A 
ATOM     20  N   UNL d   1     -54.712-102.725 -42.875  0.00  0.00    -0.242 NA
ATOM     21  C   UNL d   1     -55.158-102.193 -42.429  0.00  0.00     0.101 A 
ATOM     22  C   UNL d   1     -55.619-101.629 -42.808  0.00  0.00     0.040 A 
ENDBRANCH  15  17
ENDBRANCH  13  14
ENDBRANCH   1  13
TORSDOF 5
ENDMDL
