MODEL 1
REMARK VINA RESULT:      -4.9      0.000      0.000
REMARK  6 active torsions:
REMARK  status: ('A' for Active; 'I' for Inactive)
REMARK    1  A    between atoms: C_13  and  C_3 
REMARK    2  A    between atoms: N_16  and  C_4 
REMARK    3  A    between atoms: N_11  and  C_17 
REMARK    4  A    between atoms: C_20  and  N_16 
REMARK    5  A    between atoms: C_17  and  C_18 
REMARK    6  A    between atoms: C_18  and  C_20 
ROOT
ATOM      1  C   UNL d   1     -41.480-122.519 -53.140  0.00  0.00     0.167 A 
ATOM      2  N   UNL d   1     -41.389-123.072 -52.536  0.00  0.00    -0.195 N 
ATOM      3  C   UNL d   1     -41.649-122.925 -53.829  0.00  0.00     0.057 A 
ATOM      4  C   UNL d   1     -41.213-122.823 -51.771  0.00  0.00     0.167 A 
ATOM      5  N   UNL d   1     -41.503-123.816 -52.858  0.00  0.00    -0.161 NA
ATOM      6  N   UNL d   1     -41.395-121.716 -52.978  0.00  0.00    -0.227 NA
ATOM      7  C   UNL d   1     -41.129-122.014 -51.612  0.00  0.00     0.058 A 
ATOM      8  C   UNL d   1     -41.663-123.730 -53.648  0.00  0.00     0.124 A 
ATOM      9  C   UNL d   1     -41.218-121.467 -52.209  0.00  0.00     0.086 A 
ATOM     10  C   UNL d   1     -41.129-120.666 -52.026  0.00  0.00     0.021 C 
ENDROOT
BRANCH   4  11
ATOM     11  N   UNL d   1     -41.123-123.376 -51.167  0.00  0.00    -0.225 NA
BRANCH  11  12
ATOM     12  C   UNL d   1     -41.288-123.167 -50.388  0.00  0.00     0.102 C 
BRANCH  12  13
ATOM     13  C   UNL d   1     -41.530-123.748 -49.843  0.00  0.00     0.040 C 
BRANCH  13  14
ATOM     14  C   UNL d   1     -41.183-123.780 -49.100  0.00  0.00     0.083 C 
BRANCH  14  15
ATOM     15  N   UNL d   1     -41.655-123.719 -48.421  0.00  0.00    -0.285 N 
ATOM     16  C   UNL d   1     -42.481-123.708 -48.308  0.00  0.00     0.183 A 
ATOM     17  N   UNL d   1     -42.626-123.637 -47.513  0.00  0.00    -0.222 NA
ATOM     18  C   UNL d   1     -41.910-123.602 -47.115  0.00  0.00     0.120 A 
ATOM     19  C   UNL d   1     -41.307-123.652 -47.677  0.00  0.00     0.102 A 
ENDBRANCH  14  15
ENDBRANCH  13  14
ENDBRANCH  12  13
ENDBRANCH  11  12
ENDBRANCH   4  11
BRANCH   3  20
ATOM     20  C   UNL d   1     -41.772-122.519 -54.540  0.00  0.00     0.004 A 
ATOM     21  C   UNL d   1     -42.545-122.359 -54.787  0.00  0.00     0.000 A 
ATOM     22  C   UNL d   1     -42.674-121.957 -55.491  0.00  0.00     0.000 A 
ATOM     23  C   UNL d   1     -42.029-121.710 -55.955  0.00  0.00     0.000 A 
ATOM     24  C   UNL d   1     -41.263-121.873 -55.701  0.00  0.00     0.000 A 
ATOM     25  C   UNL d   1     -41.136-122.278 -54.993  0.00  0.00     0.000 A 
ENDBRANCH   3  20
TORSDOF 6
ENDMDL
MODEL 2
REMARK VINA RESULT:      -2.5      1.306      5.712
REMARK  6 active torsions:
REMARK  status: ('A' for Active; 'I' for Inactive)
REMARK    1  A    between atoms: C_13  and  C_3 
REMARK    2  A    between atoms: N_16  and  C_4 
REMARK    3  A    between atoms: N_11  and  C_17 
REMARK    4  A    between atoms: C_20  and  N_16 
REMARK    5  A    between atoms: C_17  and  C_18 
REMARK    6  A    between atoms: C_18  and  C_20 
ROOT
ATOM      1  C   UNL d   1     -42.236-122.940 -49.722  0.00  0.00     0.167 A 
ATOM      2  N   UNL d   1     -41.784-122.983 -50.410  0.00  0.00    -0.195 N 
ATOM      3  C   UNL d   1     -41.849-123.368 -49.141  0.00  0.00     0.057 A 
ATOM      4  C   UNL d   1     -42.038-122.601 -51.094  0.00  0.00     0.167 A 
ATOM      5  N   UNL d   1     -41.122-123.437 -50.248  0.00  0.00    -0.161 NA
ATOM      6  N   UNL d   1     -42.941-122.516 -49.717  0.00  0.00    -0.227 NA
ATOM      7  C   UNL d   1     -42.749-122.175 -51.087  0.00  0.00     0.058 A 
ATOM      8  C   UNL d   1     -41.158-123.674 -49.474  0.00  0.00     0.124 A 
ATOM      9  C   UNL d   1     -43.195-122.132 -50.406  0.00  0.00     0.086 A 
ATOM     10  C   UNL d   1     -43.899-121.701 -50.423  0.00  0.00     0.021 C 
ENDROOT
BRANCH   4  11
ATOM     11  N   UNL d   1     -41.587-122.644 -51.782  0.00  0.00    -0.225 NA
BRANCH  11  12
ATOM     12  C   UNL d   1     -41.958-122.716 -52.514  0.00  0.00     0.102 C 
BRANCH  12  13
ATOM     13  C   UNL d   1     -41.540-122.535 -53.211  0.00  0.00     0.040 C 
BRANCH  13  14
ATOM     14  C   UNL d   1     -41.707-122.943 -53.904  0.00  0.00     0.083 C 
BRANCH  14  15
ATOM     15  N   UNL d   1     -41.734-122.537 -54.625  0.00  0.00    -0.285 N 
ATOM     16  C   UNL d   1     -41.143-122.304 -55.165  0.00  0.00     0.183 A 
ATOM     17  N   UNL d   1     -41.501-121.917 -55.782  0.00  0.00    -0.222 NA
ATOM     18  C   UNL d   1     -42.310-121.899 -55.648  0.00  0.00     0.120 A 
ATOM     19  C   UNL d   1     -42.456-122.282 -54.932  0.00  0.00     0.102 A 
ENDBRANCH  14  15
ENDBRANCH  13  14
ENDBRANCH  12  13
ENDBRANCH  11  12
ENDBRANCH   4  11
BRANCH   3  20
ATOM     20  C   UNL d   1     -42.167-123.430 -48.379  0.00  0.00     0.004 A 
ATOM     21  C   UNL d   1     -41.727-123.158 -47.733  0.00  0.00     0.000 A 
ATOM     22  C   UNL d   1     -42.036-123.216 -46.975  0.00  0.00     0.000 A 
ATOM     23  C   UNL d   1     -42.790-123.549 -46.856  0.00  0.00     0.000 A 
ATOM     24  C   UNL d   1     -43.221-123.817 -47.505  0.00  0.00     0.000 A 
ATOM     25  C   UNL d   1     -42.907-123.757 -48.266  0.00  0.00     0.000 A 
ENDBRANCH   3  20
TORSDOF 6
ENDMDL
