MODEL 1
REMARK VINA RESULT:      -4.1      0.000      0.000
REMARK  2 active torsions:
REMARK  status: ('A' for Active; 'I' for Inactive)
REMARK       I    between atoms: C_2  and  N_1 
REMARK    1  A    between atoms: C_4  and  C_2 
REMARK    2  A    between atoms: C_6  and  C_7 
ROOT
ATOM      1  C   UNL d   1      57.909   0.132  31.719  0.00  0.00     0.057 A 
ATOM      2  C   UNL d   1      56.480  -0.077  32.539  0.00  0.00    -0.023 A 
ATOM      3  C   UNL d   1      57.429  -0.527  31.548  0.00  0.00     0.004 A 
ATOM      4  C   UNL d   1      57.695   0.681  32.281  0.00  0.00     0.004 A 
ATOM      5  C   UNL d   1      56.694  -0.626  31.976  0.00  0.00    -0.004 A 
ATOM      6  C   UNL d   1      56.960   0.582  32.709  0.00  0.00    -0.004 A 
ENDROOT
BRANCH   1   7
ATOM      7  C   UNL d   1      58.615   0.236  31.314  0.00  0.00     0.267 C 
ATOM      8  N   UNL d   1      58.597   0.369  30.487  0.00  0.00    -0.240 N 
ATOM      9  C   UNL d   1      57.872   0.398  30.072  0.00  0.00     0.267 A 
ATOM     10  C   UNL d   1      59.352   0.463  30.157  0.00  0.00     0.086 A 
ATOM     11  O   UNL d   1      57.147   0.279  30.567  0.00  0.00    -0.267 OA
ATOM     12  C   UNL d   1      57.711   0.519  29.274  0.00  0.00     0.061 A 
ATOM     13  C   UNL d   1      58.290   0.650  28.655  0.00  0.00     0.005 A 
ATOM     14  C   UNL d   1      59.055   0.682  28.713  0.00  0.00     0.002 A 
ATOM     15  C   UNL d   1      59.555   0.602  29.369  0.00  0.00     0.019 A 
ATOM     16  O   UNL d   1      59.324   0.211  31.701  0.00  0.00    -0.267 OA
ENDBRANCH   1   7
BRANCH   2  17
ATOM     17  C   UNL d   1      55.770  -0.183  32.944  0.00  0.00     0.019 C 
ATOM     18  C   UNL d   1      55.868  -0.998  32.922  0.00  0.00     0.004 C 
ATOM     19  C   UNL d   1      55.060  -0.284  33.349  0.00  0.00     0.004 C 
ATOM     20  C   UNL d   1      55.671   0.637  32.966  0.00  0.00     0.004 C 
ENDBRANCH   2  17
TORSDOF 2
ENDMDL
MODEL 2
REMARK VINA RESULT:      -3.4      1.387      1.416
REMARK  2 active torsions:
REMARK  status: ('A' for Active; 'I' for Inactive)
REMARK       I    between atoms: C_2  and  N_1 
REMARK    1  A    between atoms: C_4  and  C_2 
REMARK    2  A    between atoms: C_6  and  C_7 
ROOT
ATOM      1  C   UNL d   1      57.745  -0.076  31.017  0.00  0.00     0.057 A 
ATOM      2  C   UNL d   1      56.531  -0.223  32.142  0.00  0.00    -0.023 A 
ATOM      3  C   UNL d   1      57.646  -0.796  31.424  0.00  0.00     0.004 A 
ATOM      4  C   UNL d   1      57.260   0.563  31.157  0.00  0.00     0.004 A 
ATOM      5  C   UNL d   1      57.017  -0.863  32.001  0.00  0.00    -0.004 A 
ATOM      6  C   UNL d   1      56.631   0.496  31.735  0.00  0.00    -0.004 A 
ENDROOT
BRANCH   1   7
ATOM      7  C   UNL d   1      58.345  -0.002  30.461  0.00  0.00     0.267 C 
ATOM      8  N   UNL d   1      58.515  -0.648  29.956  0.00  0.00    -0.240 N 
ATOM      9  C   UNL d   1      58.083  -1.362  30.009  0.00  0.00     0.267 A 
ATOM     10  C   UNL d   1      59.133  -0.491  29.426  0.00  0.00     0.086 A 
ATOM     11  O   UNL d   1      57.451  -1.376  30.629  0.00  0.00    -0.267 OA
ATOM     12  C   UNL d   1      58.144  -2.063  29.583  0.00  0.00     0.061 A 
ATOM     13  C   UNL d   1      58.699  -2.223  28.950  0.00  0.00     0.005 A 
ATOM     14  C   UNL d   1      59.238  -1.763  28.656  0.00  0.00     0.002 A 
ATOM     15  C   UNL d   1      59.454  -0.986  28.849  0.00  0.00     0.019 A 
ATOM     16  O   UNL d   1      58.770   0.682  30.398  0.00  0.00    -0.267 OA
ENDBRANCH   1   7
BRANCH   2  17
ATOM     17  C   UNL d   1      55.930  -0.300  32.700  0.00  0.00     0.019 C 
ATOM     18  C   UNL d   1      55.986  -1.118  32.662  0.00  0.00     0.004 C 
ATOM     19  C   UNL d   1      55.329  -0.370  33.258  0.00  0.00     0.004 C 
ATOM     20  C   UNL d   1      55.875   0.524  32.738  0.00  0.00     0.004 C 
ENDBRANCH   2  17
TORSDOF 2
ENDMDL
