MODEL 1
REMARK VINA RESULT:     151.0      0.000      0.000
REMARK  9 active torsions:
REMARK  status: ('A' for Active; 'I' for Inactive)
REMARK    1  A    between atoms: N_8  and  C_1 
REMARK    2  A    between atoms: S_2  and  C_13 
REMARK    3  A    between atoms: N_7  and  S_2 
REMARK    4  A    between atoms: C_12  and  C_3 
REMARK       I    between atoms: C_10  and  N_8 
REMARK       I    between atoms: C_11  and  N_9 
REMARK    5  A    between atoms: C_21  and  C_10 
REMARK    6  A    between atoms: O_33  and  C_11 
REMARK    7  A    between atoms: C_34  and  N_14 
REMARK    8  A    between atoms: C_35  and  O_33 
REMARK    9  A    between atoms: C_36  and  C_34 
ROOT
ATOM      1  C   UNL d   1      62.086  42.555  50.629  0.00  0.00     0.104 A 
ATOM      2  C   UNL d   1      61.768  44.153  50.888  0.00  0.00     0.056 A 
ATOM      3  C   UNL d   1      61.875  42.825  51.385  0.00  0.00     0.013 A 
ATOM      4  C   UNL d   1      62.137  43.094  49.998  0.00  0.00     0.013 A 
ATOM      5  C   UNL d   1      61.716  43.620  51.517  0.00  0.00     0.005 A 
ATOM      6  C   UNL d   1      61.976  43.897  50.134  0.00  0.00     0.005 A 
ENDROOT
BRANCH   2   7
ATOM      7  C   UNL d   1      61.609  44.956  51.015  0.00  0.00     0.258 C 
ATOM      8  N   UNL d   1      61.452  45.455  50.367  0.00  0.00    -0.316 N 
ATOM      9  H   UNL d   1      61.543  44.902  50.054  0.00  0.00     0.169 HD
ATOM     10  O   UNL d   1      61.604  45.268  51.781  0.00  0.00    -0.267 OA
BRANCH   8  11
ATOM     11  C   UNL d   1      61.293  46.257  50.494  0.00  0.00     0.094 A 
ATOM     12  C   UNL d   1      61.627  46.888  50.083  0.00  0.00     0.082 A 
ATOM     13  C   UNL d   1      61.320  47.594  50.380  0.00  0.00     0.016 A 
ATOM     14  C   UNL d   1      61.453  48.386  50.183  0.00  0.00     0.020 A 
ATOM     15  C   UNL d   1      60.789  47.409  50.982  0.00  0.00     0.049 A 
ATOM     16  C   UNL d   1      61.056  48.983  50.587  0.00  0.00     0.080 A 
ATOM     17  N   UNL d   1      60.525  48.803  51.188  0.00  0.00    -0.302 N 
ATOM     18  C   UNL d   1      60.389  48.013  51.389  0.00  0.00     0.087 A 
ATOM     19  S   UNL d   1      60.765  46.583  51.060  0.00  0.00    -0.068 SA
BRANCH  12  20
ATOM     20  C   UNL d   1      62.177  46.835  49.476  0.00  0.00     0.299 C 
ATOM     21  O   UNL d   1      62.829  47.320  49.471  0.00  0.00    -0.264 OA
ATOM     22  N   UNL d   1      62.063  46.290  48.874  0.00  0.00    -0.102 N 
ENDBRANCH  12  20
BRANCH  17  23
ATOM     23  C   UNL d   1      60.131  49.403  51.589  0.00  0.00     0.080 C 
BRANCH  23  24
ATOM     24  C   UNL d   1      60.430  49.703  52.298  0.00  0.00     0.019 C 
ATOM     25  C   UNL d   1      61.239  49.708  52.429  0.00  0.00     0.002 C 
ENDBRANCH  23  24
ENDBRANCH  17  23
ENDBRANCH   8  11
ENDBRANCH   2   7
BRANCH   1  26
ATOM     26  S   UNL d   1      62.246  41.753  50.498  0.00  0.00     0.271 S 
ATOM     27  O   UNL d   1      62.144  41.902  49.686  0.00  0.00    -0.200 OA
ATOM     28  O   UNL d   1      62.347  41.607  51.303  0.00  0.00    -0.200 OA
BRANCH  26  29
ATOM     29  N   UNL d   1      62.405  40.955  50.365  0.00  0.00    -0.226 N 
ATOM     30  C   UNL d   1      62.693  40.702  49.639  0.00  0.00     0.111 A 
ATOM     31  C   UNL d   1      62.848  39.897  49.520  0.00  0.00     0.105 A 
ATOM     32  N   UNL d   1      62.715  39.350  50.125  0.00  0.00    -0.248 N 
ATOM     33  C   UNL d   1      62.426  39.607  50.850  0.00  0.00     0.105 A 
ATOM     34  C   UNL d   1      62.869  38.555  50.003  0.00  0.00     0.378 C 
ATOM     35  C   UNL d   1      62.274  40.406  50.965  0.00  0.00     0.111 A 
ATOM     36  O   UNL d   1      63.157  38.303  49.277  0.00  0.00    -0.237 OA
BRANCH  34  37
ATOM     37  O   UNL d   1      62.736  38.019  50.604  0.00  0.00    -0.257 OA
BRANCH  37  38
ATOM     38  C   UNL d   1      62.680  37.222  50.436  0.00  0.00     0.128 C 
ATOM     39  C   UNL d   1      63.133  36.672  50.863  0.00  0.00     0.029 C 
ENDBRANCH  37  38
ENDBRANCH  34  37
ENDBRANCH  26  29
ENDBRANCH   1  26
TORSDOF 9
ENDMDL
