MODEL 1
REMARK VINA RESULT:      -7.4      0.000      0.000
REMARK  4 active torsions:
REMARK  status: ('A' for Active; 'I' for Inactive)
REMARK    1  A    between atoms: C_2  and  C_1 
REMARK    2  A    between atoms: N_12  and  C_6 
REMARK    3  A    between atoms: C_16  and  N_12 
REMARK    4  A    between atoms: O_25  and  C_17 
ROOT
ATOM      1  C   UNL d   1     -46.239  13.148  22.566  0.00  0.00     0.082 A 
ATOM      2  C   UNL d   1     -46.125  12.570  23.146  0.00  0.00     0.302 A 
ATOM      3  C   UNL d   1     -45.637  13.306  22.006  0.00  0.00     0.009 A 
ATOM      4  O   UNL d   1     -45.415  12.142  23.178  0.00  0.00    -0.273 OA
ATOM      5  C   UNL d   1     -44.932  12.876  22.042  0.00  0.00     0.025 A 
ATOM      6  C   UNL d   1     -44.816  12.292  22.628  0.00  0.00     0.103 A 
ATOM      7  O   UNL d   1     -46.723  12.418  23.698  0.00  0.00    -0.259 OA
ATOM      8  C   UNL d   1     -44.338  13.030  21.491  0.00  0.00     0.026 A 
ATOM      9  C   UNL d   1     -44.109  11.872  22.651  0.00  0.00     0.027 A 
ATOM     10  C   UNL d   1     -43.632  12.603  21.524  0.00  0.00     0.094 A 
ATOM     11  C   UNL d   1     -43.518  12.027  22.101  0.00  0.00     0.026 A 
ENDROOT
BRANCH   1  12
ATOM     12  C   UNL d   1     -46.944  13.570  22.538  0.00  0.00     0.095 A 
ATOM     13  N   UNL d   1     -47.647  13.314  22.212  0.00  0.00    -0.221 NA
ATOM     14  C   UNL d   1     -48.206  13.909  22.305  0.00  0.00     0.194 A 
ATOM     15  S   UNL d   1     -47.844  14.537  22.690  0.00  0.00    -0.046 SA
ATOM     16  C   UNL d   1     -47.055  14.328  22.837  0.00  0.00     0.058 A 
BRANCH  14  17
ATOM     17  N   UNL d   1     -48.989  13.877  22.054  0.00  0.00    -0.221 NA
BRANCH  17  18
ATOM     18  C   UNL d   1     -49.509  13.349  22.420  0.00  0.00     0.084 A 
ATOM     19  C   UNL d   1     -49.882  13.571  23.125  0.00  0.00     0.022 A 
ATOM     20  C   UNL d   1     -50.398  13.056  23.495  0.00  0.00     0.044 A 
ATOM     21  C   UNL d   1     -50.542  12.314  23.156  0.00  0.00     0.196 A 
ATOM     22  C   UNL d   1     -50.168  12.096  22.451  0.00  0.00     0.044 A 
ATOM     23  O   UNL d   1     -51.064  11.792  23.528  0.00  0.00    -0.287 OA
ATOM     24  C   UNL d   1     -49.652  12.621  22.089  0.00  0.00     0.022 A 
ENDBRANCH  17  18
ENDBRANCH  14  17
ENDBRANCH   1  12
BRANCH  10  25
ATOM     25  O   UNL d   1     -43.041  12.757  20.975  0.00  0.00    -0.328 OA
ATOM     26  C   UNL d   1     -42.454  13.308  21.145  0.00  0.00     0.181 C 
ENDBRANCH  10  25
TORSDOF 4
ENDMDL
MODEL 2
REMARK VINA RESULT:      -7.2      1.688      5.351
REMARK  4 active torsions:
REMARK  status: ('A' for Active; 'I' for Inactive)
REMARK    1  A    between atoms: C_2  and  C_1 
REMARK    2  A    between atoms: N_12  and  C_6 
REMARK    3  A    between atoms: C_16  and  N_12 
REMARK    4  A    between atoms: O_25  and  C_17 
ROOT
ATOM      1  C   UNL d   1     -48.738  12.716  22.690  0.00  0.00     0.082 A 
ATOM      2  C   UNL d   1     -49.096  12.322  22.057  0.00  0.00     0.302 A 
ATOM      3  C   UNL d   1     -49.054  13.441  22.965  0.00  0.00     0.009 A 
ATOM      4  O   UNL d   1     -49.769  12.639  21.690  0.00  0.00    -0.273 OA
ATOM      5  C   UNL d   1     -49.726  13.752  22.596  0.00  0.00     0.025 A 
ATOM      6  C   UNL d   1     -50.086  13.354  21.957  0.00  0.00     0.103 A 
ATOM      7  O   UNL d   1     -48.779  11.605  21.788  0.00  0.00    -0.259 OA
ATOM      8  C   UNL d   1     -50.039  14.466  22.866  0.00  0.00     0.026 A 
ATOM      9  C   UNL d   1     -50.754  13.677  21.600  0.00  0.00     0.027 A 
ATOM     10  C   UNL d   1     -50.709  14.780  22.500  0.00  0.00     0.094 A 
ATOM     11  C   UNL d   1     -51.064  14.388  21.870  0.00  0.00     0.026 A 
ENDROOT
BRANCH   1  12
ATOM     12  C   UNL d   1     -48.072  12.398  23.050  0.00  0.00     0.095 A 
ATOM     13  N   UNL d   1     -47.341  12.757  23.116  0.00  0.00    -0.221 NA
ATOM     14  C   UNL d   1     -46.838  12.245  23.514  0.00  0.00     0.194 A 
ATOM     15  S   UNL d   1     -47.261  11.565  23.695  0.00  0.00    -0.046 SA
ATOM     16  C   UNL d   1     -48.032  11.658  23.406  0.00  0.00     0.058 A 
BRANCH  14  17
ATOM     17  N   UNL d   1     -46.049  12.391  23.698  0.00  0.00    -0.221 NA
BRANCH  17  18
ATOM     18  C   UNL d   1     -45.499  12.468  23.085  0.00  0.00     0.084 A 
ATOM     19  C   UNL d   1     -44.958  11.857  22.947  0.00  0.00     0.022 A 
ATOM     20  C   UNL d   1     -44.411  11.924  22.343  0.00  0.00     0.044 A 
ATOM     21  C   UNL d   1     -44.405  12.608  21.876  0.00  0.00     0.196 A 
ATOM     22  C   UNL d   1     -44.948  13.216  22.018  0.00  0.00     0.044 A 
ATOM     23  O   UNL d   1     -43.852  12.677  21.265  0.00  0.00    -0.287 OA
ATOM     24  C   UNL d   1     -45.492  13.138  22.625  0.00  0.00     0.022 A 
ENDBRANCH  17  18
ENDBRANCH  14  17
ENDBRANCH   1  12
BRANCH  10  25
ATOM     25  O   UNL d   1     -51.020  15.491  22.770  0.00  0.00    -0.328 OA
ATOM     26  C   UNL d   1     -51.040  15.652  23.576  0.00  0.00     0.181 C 
ENDBRANCH  10  25
TORSDOF 4
ENDMDL
MODEL 3
REMARK VINA RESULT:      -5.3      1.448      2.071
REMARK  4 active torsions:
REMARK  status: ('A' for Active; 'I' for Inactive)
REMARK    1  A    between atoms: C_2  and  C_1 
REMARK    2  A    between atoms: N_12  and  C_6 
REMARK    3  A    between atoms: C_16  and  N_12 
REMARK    4  A    between atoms: O_25  and  C_17 
ROOT
ATOM      1  C   UNL d   1     -46.347  12.572  23.021  0.00  0.00     0.082 A 
ATOM      2  C   UNL d   1     -45.829  13.004  22.543  0.00  0.00     0.302 A 
ATOM      3  C   UNL d   1     -46.103  11.844  23.355  0.00  0.00     0.009 A 
ATOM      4  O   UNL d   1     -45.065  12.720  22.389  0.00  0.00    -0.273 OA
ATOM      5  C   UNL d   1     -45.340  11.566  23.198  0.00  0.00     0.025 A 
ATOM      6  C   UNL d   1     -44.817  12.002  22.715  0.00  0.00     0.103 A 
ATOM      7  O   UNL d   1     -46.074  13.724  22.215  0.00  0.00    -0.259 OA
ATOM      8  C   UNL d   1     -45.098  10.849  23.526  0.00  0.00     0.026 A 
ATOM      9  C   UNL d   1     -44.061  11.712  22.568  0.00  0.00     0.027 A 
ATOM     10  C   UNL d   1     -44.337  10.568  23.371  0.00  0.00     0.094 A 
ATOM     11  C   UNL d   1     -43.821  10.997  22.895  0.00  0.00     0.026 A 
ENDROOT
BRANCH   1  12
ATOM     12  C   UNL d   1     -47.103  12.857  23.171  0.00  0.00     0.095 A 
ATOM     13  N   UNL d   1     -47.804  12.460  23.037  0.00  0.00    -0.221 NA
ATOM     14  C   UNL d   1     -48.424  12.948  23.265  0.00  0.00     0.194 A 
ATOM     15  S   UNL d   1     -48.104  13.651  23.541  0.00  0.00    -0.046 SA
ATOM     16  C   UNL d   1     -47.278  13.597  23.483  0.00  0.00     0.058 A 
BRANCH  14  17
ATOM     17  N   UNL d   1     -49.224  12.761  23.222  0.00  0.00    -0.221 NA
BRANCH  17  18
ATOM     18  C   UNL d   1     -49.687  13.099  22.626  0.00  0.00     0.084 A 
ATOM     19  C   UNL d   1     -49.874  12.652  21.955  0.00  0.00     0.022 A 
ATOM     20  C   UNL d   1     -50.331  12.978  21.360  0.00  0.00     0.044 A 
ATOM     21  C   UNL d   1     -50.602  13.757  21.438  0.00  0.00     0.196 A 
ATOM     22  C   UNL d   1     -50.413  14.200  22.110  0.00  0.00     0.044 A 
ATOM     23  O   UNL d   1     -51.064  14.088  20.838  0.00  0.00    -0.287 OA
ATOM     24  C   UNL d   1     -49.954  13.864  22.701  0.00  0.00     0.022 A 
ENDBRANCH  17  18
ENDBRANCH  14  17
ENDBRANCH   1  12
BRANCH  10  25
ATOM     25  O   UNL d   1     -44.097   9.854  23.698  0.00  0.00    -0.328 OA
ATOM     26  C   UNL d   1     -43.312   9.614  23.632  0.00  0.00     0.181 C 
ENDBRANCH  10  25
TORSDOF 4
ENDMDL
MODEL 4
REMARK VINA RESULT:      -4.6      1.374      5.279
REMARK  4 active torsions:
REMARK  status: ('A' for Active; 'I' for Inactive)
REMARK    1  A    between atoms: C_2  and  C_1 
REMARK    2  A    between atoms: N_12  and  C_6 
REMARK    3  A    between atoms: C_16  and  N_12 
REMARK    4  A    between atoms: O_25  and  C_17 
ROOT
ATOM      1  C   UNL d   1     -48.000  14.004  22.775  0.00  0.00     0.082 A 
ATOM      2  C   UNL d   1     -48.360  14.714  22.550  0.00  0.00     0.302 A 
ATOM      3  C   UNL d   1     -48.466  13.367  23.054  0.00  0.00     0.009 A 
ATOM      4  O   UNL d   1     -49.183  14.802  22.599  0.00  0.00    -0.273 OA
ATOM      5  C   UNL d   1     -49.287  13.460  23.100  0.00  0.00     0.025 A 
ATOM      6  C   UNL d   1     -49.650  14.177  22.873  0.00  0.00     0.103 A 
ATOM      7  O   UNL d   1     -47.895  15.341  22.274  0.00  0.00    -0.259 OA
ATOM      8  C   UNL d   1     -49.748  12.834  23.375  0.00  0.00     0.026 A 
ATOM      9  C   UNL d   1     -50.468  14.254  22.925  0.00  0.00     0.027 A 
ATOM     10  C   UNL d   1     -50.568  12.923  23.423  0.00  0.00     0.094 A 
ATOM     11  C   UNL d   1     -50.925  13.629  23.199  0.00  0.00     0.026 A 
ENDROOT
BRANCH   1  12
ATOM     12  C   UNL d   1     -47.184  13.922  22.725  0.00  0.00     0.095 A 
ATOM     13  N   UNL d   1     -46.774  13.520  22.143  0.00  0.00    -0.221 NA
ATOM     14  C   UNL d   1     -45.972  13.578  22.308  0.00  0.00     0.194 A 
ATOM     15  S   UNL d   1     -45.886  14.018  22.996  0.00  0.00    -0.046 SA
ATOM     16  C   UNL d   1     -46.642  14.234  23.258  0.00  0.00     0.058 A 
BRANCH  14  17
ATOM     17  N   UNL d   1     -45.364  13.250  21.860  0.00  0.00    -0.221 NA
BRANCH  17  18
ATOM     18  C   UNL d   1     -44.904  12.645  22.185  0.00  0.00     0.084 A 
ATOM     19  C   UNL d   1     -44.105  12.586  21.975  0.00  0.00     0.022 A 
ATOM     20  C   UNL d   1     -43.642  11.990  22.291  0.00  0.00     0.044 A 
ATOM     21  C   UNL d   1     -43.982  11.450  22.820  0.00  0.00     0.196 A 
ATOM     22  C   UNL d   1     -44.780  11.513  23.027  0.00  0.00     0.044 A 
ATOM     23  O   UNL d   1     -43.515  10.848  23.140  0.00  0.00    -0.287 OA
ATOM     24  C   UNL d   1     -45.235  12.114  22.704  0.00  0.00     0.022 A 
ENDBRANCH  17  18
ENDBRANCH  14  17
ENDBRANCH   1  12
BRANCH  10  25
ATOM     25  O   UNL d   1     -51.026  12.299  23.697  0.00  0.00    -0.328 OA
ATOM     26  C   UNL d   1     -50.746  11.527  23.641  0.00  0.00     0.181 C 
ENDBRANCH  10  25
TORSDOF 4
ENDMDL
MODEL 5
REMARK VINA RESULT:      -4.5      6.663      8.971
REMARK  4 active torsions:
REMARK  status: ('A' for Active; 'I' for Inactive)
REMARK    1  A    between atoms: C_2  and  C_1 
REMARK    2  A    between atoms: N_12  and  C_6 
REMARK    3  A    between atoms: C_16  and  N_12 
REMARK    4  A    between atoms: O_25  and  C_17 
ROOT
ATOM      1  C   UNL d   1     -38.446  13.623  18.709  0.00  0.00     0.082 A 
ATOM      2  C   UNL d   1     -38.370  12.831  18.483  0.00  0.00     0.302 A 
ATOM      3  C   UNL d   1     -38.425  14.228  18.132  0.00  0.00     0.009 A 
ATOM      4  O   UNL d   1     -38.273  12.630  17.685  0.00  0.00    -0.273 OA
ATOM      5  C   UNL d   1     -38.328  14.022  17.337  0.00  0.00     0.025 A 
ATOM      6  C   UNL d   1     -38.252  13.222  17.109  0.00  0.00     0.103 A 
ATOM      7  O   UNL d   1     -38.391  12.235  19.058  0.00  0.00    -0.259 OA
ATOM      8  C   UNL d   1     -38.308  14.617  16.766  0.00  0.00     0.026 A 
ATOM      9  C   UNL d   1     -38.156  13.032  16.313  0.00  0.00     0.027 A 
ATOM     10  C   UNL d   1     -38.211  14.415  15.971  0.00  0.00     0.094 A 
ATOM     11  C   UNL d   1     -38.136  13.627  15.746  0.00  0.00     0.026 A 
ENDROOT
BRANCH   1  12
ATOM     12  C   UNL d   1     -38.541  13.818  19.502  0.00  0.00     0.095 A 
ATOM     13  N   UNL d   1     -39.238  13.781  19.927  0.00  0.00    -0.221 NA
ATOM     14  C   UNL d   1     -39.082  14.025  20.696  0.00  0.00     0.194 A 
ATOM     15  S   UNL d   1     -38.285  14.212  20.746  0.00  0.00    -0.046 SA
ATOM     16  C   UNL d   1     -37.944  14.083  20.001  0.00  0.00     0.058 A 
BRANCH  14  17
ATOM     17  N   UNL d   1     -39.632  14.071  21.307  0.00  0.00    -0.221 NA
BRANCH  17  18
ATOM     18  C   UNL d   1     -40.306  14.541  21.209  0.00  0.00     0.084 A 
ATOM     19  C   UNL d   1     -41.021  14.184  20.995  0.00  0.00     0.022 A 
ATOM     20  C   UNL d   1     -41.693  14.640  20.897  0.00  0.00     0.044 A 
ATOM     21  C   UNL d   1     -41.646  15.459  21.013  0.00  0.00     0.196 A 
ATOM     22  C   UNL d   1     -40.929  15.811  21.227  0.00  0.00     0.044 A 
ATOM     23  O   UNL d   1     -42.324  15.922  20.914  0.00  0.00    -0.287 OA
ATOM     24  C   UNL d   1     -40.262  15.345  21.323  0.00  0.00     0.022 A 
ENDBRANCH  17  18
ENDBRANCH  14  17
ENDBRANCH   1  12
BRANCH  10  25
ATOM     25  O   UNL d   1     -38.191  15.008  15.404  0.00  0.00    -0.328 OA
ATOM     26  C   UNL d   1     -37.993  15.777  15.619  0.00  0.00     0.181 C 
ENDBRANCH  10  25
TORSDOF 4
ENDMDL
