MODEL 1
REMARK VINA RESULT:      -6.6      0.000      0.000
REMARK  4 active torsions:
REMARK  status: ('A' for Active; 'I' for Inactive)
REMARK    1  A    between atoms: S_6  and  C_2 
REMARK    2  A    between atoms: C_8  and  C_3 
REMARK    3  A    between atoms: C_10  and  S_6 
REMARK    4  A    between atoms: C_7  and  C_10 
ROOT
ATOM      1  N   UNL d   1     -48.307  13.897  22.912  0.00  0.00    -0.282 N 
ATOM      2  C   UNL d   1     -47.504  13.994  22.743  0.00  0.00     0.180 A 
ATOM      3  C   UNL d   1     -48.679  14.621  22.807  0.00  0.00     0.085 A 
ATOM      4  N   UNL d   1     -47.379  14.786  22.531  0.00  0.00    -0.219 NA
ATOM      5  C   UNL d   1     -48.114  15.173  22.573  0.00  0.00     0.119 A 
ATOM      6  C   UNL d   1     -48.674  13.171  23.152  0.00  0.00     0.101 C 
ENDROOT
BRANCH   3   7
ATOM      7  C   UNL d   1     -49.476  14.805  22.909  0.00  0.00     0.018 A 
ATOM      8  C   UNL d   1     -50.018  14.580  22.332  0.00  0.00     0.002 A 
ATOM      9  C   UNL d   1     -50.819  14.763  22.431  0.00  0.00     0.000 A 
ATOM     10  C   UNL d   1     -51.064  15.174  23.117  0.00  0.00     0.000 A 
ATOM     11  C   UNL d   1     -50.523  15.390  23.679  0.00  0.00     0.000 A 
ATOM     12  C   UNL d   1     -49.718  15.208  23.582  0.00  0.00     0.002 A 
ENDBRANCH   3   7
BRANCH   2  13
ATOM     13  S   UNL d   1     -46.915  13.402  22.777  0.00  0.00    -0.044 SA
BRANCH  13  14
ATOM     14  C   UNL d   1     -46.123  13.601  22.624  0.00  0.00     0.102 C 
BRANCH  14  15
ATOM     15  C   UNL d   1     -45.557  13.009  22.570  0.00  0.00     0.303 C 
ATOM     16  O   UNL d   1     -45.440  12.498  23.220  0.00  0.00    -0.263 OA
ATOM     17  N   UNL d   1     -45.113  12.924  21.884  0.00  0.00    -0.102 N 
ENDBRANCH  14  15
ENDBRANCH  13  14
ENDBRANCH   2  13
TORSDOF 4
ENDMDL
MODEL 2
REMARK VINA RESULT:      -6.0      1.949      4.110
REMARK  4 active torsions:
REMARK  status: ('A' for Active; 'I' for Inactive)
REMARK    1  A    between atoms: S_6  and  C_2 
REMARK    2  A    between atoms: C_8  and  C_3 
REMARK    3  A    between atoms: C_10  and  S_6 
REMARK    4  A    between atoms: C_7  and  C_10 
ROOT
ATOM      1  N   UNL d   1     -48.206  13.604  22.680  0.00  0.00    -0.282 N 
ATOM      2  C   UNL d   1     -48.646  14.301  22.742  0.00  0.00     0.180 A 
ATOM      3  C   UNL d   1     -47.416  13.791  22.803  0.00  0.00     0.085 A 
ATOM      4  N   UNL d   1     -48.123  14.923  22.904  0.00  0.00    -0.219 NA
ATOM      5  C   UNL d   1     -47.358  14.601  22.941  0.00  0.00     0.119 A 
ATOM      6  C   UNL d   1     -48.523  12.835  22.519  0.00  0.00     0.101 C 
ENDROOT
BRANCH   3   7
ATOM      7  C   UNL d   1     -46.765  13.285  22.797  0.00  0.00     0.018 A 
ATOM      8  C   UNL d   1     -46.164  13.408  22.249  0.00  0.00     0.002 A 
ATOM      9  C   UNL d   1     -45.509  12.901  22.241  0.00  0.00     0.000 A 
ATOM     10  C   UNL d   1     -45.470  12.273  22.791  0.00  0.00     0.000 A 
ATOM     11  C   UNL d   1     -46.067  12.162  23.327  0.00  0.00     0.000 A 
ATOM     12  C   UNL d   1     -46.725  12.668  23.337  0.00  0.00     0.002 A 
ENDBRANCH   3   7
BRANCH   2  13
ATOM     13  S   UNL d   1     -49.475  14.372  22.656  0.00  0.00    -0.044 SA
BRANCH  13  14
ATOM     14  C   UNL d   1     -49.837  15.111  22.765  0.00  0.00     0.102 C 
BRANCH  14  15
ATOM     15  C   UNL d   1     -50.656  15.168  22.766  0.00  0.00     0.303 C 
ATOM     16  O   UNL d   1     -51.064  15.155  22.037  0.00  0.00    -0.263 OA
ATOM     17  N   UNL d   1     -51.064  15.237  23.475  0.00  0.00    -0.102 N 
ENDBRANCH  14  15
ENDBRANCH  13  14
ENDBRANCH   2  13
TORSDOF 4
ENDMDL
