MODEL 1
REMARK VINA RESULT:      -7.6      0.000      0.000
REMARK  5 active torsions:
REMARK  status: ('A' for Active; 'I' for Inactive)
REMARK    1  A    between atoms: N_2  and  S_1 
REMARK    2  A    between atoms: C_4  and  S_1 
REMARK    3  A    between atoms: C_3  and  N_2 
REMARK    4  A    between atoms: N_7  and  C_3 
REMARK    5  A    between atoms: C_15  and  N_7 
ROOT
ATOM      1  S   UNL d   1      51.023  34.046  52.804  0.00  0.00     0.287 S 
ATOM      2  O   UNL d   1      50.563  33.636  53.364  0.00  0.00    -0.198 OA
ATOM      3  O   UNL d   1      51.462  34.459  52.240  0.00  0.00    -0.198 OA
ENDROOT
BRANCH   1   4
ATOM      4  N   UNL d   1      51.717  33.804  53.182  0.00  0.00    -0.128 NA
BRANCH   4   5
ATOM      5  C   UNL d   1      52.448  33.399  53.156  0.00  0.00     0.232 C 
ATOM      6  S   UNL d   1      52.462  32.589  53.027  0.00  0.00    -0.036 SA
BRANCH   5   7
ATOM      7  N   UNL d   1      53.148  33.823  53.262  0.00  0.00    -0.217 NA
BRANCH   7   8
ATOM      8  C   UNL d   1      53.653  33.626  53.886  0.00  0.00     0.084 A 
ATOM      9  C   UNL d   1      53.613  34.043  54.591  0.00  0.00     0.019 A 
ATOM     10  C   UNL d   1      54.111  33.850  55.212  0.00  0.00     0.002 A 
ATOM     11  C   UNL d   1      54.653  33.240  55.133  0.00  0.00     0.000 A 
ATOM     12  C   UNL d   1      54.695  32.818  54.425  0.00  0.00     0.002 A 
ATOM     13  C   UNL d   1      54.195  33.010  53.801  0.00  0.00     0.019 A 
ENDBRANCH   7   8
ENDBRANCH   5   7
ENDBRANCH   4   5
ENDBRANCH   1   4
BRANCH   1  14
ATOM     14  C   UNL d   1      50.325  34.290  52.423  0.00  0.00     0.105 A 
ATOM     15  C   UNL d   1      49.746  34.716  52.846  0.00  0.00     0.014 A 
ATOM     16  C   UNL d   1      49.057  34.956  52.471  0.00  0.00     0.012 A 
ATOM     17  C   UNL d   1      48.936  34.777  51.675  0.00  0.00     0.058 A 
ATOM     18  C   UNL d   1      49.507  34.354  51.250  0.00  0.00     0.012 A 
ATOM     19 CL   UNL d   1      48.247  35.017  51.299  0.00  0.00    -0.082 Cl
ATOM     20  C   UNL d   1      50.200  34.113  51.628  0.00  0.00     0.014 A 
ENDBRANCH   1  14
TORSDOF 5
ENDMDL
MODEL 2
REMARK VINA RESULT:      -6.9      2.037      4.743
REMARK  5 active torsions:
REMARK  status: ('A' for Active; 'I' for Inactive)
REMARK    1  A    between atoms: N_2  and  S_1 
REMARK    2  A    between atoms: C_4  and  S_1 
REMARK    3  A    between atoms: C_3  and  N_2 
REMARK    4  A    between atoms: N_7  and  C_3 
REMARK    5  A    between atoms: C_15  and  N_7 
ROOT
ATOM      1  S   UNL d   1      52.341  34.180  53.660  0.00  0.00     0.287 S 
ATOM      2  O   UNL d   1      52.660  34.922  53.458  0.00  0.00    -0.198 OA
ATOM      3  O   UNL d   1      52.042  33.440  53.869  0.00  0.00    -0.198 OA
ENDROOT
BRANCH   1   4
ATOM      4  N   UNL d   1      51.638  34.365  53.268  0.00  0.00    -0.128 NA
BRANCH   4   5
ATOM      5  C   UNL d   1      51.078  34.192  52.671  0.00  0.00     0.232 C 
ATOM      6  S   UNL d   1      51.309  34.188  51.884  0.00  0.00    -0.036 SA
BRANCH   5   7
ATOM      7  N   UNL d   1      50.298  34.028  52.883  0.00  0.00    -0.217 NA
BRANCH   7   8
ATOM      8  C   UNL d   1      49.685  34.485  52.568  0.00  0.00     0.084 A 
ATOM      9  C   UNL d   1      49.330  35.064  53.028  0.00  0.00     0.019 A 
ATOM     10  C   UNL d   1      48.723  35.518  52.719  0.00  0.00     0.002 A 
ATOM     11  C   UNL d   1      48.466  35.398  51.949  0.00  0.00     0.000 A 
ATOM     12  C   UNL d   1      48.822  34.815  51.485  0.00  0.00     0.002 A 
ATOM     13  C   UNL d   1      49.432  34.358  51.793  0.00  0.00     0.019 A 
ENDBRANCH   7   8
ENDBRANCH   5   7
ENDBRANCH   4   5
ENDBRANCH   1   4
BRANCH   1  14
ATOM     14  C   UNL d   1      53.049  33.994  54.055  0.00  0.00     0.105 A 
ATOM     15  C   UNL d   1      53.291  34.445  54.713  0.00  0.00     0.014 A 
ATOM     16  C   UNL d   1      53.989  34.261  55.102  0.00  0.00     0.012 A 
ATOM     17  C   UNL d   1      54.454  33.630  54.843  0.00  0.00     0.058 A 
ATOM     18  C   UNL d   1      54.218  33.180  54.190  0.00  0.00     0.012 A 
ATOM     19 CL   UNL d   1      55.152  33.447  55.232  0.00  0.00    -0.082 Cl
ATOM     20  C   UNL d   1      53.516  33.364  53.799  0.00  0.00     0.014 A 
ENDBRANCH   1  14
TORSDOF 5
ENDMDL
MODEL 3
REMARK VINA RESULT:      -6.9      2.790      3.847
REMARK  5 active torsions:
REMARK  status: ('A' for Active; 'I' for Inactive)
REMARK    1  A    between atoms: N_2  and  S_1 
REMARK    2  A    between atoms: C_4  and  S_1 
REMARK    3  A    between atoms: C_3  and  N_2 
REMARK    4  A    between atoms: N_7  and  C_3 
REMARK    5  A    between atoms: C_15  and  N_7 
ROOT
ATOM      1  S   UNL d   1      53.276  33.156  53.868  0.00  0.00     0.287 S 
ATOM      2  O   UNL d   1      53.992  33.335  53.480  0.00  0.00    -0.198 OA
ATOM      3  O   UNL d   1      52.566  32.999  54.257  0.00  0.00    -0.198 OA
ENDROOT
BRANCH   1   4
ATOM      4  N   UNL d   1      53.344  32.363  53.649  0.00  0.00    -0.128 NA
BRANCH   4   5
ATOM      5  C   UNL d   1      53.100  31.724  53.168  0.00  0.00     0.232 C 
ATOM      6  S   UNL d   1      52.381  31.759  52.776  0.00  0.00    -0.036 SA
BRANCH   5   7
ATOM      7  N   UNL d   1      53.591  31.064  53.093  0.00  0.00    -0.217 NA
BRANCH   7   8
ATOM      8  C   UNL d   1      53.356  30.343  53.421  0.00  0.00     0.084 A 
ATOM      9  C   UNL d   1      53.747  30.047  54.078  0.00  0.00     0.019 A 
ATOM     10  C   UNL d   1      53.517  29.333  54.406  0.00  0.00     0.002 A 
ATOM     11  C   UNL d   1      52.894  28.909  54.080  0.00  0.00     0.000 A 
ATOM     12  C   UNL d   1      52.499  29.206  53.419  0.00  0.00     0.002 A 
ATOM     13  C   UNL d   1      52.729  29.922  53.089  0.00  0.00     0.019 A 
ENDBRANCH   7   8
ENDBRANCH   5   7
ENDBRANCH   4   5
ENDBRANCH   1   4
BRANCH   1  14
ATOM     14  C   UNL d   1      53.208  33.956  54.087  0.00  0.00     0.105 A 
ATOM     15  C   UNL d   1      52.881  34.508  53.555  0.00  0.00     0.014 A 
ATOM     16  C   UNL d   1      52.814  35.296  53.772  0.00  0.00     0.012 A 
ATOM     17  C   UNL d   1      53.069  35.544  54.516  0.00  0.00     0.058 A 
ATOM     18  C   UNL d   1      53.393  35.000  55.048  0.00  0.00     0.012 A 
ATOM     19 CL   UNL d   1      53.001  36.332  54.733  0.00  0.00    -0.082 Cl
ATOM     20  C   UNL d   1      53.461  34.207  54.830  0.00  0.00     0.014 A 
ENDBRANCH   1  14
TORSDOF 5
ENDMDL
