MODEL 1
REMARK VINA RESULT:      57.3      0.000      0.000
REMARK  2 active torsions:
REMARK  status: ('A' for Active; 'I' for Inactive)
REMARK    1  A    between atoms: C_11  and  N_1 
REMARK    2  A    between atoms: C_16  and  C_11 
ROOT
ATOM      1  C   UNL d   1      59.988  49.670  51.226  0.00  0.00     0.086 C 
ENDROOT
BRANCH   1   2
ATOM      2  N   UNL d   1      60.428  49.021  50.980  0.00  0.00    -0.240 N 
ATOM      3  C   UNL d   1      60.882  48.983  50.292  0.00  0.00     0.267 A 
ATOM      4  C   UNL d   1      61.230  48.231  50.262  0.00  0.00     0.061 A 
ATOM      5  O   UNL d   1      60.976  49.578  49.737  0.00  0.00    -0.267 OA
ATOM      6  C   UNL d   1      61.730  47.883  49.715  0.00  0.00     0.005 A 
ATOM      7  C   UNL d   1      60.990  47.811  50.929  0.00  0.00     0.061 A 
ATOM      8  C   UNL d   1      61.991  47.111  49.836  0.00  0.00     0.000 A 
ATOM      9  C   UNL d   1      61.752  46.691  50.499  0.00  0.00     0.000 A 
ATOM     10  C   UNL d   1      61.247  47.047  51.048  0.00  0.00     0.005 A 
ATOM     11  C   UNL d   1      60.494  48.301  51.370  0.00  0.00     0.267 A 
ATOM     12  O   UNL d   1      60.127  48.098  52.086  0.00  0.00    -0.267 OA
ENDBRANCH   1   2
BRANCH   1  13
ATOM     13  C   UNL d   1      59.160  49.678  51.138  0.00  0.00     0.018 A 
ATOM     14  C   UNL d   1      58.831  49.678  50.382  0.00  0.00     0.003 A 
ATOM     15  C   UNL d   1      57.995  49.686  50.298  0.00  0.00     0.018 A 
ATOM     16  C   UNL d   1      57.507  49.688  49.633  0.00  0.00     0.019 A 
ATOM     17  C   UNL d   1      57.514  49.692  50.972  0.00  0.00     0.064 A 
ATOM     18  C   UNL d   1      56.721  49.696  49.884  0.00  0.00     0.064 A 
ATOM     19  C   UNL d   1      56.055  49.700  49.398  0.00  0.00     0.019 C 
ATOM     20  N   UNL d   1      56.731  49.699  50.711  0.00  0.00    -0.304 N 
ATOM     21  C   UNL d   1      56.054  49.707  51.201  0.00  0.00     0.099 C 
ATOM     22  C   UNL d   1      57.850  49.692  51.728  0.00  0.00     0.018 A 
ATOM     23  C   UNL d   1      58.667  49.685  51.813  0.00  0.00     0.003 A 
ENDBRANCH   1  13
TORSDOF 2
ENDMDL
