MODEL 1
REMARK VINA RESULT:      -0.4      0.000      0.000
REMARK  3 active torsions:
REMARK  status: ('A' for Active; 'I' for Inactive)
REMARK    1  A    between atoms: C_12  and  C_5 
REMARK    2  A    between atoms: C_14  and  C_12 
REMARK    3  A    between atoms: C_15  and  C_14 
ROOT
ATOM      1  C   UNL d   1     -41.298-122.567 -50.802  0.00  0.00     0.206 A 
ATOM      2  C   UNL d   1     -41.323-122.584 -51.626  0.00  0.00     0.063 A 
ATOM      3  C   UNL d   1     -41.214-121.169 -51.658  0.00  0.00     0.111 A 
ATOM      4  C   UNL d   1     -41.190-121.153 -50.838  0.00  0.00     0.214 A 
ATOM      5  C   UNL d   1     -41.281-121.890 -52.053  0.00  0.00     0.018 A 
ATOM      6  O   UNL d   1     -41.232-121.857 -50.411  0.00  0.00    -0.268 OA
ATOM      7  N   UNL d   1     -41.348-123.311 -50.525  0.00  0.00    -0.123 NA
ATOM      8  N   UNL d   1     -41.405-123.817 -51.147  0.00  0.00    -0.146 NA
ATOM      9  C   UNL d   1     -41.390-123.378 -51.839  0.00  0.00     0.106 A 
ATOM     10  C   UNL d   1     -41.171-120.465 -52.085  0.00  0.00     0.105 C 
ATOM     11  N   UNL d   1     -41.129-119.771 -52.507  0.00  0.00    -0.191 NA
ATOM     12  N   UNL d   1     -41.125-120.458 -50.457  0.00  0.00    -0.120 N 
ATOM     13  C   UNL d   1     -41.446-123.811 -52.643  0.00  0.00     0.023 C 
ENDROOT
BRANCH   5  14
ATOM     14  C   UNL d   1     -41.305-121.907 -52.862  0.00  0.00     0.001 C 
BRANCH  14  15
ATOM     15  C   UNL d   1     -42.029-121.965 -53.445  0.00  0.00     0.000 C 
BRANCH  15  16
ATOM     16  C   UNL d   1     -42.011-121.962 -54.271  0.00  0.00     0.000 A 
ATOM     17  C   UNL d   1     -41.395-122.355 -54.683  0.00  0.00     0.000 A 
ATOM     18  C   UNL d   1     -41.387-122.345 -55.496  0.00  0.00     0.000 A 
ATOM     19  C   UNL d   1     -41.987-121.947 -55.921  0.00  0.00     0.000 A 
ATOM     20  C   UNL d   1     -42.593-121.561 -55.515  0.00  0.00     0.000 A 
ATOM     21  C   UNL d   1     -42.596-121.574 -54.688  0.00  0.00     0.000 A 
ENDBRANCH  15  16
ENDBRANCH  14  15
ENDBRANCH   5  14
TORSDOF 3
ENDMDL
MODEL 2
REMARK VINA RESULT:       1.7      1.625      3.769
REMARK  3 active torsions:
REMARK  status: ('A' for Active; 'I' for Inactive)
REMARK    1  A    between atoms: C_12  and  C_5 
REMARK    2  A    between atoms: C_14  and  C_12 
REMARK    3  A    between atoms: C_15  and  C_14 
ROOT
ATOM      1  C   UNL d   1     -41.324-121.652 -53.118  0.00  0.00     0.206 A 
ATOM      2  C   UNL d   1     -41.340-122.226 -52.525  0.00  0.00     0.063 A 
ATOM      3  C   UNL d   1     -41.224-121.211 -51.540  0.00  0.00     0.111 A 
ATOM      4  C   UNL d   1     -41.209-120.640 -52.130  0.00  0.00     0.214 A 
ATOM      5  C   UNL d   1     -41.290-122.008 -51.741  0.00  0.00     0.018 A 
ATOM      6  O   UNL d   1     -41.259-120.865 -52.922  0.00  0.00    -0.268 OA
ATOM      7  N   UNL d   1     -41.380-122.009 -53.827  0.00  0.00    -0.123 NA
ATOM      8  N   UNL d   1     -41.432-122.804 -53.715  0.00  0.00    -0.146 NA
ATOM      9  C   UNL d   1     -41.408-122.953 -52.909  0.00  0.00     0.106 A 
ATOM     10  C   UNL d   1     -41.174-120.985 -50.749  0.00  0.00     0.105 C 
ATOM     11  N   UNL d   1     -41.125-120.765 -49.967  0.00  0.00    -0.191 NA
ATOM     12  N   UNL d   1     -41.145-119.872 -51.936  0.00  0.00    -0.120 N 
ATOM     13  C   UNL d   1     -41.458-123.817 -52.614  0.00  0.00     0.023 C 
ENDROOT
BRANCH   5  14
ATOM     14  C   UNL d   1     -41.306-122.571 -51.159  0.00  0.00     0.001 C 
BRANCH  14  15
ATOM     15  C   UNL d   1     -42.017-123.059 -50.809  0.00  0.00     0.000 C 
BRANCH  15  16
ATOM     16  C   UNL d   1     -42.144-123.265 -50.019  0.00  0.00     0.000 A 
ATOM     17  C   UNL d   1     -42.894-123.142 -49.664  0.00  0.00     0.000 A 
ATOM     18  C   UNL d   1     -43.008-123.348 -48.886  0.00  0.00     0.000 A 
ATOM     19  C   UNL d   1     -42.384-123.680 -48.440  0.00  0.00     0.000 A 
ATOM     20  C   UNL d   1     -41.646-123.802 -48.789  0.00  0.00     0.000 A 
ATOM     21  C   UNL d   1     -41.535-123.590 -49.581  0.00  0.00     0.000 A 
ENDBRANCH  15  16
ENDBRANCH  14  15
ENDBRANCH   5  14
TORSDOF 3
ENDMDL
MODEL 3
REMARK VINA RESULT:       2.2      1.533      4.155
REMARK  3 active torsions:
REMARK  status: ('A' for Active; 'I' for Inactive)
REMARK    1  A    between atoms: C_12  and  C_5 
REMARK    2  A    between atoms: C_14  and  C_12 
REMARK    3  A    between atoms: C_15  and  C_14 
ROOT
ATOM      1  C   UNL d   1     -41.232-120.575 -52.369  0.00  0.00     0.206 A 
ATOM      2  C   UNL d   1     -41.234-121.077 -51.715  0.00  0.00     0.063 A 
ATOM      3  C   UNL d   1     -41.359-122.198 -52.575  0.00  0.00     0.111 A 
ATOM      4  C   UNL d   1     -41.357-121.698 -53.227  0.00  0.00     0.214 A 
ATOM      5  C   UNL d   1     -41.297-121.883 -51.816  0.00  0.00     0.018 A 
ATOM      6  O   UNL d   1     -41.293-120.883 -53.119  0.00  0.00    -0.268 OA
ATOM      7  N   UNL d   1     -41.165-119.822 -52.119  0.00  0.00    -0.123 NA
ATOM      8  N   UNL d   1     -41.123-119.817 -51.316  0.00  0.00    -0.146 NA
ATOM      9  C   UNL d   1     -41.165-120.592 -51.051  0.00  0.00     0.106 A 
ATOM     10  C   UNL d   1     -41.423-123.013 -52.683  0.00  0.00     0.105 C 
ATOM     11  N   UNL d   1     -41.486-123.817 -52.787  0.00  0.00    -0.191 NA
ATOM     12  N   UNL d   1     -41.417-122.002 -53.959  0.00  0.00    -0.120 N 
ATOM     13  C   UNL d   1     -41.130-120.757 -50.152  0.00  0.00     0.023 C 
ENDROOT
BRANCH   5  14
ATOM     14  C   UNL d   1     -41.299-122.376 -51.173  0.00  0.00     0.001 C 
BRANCH  14  15
ATOM     15  C   UNL d   1     -41.978-122.907 -50.820  0.00  0.00     0.000 C 
BRANCH  15  16
ATOM     16  C   UNL d   1     -42.061-123.162 -50.038  0.00  0.00     0.000 A 
ATOM     17  C   UNL d   1     -42.776-123.024 -49.621  0.00  0.00     0.000 A 
ATOM     18  C   UNL d   1     -42.847-123.279 -48.853  0.00  0.00     0.000 A 
ATOM     19  C   UNL d   1     -42.214-123.676 -48.478  0.00  0.00     0.000 A 
ATOM     20  C   UNL d   1     -41.511-123.812 -48.888  0.00  0.00     0.000 A 
ATOM     21  C   UNL d   1     -41.444-123.550 -49.670  0.00  0.00     0.000 A 
ENDBRANCH  15  16
ENDBRANCH  14  15
ENDBRANCH   5  14
TORSDOF 3
ENDMDL
