MODEL 1
REMARK VINA RESULT:      57.8      0.000      0.000
REMARK  5 active torsions:
REMARK  status: ('A' for Active; 'I' for Inactive)
REMARK       I    between atoms: C_4  and  N_1 
REMARK    1  A    between atoms: C_8  and  C_3 
REMARK    2  A    between atoms: C_9  and  C_4 
REMARK    3  A    between atoms: S_5  and  N_10 
REMARK    4  A    between atoms: C_11  and  C_6 
REMARK    5  A    between atoms: N_10  and  C_22 
ROOT
ATOM      1  N   UNL d   1      44.611 -15.803  37.630  0.00  0.00    -0.193 N 
ATOM      2  N   UNL d   1      45.190 -16.122  38.128  0.00  0.00    -0.163 NA
ATOM      3  C   UNL d   1      43.898 -16.196  37.791  0.00  0.00     0.090 A 
ATOM      4  C   UNL d   1      44.730 -15.203  37.077  0.00  0.00     0.303 C 
ATOM      5  C   UNL d   1      44.838 -16.706  38.592  0.00  0.00     0.103 A 
ATOM      6  C   UNL d   1      44.042 -16.748  38.381  0.00  0.00     0.040 A 
ATOM      7  O   UNL d   1      44.091 -14.944  36.619  0.00  0.00    -0.263 OA
ENDROOT
BRANCH   5   8
ATOM      8  C   UNL d   1      45.214 -17.164  39.162  0.00  0.00     0.019 A 
ATOM      9  C   UNL d   1      45.999 -17.372  39.063  0.00  0.00     0.003 A 
ATOM     10  C   UNL d   1      46.378 -17.833  39.637  0.00  0.00     0.020 A 
ATOM     11  C   UNL d   1      45.964 -18.082  40.309  0.00  0.00     0.093 A 
ATOM     12  C   UNL d   1      45.171 -17.867  40.402  0.00  0.00     0.020 A 
ATOM     13  C   UNL d   1      44.796 -17.412  39.836  0.00  0.00     0.003 A 
BRANCH  11  14
ATOM     14  N   UNL d   1      46.348 -18.540  40.875  0.00  0.00    -0.162 NA
BRANCH  14  15
ATOM     15  S   UNL d   1      45.968 -18.764  41.565  0.00  0.00     0.266 S 
ATOM     16  O   UNL d   1      46.014 -19.507  41.203  0.00  0.00    -0.203 OA
ATOM     17  O   UNL d   1      45.613 -19.285  42.099  0.00  0.00    -0.203 OA
ATOM     18  C   UNL d   1      45.911 -18.037  41.944  0.00  0.00     0.165 C 
ENDBRANCH  14  15
ENDBRANCH  11  14
ENDBRANCH   5   8
BRANCH   3  19
ATOM     19  C   UNL d   1      43.182 -16.052  37.422  0.00  0.00     0.045 A 
ATOM     20  C   UNL d   1      43.011 -16.461  36.713  0.00  0.00     0.141 A 
ATOM     21  F   UNL d   1      43.560 -16.995  36.405  0.00  0.00    -0.204 F 
ATOM     22  C   UNL d   1      42.288 -16.322  36.331  0.00  0.00     0.030 A 
ATOM     23  C   UNL d   1      41.776 -15.813  36.635  0.00  0.00     0.002 A 
ATOM     24  C   UNL d   1      41.947 -15.402  37.344  0.00  0.00     0.000 A 
ATOM     25  C   UNL d   1      42.642 -15.496  37.767  0.00  0.00     0.004 A 
ENDBRANCH   3  19
BRANCH   4  26
ATOM     26  C   UNL d   1      45.466 -14.873  36.985  0.00  0.00     0.158 A 
ATOM     27  O   UNL d   1      45.873 -14.408  37.557  0.00  0.00    -0.300 OA
ATOM     28  C   UNL d   1      46.599 -14.191  37.227  0.00  0.00     0.123 A 
ATOM     29  C   UNL d   1      46.644 -14.511  36.472  0.00  0.00     0.029 A 
ATOM     30  C   UNL d   1      45.940 -14.928  36.338  0.00  0.00     0.032 A 
ENDBRANCH   4  26
TORSDOF 5
ENDMDL
