MODEL 1
REMARK VINA RESULT:      -5.6      0.000      0.000
REMARK  3 active torsions:
REMARK  status: ('A' for Active; 'I' for Inactive)
REMARK    1  A    between atoms: C_4  and  C_1 
REMARK    2  A    between atoms: N_7  and  C_4 
REMARK    3  A    between atoms: C_9  and  N_7 
ROOT
ATOM      1  C   UNL d   1      57.778   0.168  30.939  0.00  0.00     0.159 C 
ATOM      2  S   UNL d   1      58.398   0.680  31.126  0.00  0.00    -0.055 SA
ENDROOT
BRANCH   1   3
ATOM      3  C   UNL d   1      57.213  -0.017  31.511  0.00  0.00     0.139 A 
ATOM      4  N   UNL d   1      56.972  -0.780  31.720  0.00  0.00    -0.236 NA
ATOM      5  C   UNL d   1      56.399  -0.710  32.313  0.00  0.00     0.088 A 
ATOM      6  C   UNL d   1      55.962  -1.271  32.735  0.00  0.00     0.020 A 
ATOM      7  C   UNL d   1      56.290   0.097  32.468  0.00  0.00     0.049 A 
ATOM      8  C   UNL d   1      55.423  -1.031  33.302  0.00  0.00     0.002 A 
ATOM      9  C   UNL d   1      55.314  -0.223  33.456  0.00  0.00     0.001 A 
ATOM     10  C   UNL d   1      55.746   0.336  33.041  0.00  0.00     0.008 A 
ATOM     11  S   UNL d   1      56.797   0.520  31.968  0.00  0.00    -0.064 SA
ENDBRANCH   1   3
BRANCH   1  12
ATOM     12  N   UNL d   1      57.720  -0.157  30.186  0.00  0.00    -0.233 NA
BRANCH  12  13
ATOM     13  C   UNL d   1      58.408  -0.323  29.754  0.00  0.00     0.082 A 
ATOM     14  C   UNL d   1      58.672  -1.100  29.683  0.00  0.00     0.020 A 
ATOM     15  C   UNL d   1      59.352  -1.273  29.258  0.00  0.00     0.013 A 
ATOM     16  C   UNL d   1      59.774  -0.653  28.897  0.00  0.00     0.058 A 
ATOM     17  C   UNL d   1      59.512   0.127  28.966  0.00  0.00     0.013 A 
ATOM     18 CL   UNL d   1      60.456  -0.817  28.469  0.00  0.00    -0.082 Cl
ATOM     19  C   UNL d   1      58.827   0.285  29.398  0.00  0.00     0.020 A 
ENDBRANCH  12  13
ENDBRANCH   1  12
TORSDOF 3
ENDMDL
MODEL 2
REMARK VINA RESULT:      -5.5      1.911      4.466
REMARK  3 active torsions:
REMARK  status: ('A' for Active; 'I' for Inactive)
REMARK    1  A    between atoms: C_4  and  C_1 
REMARK    2  A    between atoms: N_7  and  C_4 
REMARK    3  A    between atoms: C_9  and  N_7 
ROOT
ATOM      1  C   UNL d   1      57.444   0.180  31.383  0.00  0.00     0.159 C 
ATOM      2  S   UNL d   1      57.729   0.670  31.983  0.00  0.00    -0.055 SA
ENDROOT
BRANCH   1   3
ATOM      3  C   UNL d   1      57.891   0.068  30.698  0.00  0.00     0.139 A 
ATOM      4  N   UNL d   1      57.972  -0.645  30.288  0.00  0.00    -0.236 NA
ATOM      5  C   UNL d   1      58.466  -0.508  29.639  0.00  0.00     0.088 A 
ATOM      6  C   UNL d   1      58.746  -1.000  29.037  0.00  0.00     0.020 A 
ATOM      7  C   UNL d   1      58.687   0.291  29.652  0.00  0.00     0.049 A 
ATOM      8  C   UNL d   1      59.239  -0.701  28.456  0.00  0.00     0.002 A 
ATOM      9  C   UNL d   1      59.460   0.098  28.469  0.00  0.00     0.001 A 
ATOM     10  C   UNL d   1      59.185   0.590  29.064  0.00  0.00     0.008 A 
ATOM     11  S   UNL d   1      58.328   0.642  30.310  0.00  0.00    -0.064 SA
ENDBRANCH   1   3
BRANCH   1  12
ATOM     12  N   UNL d   1      56.717  -0.197  31.464  0.00  0.00    -0.233 NA
BRANCH  12  13
ATOM     13  C   UNL d   1      56.291  -0.125  32.171  0.00  0.00     0.082 A 
ATOM     14  C   UNL d   1      56.174  -0.784  32.650  0.00  0.00     0.020 A 
ATOM     15  C   UNL d   1      55.753  -0.721  33.352  0.00  0.00     0.013 A 
ATOM     16  C   UNL d   1      55.445   0.019  33.576  0.00  0.00     0.058 A 
ATOM     17  C   UNL d   1      55.561   0.682  33.098  0.00  0.00     0.013 A 
ATOM     18 CL   UNL d   1      55.023   0.090  34.277  0.00  0.00    -0.082 Cl
ATOM     19  C   UNL d   1      55.986   0.602  32.395  0.00  0.00     0.020 A 
ENDBRANCH  12  13
ENDBRANCH   1  12
TORSDOF 3
ENDMDL
MODEL 3
REMARK VINA RESULT:      -5.0      0.930      1.060
REMARK  3 active torsions:
REMARK  status: ('A' for Active; 'I' for Inactive)
REMARK    1  A    between atoms: C_4  and  C_1 
REMARK    2  A    between atoms: N_7  and  C_4 
REMARK    3  A    between atoms: C_9  and  N_7 
ROOT
ATOM      1  C   UNL d   1      57.887  -0.146  30.622  0.00  0.00     0.159 C 
ATOM      2  S   UNL d   1      58.032  -0.805  30.146  0.00  0.00    -0.055 SA
ENDROOT
BRANCH   1   3
ATOM      3  C   UNL d   1      57.336  -0.197  31.234  0.00  0.00     0.139 A 
ATOM      4  N   UNL d   1      57.038  -0.897  31.557  0.00  0.00    -0.236 NA
ATOM      5  C   UNL d   1      56.503  -0.692  32.154  0.00  0.00     0.088 A 
ATOM      6  C   UNL d   1      56.038  -1.145  32.665  0.00  0.00     0.020 A 
ATOM      7  C   UNL d   1      56.475   0.135  32.197  0.00  0.00     0.049 A 
ATOM      8  C   UNL d   1      55.551  -0.779  33.212  0.00  0.00     0.002 A 
ATOM      9  C   UNL d   1      55.522   0.049  33.254  0.00  0.00     0.001 A 
ATOM     10  C   UNL d   1      55.982   0.502  32.749  0.00  0.00     0.008 A 
ATOM     11  S   UNL d   1      56.992   0.436  31.625  0.00  0.00    -0.064 SA
ENDBRANCH   1   3
BRANCH   1  12
ATOM     12  N   UNL d   1      58.289   0.559  30.489  0.00  0.00    -0.233 NA
BRANCH  12  13
ATOM     13  C   UNL d   1      58.951   0.569  29.990  0.00  0.00     0.082 A 
ATOM     14  C   UNL d   1      58.853   0.670  29.179  0.00  0.00     0.020 A 
ATOM     15  C   UNL d   1      59.503   0.682  28.678  0.00  0.00     0.013 A 
ATOM     16  C   UNL d   1      60.265   0.590  28.999  0.00  0.00     0.058 A 
ATOM     17  C   UNL d   1      60.367   0.489  29.813  0.00  0.00     0.013 A 
ATOM     18 CL   UNL d   1      60.921   0.601  28.505  0.00  0.00    -0.082 Cl
ATOM     19  C   UNL d   1      59.703   0.480  30.303  0.00  0.00     0.020 A 
ENDBRANCH  12  13
ENDBRANCH   1  12
TORSDOF 3
ENDMDL
MODEL 4
REMARK VINA RESULT:      -4.9      2.300      4.709
REMARK  3 active torsions:
REMARK  status: ('A' for Active; 'I' for Inactive)
REMARK    1  A    between atoms: C_4  and  C_1 
REMARK    2  A    between atoms: N_7  and  C_4 
REMARK    3  A    between atoms: C_9  and  N_7 
ROOT
ATOM      1  C   UNL d   1      56.479  -0.232  32.205  0.00  0.00     0.159 C 
ATOM      2  S   UNL d   1      56.259  -0.941  32.568  0.00  0.00    -0.055 SA
ENDROOT
BRANCH   1   3
ATOM      3  C   UNL d   1      56.991  -0.245  31.558  0.00  0.00     0.139 A 
ATOM      4  N   UNL d   1      57.272  -0.924  31.181  0.00  0.00    -0.236 NA
ATOM      5  C   UNL d   1      57.768  -0.684  30.564  0.00  0.00     0.088 A 
ATOM      6  C   UNL d   1      58.203  -1.105  30.001  0.00  0.00     0.020 A 
ATOM      7  C   UNL d   1      57.791   0.145  30.565  0.00  0.00     0.049 A 
ATOM      8  C   UNL d   1      58.654  -0.706  29.446  0.00  0.00     0.002 A 
ATOM      9  C   UNL d   1      58.677   0.123  29.448  0.00  0.00     0.001 A 
ATOM     10  C   UNL d   1      58.247   0.545  30.004  0.00  0.00     0.008 A 
ATOM     11  S   UNL d   1      57.308   0.410  31.183  0.00  0.00    -0.064 SA
ENDBRANCH   1   3
BRANCH   1  12
ATOM     12  N   UNL d   1      56.190   0.485  32.485  0.00  0.00    -0.233 NA
BRANCH  12  13
ATOM     13  C   UNL d   1      55.879   0.535  33.252  0.00  0.00     0.082 A 
ATOM     14  C   UNL d   1      56.384   0.632  33.894  0.00  0.00     0.020 A 
ATOM     15  C   UNL d   1      56.085   0.681  34.657  0.00  0.00     0.013 A 
ATOM     16  C   UNL d   1      55.262   0.633  34.774  0.00  0.00     0.058 A 
ATOM     17  C   UNL d   1      54.753   0.536  34.131  0.00  0.00     0.013 A 
ATOM     18 CL   UNL d   1      54.954   0.682  35.534  0.00  0.00    -0.082 Cl
ATOM     19  C   UNL d   1      55.070   0.487  33.371  0.00  0.00     0.020 A 
ENDBRANCH  12  13
ENDBRANCH   1  12
TORSDOF 3
ENDMDL
