MODEL 1
REMARK VINA RESULT:      47.7      0.000      0.000
REMARK  3 active torsions:
REMARK  status: ('A' for Active; 'I' for Inactive)
REMARK    1  A    between atoms: C_4  and  C_1 
REMARK    2  A    between atoms: C_13  and  N_2 
REMARK    3  A    between atoms: C_10  and  C_13 
ROOT
ATOM      1  C   UNL d   1     -57.801 -99.032 -43.712  0.00  0.00     0.171 A 
ATOM      2  N   UNL d   1     -57.707 -98.897 -44.601  0.00  0.00    -0.286 N 
ATOM      3  N   UNL d   1     -56.980 -99.226 -43.386  0.00  0.00    -0.225 NA
ATOM      4  C   UNL d   1     -56.843 -99.007 -44.822  0.00  0.00     0.083 A 
ATOM      5  C   UNL d   1     -56.385 -99.214 -44.056  0.00  0.00     0.099 A 
ATOM      6  C   UNL d   1     -56.412 -98.946 -45.617  0.00  0.00     0.019 A 
ATOM      7  C   UNL d   1     -55.503 -99.357 -44.100  0.00  0.00     0.021 A 
ATOM      8  C   UNL d   1     -55.528 -99.093 -45.633  0.00  0.00     0.002 A 
ATOM      9  C   UNL d   1     -55.069 -99.301 -44.868  0.00  0.00     0.002 A 
ENDROOT
BRANCH   2  10
ATOM     10  C   UNL d   1     -57.695 -98.771 -45.360  0.00  0.00     0.106 C 
BRANCH  10  11
ATOM     11  C   UNL d   1     -58.390 -98.807 -45.775  0.00  0.00     0.118 A 
ATOM     12  O   UNL d   1     -58.473 -98.890 -46.553  0.00  0.00    -0.299 OA
ATOM     13  C   UNL d   1     -59.253 -98.903 -46.759  0.00  0.00     0.134 A 
ATOM     14 BR   UNL d   1     -59.640 -98.975 -47.461  0.00  0.00    -0.022 Br
ATOM     15  C   UNL d   1     -59.670 -98.825 -46.075  0.00  0.00     0.034 A 
ATOM     16  C   UNL d   1     -59.149 -98.763 -45.451  0.00  0.00     0.029 A 
ENDBRANCH  10  11
ENDBRANCH   2  10
BRANCH   1  17
ATOM     17  C   UNL d   1     -58.560 -98.981 -43.243  0.00  0.00     0.135 A 
ATOM     18  O   UNL d   1     -58.595 -98.987 -42.431  0.00  0.00    -0.297 OA
ATOM     19  C   UNL d   1     -59.388 -98.932 -42.247  0.00  0.00     0.134 A 
ATOM     20 BR   UNL d   1     -59.948 -98.897 -41.661  0.00  0.00    -0.022 Br
ATOM     21  C   UNL d   1     -59.813 -98.894 -42.941  0.00  0.00     0.034 A 
ATOM     22  C   UNL d   1     -59.283 -98.927 -43.553  0.00  0.00     0.030 A 
ENDBRANCH   1  17
TORSDOF 3
ENDMDL
