MODEL 1
REMARK VINA RESULT:      -2.3      0.000      0.000
REMARK  3 active torsions:
REMARK  status: ('A' for Active; 'I' for Inactive)
REMARK    1  A    between atoms: S_2  and  N_1 
REMARK    2  A    between atoms: C_7  and  S_2 
REMARK    3  A    between atoms: C_14  and  C_6 
ROOT
ATOM      1  S   UNL d   1      59.252  -0.728  29.346  0.00  0.00     0.273 S 
ATOM      2  O   UNL d   1      58.900  -0.880  28.667  0.00  0.00    -0.200 OA
ATOM      3  O   UNL d   1      59.730  -0.680  29.905  0.00  0.00    -0.200 OA
ENDROOT
BRANCH   1   4
ATOM      4  N   UNL d   1      59.864  -1.084  29.111  0.00  0.00    -0.202 N 
ATOM      5  C   UNL d   1      60.535  -0.764  28.978  0.00  0.00     0.218 A 
ATOM      6  N   UNL d   1      61.010  -1.309  28.750  0.00  0.00    -0.178 NA
ATOM      7  S   UNL d   1      60.583  -0.018  29.095  0.00  0.00    -0.037 SA
ATOM      8  C   UNL d   1      60.627  -1.953  28.746  0.00  0.00     0.298 A 
ATOM      9  C   UNL d   1      59.922  -1.818  28.967  0.00  0.00     0.135 A 
ATOM     10  O   UNL d   1      60.934  -2.609  28.545  0.00  0.00    -0.264 OA
BRANCH   9  11
ATOM     11  C   UNL d   1      59.369  -2.319  29.036  0.00  0.00     0.022 C 
ATOM     12  C   UNL d   1      58.905  -2.439  28.458  0.00  0.00     0.002 C 
ATOM     13  C   UNL d   1      59.280  -2.699  29.676  0.00  0.00     0.002 C 
ENDBRANCH   9  11
ENDBRANCH   1   4
BRANCH   1  14
ATOM     14  C   UNL d   1      58.610  -0.320  29.669  0.00  0.00     0.104 A 
ATOM     15  C   UNL d   1      58.228   0.275  29.237  0.00  0.00     0.012 A 
ATOM     16  C   UNL d   1      57.587   0.682  29.560  0.00  0.00     0.001 A 
ATOM     17  C   UNL d   1      58.511   0.452  28.464  0.00  0.00     0.001 C 
ATOM     18  C   UNL d   1      57.320   0.498  30.317  0.00  0.00     0.000 A 
ATOM     19  C   UNL d   1      57.695  -0.095  30.756  0.00  0.00     0.001 A 
ATOM     20  C   UNL d   1      58.343  -0.507  30.430  0.00  0.00     0.013 A 
ATOM     21  C   UNL d   1      57.426  -0.281  31.522  0.00  0.00     0.000 C 
ENDBRANCH   1  14
TORSDOF 3
ENDMDL
MODEL 2
REMARK VINA RESULT:      -1.3      8.812      9.583
REMARK  3 active torsions:
REMARK  status: ('A' for Active; 'I' for Inactive)
REMARK    1  A    between atoms: S_2  and  N_1 
REMARK    2  A    between atoms: C_7  and  S_2 
REMARK    3  A    between atoms: C_14  and  C_6 
ROOT
ATOM      1  S   UNL d   1      59.815  -9.120  34.046  0.00  0.00     0.273 S 
ATOM      2  O   UNL d   1      59.490  -9.795  34.260  0.00  0.00    -0.200 OA
ATOM      3  O   UNL d   1      60.122  -8.566  33.669  0.00  0.00    -0.200 OA
ENDROOT
BRANCH   1   4
ATOM      4  N   UNL d   1      59.856  -9.360  33.341  0.00  0.00    -0.202 N 
ATOM      5  C   UNL d   1      60.484  -9.594  32.991  0.00  0.00     0.218 A 
ATOM      6  N   UNL d   1      60.295  -9.791  32.285  0.00  0.00    -0.178 NA
ATOM      7  S   UNL d   1      61.121  -9.580  33.398  0.00  0.00    -0.037 SA
ATOM      8  C   UNL d   1      59.558  -9.677  32.208  0.00  0.00     0.298 A 
ATOM      9  C   UNL d   1      59.286  -9.412  32.856  0.00  0.00     0.135 A 
ATOM     10  O   UNL d   1      59.188  -9.817  31.570  0.00  0.00    -0.264 OA
BRANCH   9  11
ATOM     11  C   UNL d   1      58.573  -9.230  33.002  0.00  0.00     0.022 C 
ATOM     12  C   UNL d   1      58.347  -8.520  32.910  0.00  0.00     0.002 C 
ATOM     13  C   UNL d   1      58.089  -9.752  33.238  0.00  0.00     0.002 C 
ENDBRANCH   9  11
ENDBRANCH   1   4
BRANCH   1  14
ATOM     14  C   UNL d   1      59.801  -8.791  34.803  0.00  0.00     0.104 A 
ATOM     15  C   UNL d   1      60.239  -9.131  35.418  0.00  0.00     0.012 A 
ATOM     16  C   UNL d   1      60.224  -8.802  36.176  0.00  0.00     0.001 A 
ATOM     17  C   UNL d   1      60.697  -9.817  35.252  0.00  0.00     0.001 C 
ATOM     18  C   UNL d   1      59.772  -8.130  36.326  0.00  0.00     0.000 A 
ATOM     19  C   UNL d   1      59.330  -7.784  35.717  0.00  0.00     0.001 A 
ATOM     20  C   UNL d   1      59.345  -8.116  34.952  0.00  0.00     0.013 A 
ATOM     21  C   UNL d   1      58.872  -7.105  35.868  0.00  0.00     0.000 C 
ENDBRANCH   1  14
TORSDOF 3
ENDMDL
MODEL 3
REMARK VINA RESULT:      -1.2      1.751      2.420
REMARK  3 active torsions:
REMARK  status: ('A' for Active; 'I' for Inactive)
REMARK    1  A    between atoms: S_2  and  N_1 
REMARK    2  A    between atoms: C_7  and  S_2 
REMARK    3  A    between atoms: C_14  and  C_6 
ROOT
ATOM      1  S   UNL d   1      58.243  -0.038  30.190  0.00  0.00     0.273 S 
ATOM      2  O   UNL d   1      58.518  -0.758  30.083  0.00  0.00    -0.200 OA
ATOM      3  O   UNL d   1      58.087   0.681  30.132  0.00  0.00    -0.200 OA
ENDROOT
BRANCH   1   4
ATOM      4  N   UNL d   1      58.613   0.196  29.586  0.00  0.00    -0.202 N 
ATOM      5  C   UNL d   1      58.300   0.408  28.932  0.00  0.00     0.218 A 
ATOM      6  N   UNL d   1      58.860   0.607  28.462  0.00  0.00    -0.178 NA
ATOM      7  S   UNL d   1      57.546   0.377  28.894  0.00  0.00    -0.037 SA
ATOM      8  C   UNL d   1      59.507   0.515  28.830  0.00  0.00     0.298 A 
ATOM      9  C   UNL d   1      59.358   0.263  29.521  0.00  0.00     0.135 A 
ATOM     10  O   UNL d   1      60.176   0.663  28.522  0.00  0.00    -0.264 OA
BRANCH   9  11
ATOM     11  C   UNL d   1      59.857   0.104  30.058  0.00  0.00     0.022 C 
ATOM     12  C   UNL d   1      60.066   0.639  30.539  0.00  0.00     0.002 C 
ATOM     13  C   UNL d   1      60.146  -0.586  30.113  0.00  0.00     0.002 C 
ENDBRANCH   9  11
ENDBRANCH   1   4
BRANCH   1  14
ATOM     14  C   UNL d   1      57.807  -0.227  30.866  0.00  0.00     0.104 A 
ATOM     15  C   UNL d   1      57.426  -0.959  30.929  0.00  0.00     0.012 A 
ATOM     16  C   UNL d   1      56.990  -1.149  31.605  0.00  0.00     0.001 A 
ATOM     17  C   UNL d   1      57.493  -1.502  30.289  0.00  0.00     0.001 C 
ATOM     18  C   UNL d   1      56.933  -0.608  32.224  0.00  0.00     0.000 A 
ATOM     19  C   UNL d   1      57.311   0.126  32.169  0.00  0.00     0.001 A 
ATOM     20  C   UNL d   1      57.751   0.318  31.487  0.00  0.00     0.013 A 
ATOM     21  C   UNL d   1      57.253   0.673  32.795  0.00  0.00     0.000 C 
ENDBRANCH   1  14
TORSDOF 3
ENDMDL
MODEL 4
REMARK VINA RESULT:      -0.8      1.937      3.390
REMARK  3 active torsions:
REMARK  status: ('A' for Active; 'I' for Inactive)
REMARK    1  A    between atoms: S_2  and  N_1 
REMARK    2  A    between atoms: C_7  and  S_2 
REMARK    3  A    between atoms: C_14  and  C_6 
ROOT
ATOM      1  S   UNL d   1      58.205  -0.203  30.710  0.00  0.00     0.273 S 
ATOM      2  O   UNL d   1      57.785   0.380  30.411  0.00  0.00    -0.200 OA
ATOM      3  O   UNL d   1      58.568  -0.662  31.160  0.00  0.00    -0.200 OA
ENDROOT
BRANCH   1   4
ATOM      4  N   UNL d   1      58.121   0.084  31.394  0.00  0.00    -0.202 N 
ATOM      5  C   UNL d   1      58.636   0.494  31.765  0.00  0.00     0.218 A 
ATOM      6  N   UNL d   1      58.341   0.679  32.438  0.00  0.00    -0.178 NA
ATOM      7  S   UNL d   1      59.289   0.620  31.407  0.00  0.00    -0.037 SA
ATOM      8  C   UNL d   1      57.653   0.383  32.472  0.00  0.00     0.298 A 
ATOM      9  C   UNL d   1      57.516   0.016  31.832  0.00  0.00     0.135 A 
ATOM     10  O   UNL d   1      57.204   0.463  33.069  0.00  0.00    -0.264 OA
BRANCH   9  11
ATOM     11  C   UNL d   1      56.889  -0.354  31.653  0.00  0.00     0.022 C 
ATOM     12  C   UNL d   1      56.822  -1.078  31.836  0.00  0.00     0.002 C 
ATOM     13  C   UNL d   1      56.332  -0.003  31.292  0.00  0.00     0.002 C 
ENDBRANCH   9  11
ENDBRANCH   1   4
BRANCH   1  14
ATOM     14  C   UNL d   1      58.338  -0.575  29.985  0.00  0.00     0.104 A 
ATOM     15  C   UNL d   1      58.302  -0.144  29.278  0.00  0.00     0.012 A 
ATOM     16  C   UNL d   1      58.435  -0.516  28.553  0.00  0.00     0.001 A 
ATOM     17  C   UNL d   1      58.128   0.678  29.319  0.00  0.00     0.001 C 
ATOM     18  C   UNL d   1      58.605  -1.322  28.527  0.00  0.00     0.000 A 
ATOM     19  C   UNL d   1      58.642  -1.760  29.228  0.00  0.00     0.001 A 
ATOM     20  C   UNL d   1      58.509  -1.385  29.961  0.00  0.00     0.013 A 
ATOM     21  C   UNL d   1      58.814  -2.575  29.202  0.00  0.00     0.000 C 
ENDBRANCH   1  14
TORSDOF 3
ENDMDL
MODEL 5
REMARK VINA RESULT:      -0.5      3.718      5.396
REMARK  3 active torsions:
REMARK  status: ('A' for Active; 'I' for Inactive)
REMARK    1  A    between atoms: S_2  and  N_1 
REMARK    2  A    between atoms: C_7  and  S_2 
REMARK    3  A    between atoms: C_14  and  C_6 
ROOT
ATOM      1  S   UNL d   1      56.720  -0.021  32.947  0.00  0.00     0.273 S 
ATOM      2  O   UNL d   1      56.947  -0.687  33.281  0.00  0.00    -0.200 OA
ATOM      3  O   UNL d   1      56.445   0.650  32.811  0.00  0.00    -0.200 OA
ENDROOT
BRANCH   1   4
ATOM      4  N   UNL d   1      56.458   0.221  33.603  0.00  0.00    -0.202 N 
ATOM      5  C   UNL d   1      56.875   0.498  34.168  0.00  0.00     0.218 A 
ATOM      6  N   UNL d   1      56.405   0.682  34.733  0.00  0.00    -0.178 NA
ATOM      7  S   UNL d   1      57.622   0.529  34.053  0.00  0.00    -0.037 SA
ATOM      8  C   UNL d   1      55.709   0.517  34.510  0.00  0.00     0.298 A 
ATOM      9  C   UNL d   1      55.738   0.234  33.815  0.00  0.00     0.135 A 
ATOM     10  O   UNL d   1      55.104   0.631  34.941  0.00  0.00    -0.264 OA
BRANCH   9  11
ATOM     11  C   UNL d   1      55.158   0.002  33.400  0.00  0.00     0.022 C 
ATOM     12  C   UNL d   1      54.751   0.505  33.021  0.00  0.00     0.002 C 
ATOM     13  C   UNL d   1      54.986  -0.727  33.364  0.00  0.00     0.002 C 
ENDBRANCH   9  11
ENDBRANCH   1   4
BRANCH   1  14
ATOM     14  C   UNL d   1      56.987  -0.225  32.193  0.00  0.00     0.104 A 
ATOM     15  C   UNL d   1      56.845  -0.981  31.886  0.00  0.00     0.012 A 
ATOM     16  C   UNL d   1      57.113  -1.185  31.132  0.00  0.00     0.001 A 
ATOM     17  C   UNL d   1      56.424  -1.533  32.361  0.00  0.00     0.001 C 
ATOM     18  C   UNL d   1      57.524  -0.635  30.677  0.00  0.00     0.000 A 
ATOM     19  C   UNL d   1      57.671   0.124  30.976  0.00  0.00     0.001 A 
ATOM     20  C   UNL d   1      57.401   0.330  31.737  0.00  0.00     0.013 A 
ATOM     21  C   UNL d   1      58.087   0.680  30.516  0.00  0.00     0.000 C 
ENDBRANCH   1  14
TORSDOF 3
ENDMDL
MODEL 6
REMARK VINA RESULT:      -0.1      2.946      4.118
REMARK  3 active torsions:
REMARK  status: ('A' for Active; 'I' for Inactive)
REMARK    1  A    between atoms: S_2  and  N_1 
REMARK    2  A    between atoms: C_7  and  S_2 
REMARK    3  A    between atoms: C_14  and  C_6 
ROOT
ATOM      1  S   UNL d   1      57.019   0.102  32.426  0.00  0.00     0.273 S 
ATOM      2  O   UNL d   1      56.654   0.518  31.878  0.00  0.00    -0.200 OA
ATOM      3  O   UNL d   1      57.522  -0.226  32.855  0.00  0.00    -0.200 OA
ENDROOT
BRANCH   1   4
ATOM      4  N   UNL d   1      57.679   0.302  32.143  0.00  0.00    -0.202 N 
ATOM      5  C   UNL d   1      58.279   0.530  32.543  0.00  0.00     0.218 A 
ATOM      6  N   UNL d   1      58.837   0.682  32.055  0.00  0.00    -0.178 NA
ATOM      7  S   UNL d   1      58.194   0.553  33.294  0.00  0.00    -0.037 SA
ATOM      8  C   UNL d   1      58.577   0.547  31.365  0.00  0.00     0.298 A 
ATOM      9  C   UNL d   1      57.865   0.314  31.417  0.00  0.00     0.135 A 
ATOM     10  O   UNL d   1      58.993   0.643  30.746  0.00  0.00    -0.264 OA
BRANCH   9  11
ATOM     11  C   UNL d   1      57.413   0.124  30.849  0.00  0.00     0.022 C 
ATOM     12  C   UNL d   1      57.380  -0.591  30.626  0.00  0.00     0.002 C 
ATOM     13  C   UNL d   1      56.997   0.645  30.506  0.00  0.00     0.002 C 
ENDBRANCH   9  11
ENDBRANCH   1   4
BRANCH   1  14
ATOM     14  C   UNL d   1      56.325  -0.158  32.791  0.00  0.00     0.104 A 
ATOM     15  C   UNL d   1      56.159  -0.967  32.851  0.00  0.00     0.012 A 
ATOM     16  C   UNL d   1      55.465  -1.228  33.215  0.00  0.00     0.001 A 
ATOM     17  C   UNL d   1      56.713  -1.514  32.532  0.00  0.00     0.001 C 
ATOM     18  C   UNL d   1      54.930  -0.682  33.523  0.00  0.00     0.000 A 
ATOM     19  C   UNL d   1      55.088   0.129  33.467  0.00  0.00     0.001 A 
ATOM     20  C   UNL d   1      55.789   0.392  33.100  0.00  0.00     0.013 A 
ATOM     21  C   UNL d   1      54.548   0.682  33.779  0.00  0.00     0.000 C 
ENDBRANCH   1  14
TORSDOF 3
ENDMDL
