MODEL 1
REMARK VINA RESULT:      84.8      0.000      0.000
REMARK  5 active torsions:
REMARK  status: ('A' for Active; 'I' for Inactive)
REMARK    1  A    between atoms: C_12  and  C_1 
REMARK    2  A    between atoms: C_4  and  O_8 
REMARK       I    between atoms: N_11  and  C_4 
REMARK    3  A    between atoms: O_8  and  C_13 
REMARK    4  A    between atoms: C_17  and  N_11 
REMARK    5  A    between atoms: C_18  and  N_11 
ROOT
ATOM      1  C   UNL d   1      58.585  49.650  54.087  0.00  0.00     0.064 A 
ATOM      2  C   UNL d   1      58.315  49.624  53.306  0.00  0.00     0.199 A 
ATOM      3  C   UNL d   1      58.861  49.640  52.689  0.00  0.00     0.062 A 
ATOM      4  C   UNL d   1      59.393  49.691  54.251  0.00  0.00     0.126 A 
ATOM      5  C   UNL d   1      59.669  49.680  52.849  0.00  0.00     0.105 A 
ATOM      6  O   UNL d   1      59.939  49.706  53.631  0.00  0.00    -0.305 OA
ATOM      7  C   UNL d   1      60.216  49.696  52.225  0.00  0.00     0.050 A 
ATOM      8  C   UNL d   1      58.597  49.614  51.896  0.00  0.00     0.007 A 
ATOM      9  C   UNL d   1      59.954  49.670  51.445  0.00  0.00     0.107 A 
ATOM     10  O   UNL d   1      57.507  49.584  53.142  0.00  0.00    -0.286 OA
ATOM     11  C   UNL d   1      59.143  49.630  51.280  0.00  0.00     0.025 A 
ENDROOT
BRANCH   9  12
ATOM     12  O   UNL d   1      60.496  49.686  50.827  0.00  0.00    -0.259 OA
BRANCH  12  13
ATOM     13  C   UNL d   1      60.600  49.025  50.351  0.00  0.00     0.377 C 
ATOM     14  N   UNL d   1      61.331  48.636  50.344  0.00  0.00    -0.252 N 
ATOM     15  O   UNL d   1      59.979  48.752  49.882  0.00  0.00    -0.237 OA
BRANCH  14  16
ATOM     16  C   UNL d   1      61.954  48.907  50.811  0.00  0.00     0.085 C 
ATOM     17  C   UNL d   1      62.508  49.428  50.486  0.00  0.00     0.021 C 
ENDBRANCH  14  16
BRANCH  14  18
ATOM     18  C   UNL d   1      61.434  47.972  49.864  0.00  0.00     0.085 C 
ATOM     19  C   UNL d   1      61.156  47.233  50.105  0.00  0.00     0.021 C 
ENDBRANCH  14  18
ENDBRANCH  12  13
ENDBRANCH   9  12
BRANCH   1  20
ATOM     20  C   UNL d   1      58.037  49.635  54.712  0.00  0.00     0.005 A 
ATOM     21  C   UNL d   1      58.311  49.554  55.486  0.00  0.00     0.000 A 
ATOM     22  C   UNL d   1      57.763  49.539  56.110  0.00  0.00     0.000 A 
ATOM     23  C   UNL d   1      56.958  49.604  55.955  0.00  0.00     0.000 A 
ATOM     24  C   UNL d   1      56.698  49.684  55.171  0.00  0.00     0.000 A 
ATOM     25  C   UNL d   1      57.240  49.700  54.553  0.00  0.00     0.000 A 
ENDBRANCH   1  20
TORSDOF 5
ENDMDL
