MODEL 1
REMARK VINA RESULT:      -9.0      0.000      0.000
REMARK  5 active torsions:
REMARK  status: ('A' for Active; 'I' for Inactive)
REMARK    1  A    between atoms: C_3  and  C_1 
REMARK    2  A    between atoms: C_7  and  C_2 
REMARK       I    between atoms: N_5  and  C_3 
REMARK    3  A    between atoms: C_6  and  N_5 
REMARK    4  A    between atoms: N_10  and  C_6 
REMARK    5  A    between atoms: C_14  and  N_10 
ROOT
ATOM      1  C   UNL d   1      53.209  34.084  53.979  0.00  0.00     0.103 A 
ATOM      2  C   UNL d   1      52.548  34.545  53.785  0.00  0.00     0.116 A 
ATOM      3  N   UNL d   1      52.501  35.157  54.336  0.00  0.00    -0.126 NA
ATOM      4  O   UNL d   1      53.128  35.077  54.869  0.00  0.00    -0.211 OA
ATOM      5  C   UNL d   1      53.554  34.420  54.643  0.00  0.00     0.131 A 
ATOM      6  C   UNL d   1      54.227  34.136  55.021  0.00  0.00     0.029 C 
ENDROOT
BRANCH   1   7
ATOM      7  C   UNL d   1      53.454  33.419  53.568  0.00  0.00     0.285 C 
ATOM      8  N   UNL d   1      53.351  32.663  53.868  0.00  0.00    -0.179 NA
ATOM      9  O   UNL d   1      53.815  33.513  52.828  0.00  0.00    -0.265 OA
BRANCH   8  10
ATOM     10  C   UNL d   1      53.595  31.997  53.457  0.00  0.00     0.223 C 
ATOM     11  S   UNL d   1      54.388  31.938  53.223  0.00  0.00    -0.037 SA
BRANCH  10  12
ATOM     12  N   UNL d   1      53.070  31.389  53.275  0.00  0.00    -0.217 NA
BRANCH  12  13
ATOM     13  C   UNL d   1      53.146  30.666  53.645  0.00  0.00     0.084 A 
ATOM     14  C   UNL d   1      53.173  29.974  53.185  0.00  0.00     0.019 A 
ATOM     15  C   UNL d   1      53.249  29.244  53.559  0.00  0.00     0.002 A 
ATOM     16  C   UNL d   1      53.298  29.200  54.386  0.00  0.00     0.000 A 
ATOM     17  C   UNL d   1      53.271  29.898  54.843  0.00  0.00     0.002 A 
ATOM     18  C   UNL d   1      53.375  28.464  54.762  0.00  0.00     0.000 C 
ATOM     19  C   UNL d   1      53.194  30.633  54.466  0.00  0.00     0.019 A 
ENDBRANCH  12  13
ENDBRANCH  10  12
ENDBRANCH   8  10
ENDBRANCH   1   7
BRANCH   2  20
ATOM     20  C   UNL d   1      52.031  34.416  53.155  0.00  0.00     0.031 A 
ATOM     21  C   UNL d   1      51.254  34.188  53.301  0.00  0.00     0.059 A 
ATOM     22 CL   UNL d   1      50.995  34.090  54.075  0.00  0.00    -0.082 Cl
ATOM     23  C   UNL d   1      50.745  34.061  52.672  0.00  0.00     0.011 A 
ATOM     24  C   UNL d   1      51.005  34.160  51.889  0.00  0.00     0.001 A 
ATOM     25  C   UNL d   1      51.786  34.389  51.753  0.00  0.00     0.000 A 
ATOM     26  C   UNL d   1      52.310  34.520  52.382  0.00  0.00     0.002 A 
ENDBRANCH   2  20
TORSDOF 5
ENDMDL
MODEL 2
REMARK VINA RESULT:      -7.9      1.382      2.468
REMARK  5 active torsions:
REMARK  status: ('A' for Active; 'I' for Inactive)
REMARK    1  A    between atoms: C_3  and  C_1 
REMARK    2  A    between atoms: C_7  and  C_2 
REMARK       I    between atoms: N_5  and  C_3 
REMARK    3  A    between atoms: C_6  and  N_5 
REMARK    4  A    between atoms: N_10  and  C_6 
REMARK    5  A    between atoms: C_14  and  N_10 
ROOT
ATOM      1  C   UNL d   1      52.596  33.881  53.177  0.00  0.00     0.103 A 
ATOM      2  C   UNL d   1      53.209  34.229  53.614  0.00  0.00     0.116 A 
ATOM      3  N   UNL d   1      53.301  35.002  53.341  0.00  0.00    -0.126 NA
ATOM      4  O   UNL d   1      52.750  35.133  52.738  0.00  0.00    -0.211 OA
ATOM      5  C   UNL d   1      52.325  34.444  52.646  0.00  0.00     0.131 A 
ATOM      6  C   UNL d   1      51.717  34.329  52.105  0.00  0.00     0.029 C 
ENDROOT
BRANCH   1   7
ATOM      7  C   UNL d   1      52.328  33.113  53.276  0.00  0.00     0.285 C 
ATOM      8  N   UNL d   1      52.560  32.507  52.777  0.00  0.00    -0.179 NA
ATOM      9  O   UNL d   1      51.808  32.945  53.899  0.00  0.00    -0.265 OA
BRANCH   8  10
ATOM     10  C   UNL d   1      52.292  31.738  52.875  0.00  0.00     0.223 C 
ATOM     11  S   UNL d   1      51.575  31.609  53.271  0.00  0.00    -0.037 SA
BRANCH  10  12
ATOM     12  N   UNL d   1      52.720  31.095  52.589  0.00  0.00    -0.217 NA
BRANCH  12  13
ATOM     13  C   UNL d   1      52.923  30.488  53.096  0.00  0.00     0.084 A 
ATOM     14  C   UNL d   1      53.719  30.389  53.313  0.00  0.00     0.019 A 
ATOM     15  C   UNL d   1      53.924  29.776  53.825  0.00  0.00     0.002 A 
ATOM     16  C   UNL d   1      53.342  29.264  54.120  0.00  0.00     0.000 A 
ATOM     17  C   UNL d   1      52.544  29.369  53.898  0.00  0.00     0.002 A 
ATOM     18  C   UNL d   1      53.548  28.647  54.635  0.00  0.00     0.000 C 
ATOM     19  C   UNL d   1      52.337  29.985  53.383  0.00  0.00     0.019 A 
ENDBRANCH  12  13
ENDBRANCH  10  12
ENDBRANCH   8  10
ENDBRANCH   1   7
BRANCH   2  20
ATOM     20  C   UNL d   1      53.647  33.869  54.213  0.00  0.00     0.031 A 
ATOM     21  C   UNL d   1      54.437  33.677  54.087  0.00  0.00     0.059 A 
ATOM     22 CL   UNL d   1      54.788  33.844  53.362  0.00  0.00    -0.082 Cl
ATOM     23  C   UNL d   1      54.867  33.320  54.684  0.00  0.00     0.011 A 
ATOM     24  C   UNL d   1      54.514  33.150  55.417  0.00  0.00     0.001 A 
ATOM     25  C   UNL d   1      53.722  33.346  55.535  0.00  0.00     0.000 A 
ATOM     26  C   UNL d   1      53.276  33.708  54.937  0.00  0.00     0.002 A 
ENDBRANCH   2  20
TORSDOF 5
ENDMDL
MODEL 3
REMARK VINA RESULT:      -7.8      1.924      4.563
REMARK  5 active torsions:
REMARK  status: ('A' for Active; 'I' for Inactive)
REMARK    1  A    between atoms: C_3  and  C_1 
REMARK    2  A    between atoms: C_7  and  C_2 
REMARK       I    between atoms: N_5  and  C_3 
REMARK    3  A    between atoms: C_6  and  N_5 
REMARK    4  A    between atoms: N_10  and  C_6 
REMARK    5  A    between atoms: C_14  and  N_10 
ROOT
ATOM      1  C   UNL d   1      53.125  32.200  53.566  0.00  0.00     0.103 A 
ATOM      2  C   UNL d   1      53.890  32.129  53.879  0.00  0.00     0.116 A 
ATOM      3  N   UNL d   1      54.169  31.377  53.686  0.00  0.00    -0.126 NA
ATOM      4  O   UNL d   1      53.582  30.984  53.255  0.00  0.00    -0.211 OA
ATOM      5  C   UNL d   1      52.950  31.494  53.188  0.00  0.00     0.131 A 
ATOM      6  C   UNL d   1      52.244  31.327  52.801  0.00  0.00     0.029 C 
ENDROOT
BRANCH   1   7
ATOM      7  C   UNL d   1      52.651  32.864  53.634  0.00  0.00     0.285 C 
ATOM      8  N   UNL d   1      52.329  33.235  52.978  0.00  0.00    -0.179 NA
ATOM      9  O   UNL d   1      52.491  33.170  54.388  0.00  0.00    -0.265 OA
BRANCH   8  10
ATOM     10  C   UNL d   1      51.854  33.900  53.046  0.00  0.00     0.223 C 
ATOM     11  S   UNL d   1      52.177  34.645  52.878  0.00  0.00    -0.037 SA
BRANCH  10  12
ATOM     12  N   UNL d   1      51.066  33.842  53.278  0.00  0.00    -0.217 NA
BRANCH  12  13
ATOM     13  C   UNL d   1      50.480  34.134  52.791  0.00  0.00     0.084 A 
ATOM     14  C   UNL d   1      49.890  34.624  53.113  0.00  0.00     0.019 A 
ATOM     15  C   UNL d   1      49.298  34.919  52.621  0.00  0.00     0.002 A 
ATOM     16  C   UNL d   1      49.291  34.730  51.813  0.00  0.00     0.000 A 
ATOM     17  C   UNL d   1      49.887  34.238  51.495  0.00  0.00     0.002 A 
ATOM     18  C   UNL d   1      48.696  35.027  51.318  0.00  0.00     0.000 C 
ATOM     19  C   UNL d   1      50.482  33.941  51.990  0.00  0.00     0.019 A 
ENDBRANCH  12  13
ENDBRANCH  10  12
ENDBRANCH   8  10
ENDBRANCH   1   7
BRANCH   2  20
ATOM     20  C   UNL d   1      54.298  32.705  54.306  0.00  0.00     0.031 A 
ATOM     21  C   UNL d   1      54.952  33.077  53.974  0.00  0.00     0.059 A 
ATOM     22 CL   UNL d   1      55.197  32.874  53.216  0.00  0.00    -0.082 Cl
ATOM     23  C   UNL d   1      55.353  33.648  54.402  0.00  0.00     0.011 A 
ATOM     24  C   UNL d   1      55.106  33.855  55.168  0.00  0.00     0.001 A 
ATOM     25  C   UNL d   1      54.450  33.477  55.492  0.00  0.00     0.000 A 
ATOM     26  C   UNL d   1      54.035  32.897  55.068  0.00  0.00     0.002 A 
ENDBRANCH   2  20
TORSDOF 5
ENDMDL
MODEL 4
REMARK VINA RESULT:      -7.6      1.797      4.352
REMARK  5 active torsions:
REMARK  status: ('A' for Active; 'I' for Inactive)
REMARK    1  A    between atoms: C_3  and  C_1 
REMARK    2  A    between atoms: C_7  and  C_2 
REMARK       I    between atoms: N_5  and  C_3 
REMARK    3  A    between atoms: C_6  and  N_5 
REMARK    4  A    between atoms: N_10  and  C_6 
REMARK    5  A    between atoms: C_14  and  N_10 
ROOT
ATOM      1  C   UNL d   1      53.128  34.140  54.047  0.00  0.00     0.103 A 
ATOM      2  C   UNL d   1      53.547  33.496  54.358  0.00  0.00     0.116 A 
ATOM      3  N   UNL d   1      53.932  33.755  55.040  0.00  0.00    -0.126 NA
ATOM      4  O   UNL d   1      53.754  34.556  55.151  0.00  0.00    -0.211 OA
ATOM      5  C   UNL d   1      53.264  34.780  54.540  0.00  0.00     0.131 A 
ATOM      6  C   UNL d   1      52.952  35.534  54.434  0.00  0.00     0.029 C 
ENDROOT
BRANCH   1   7
ATOM      7  C   UNL d   1      52.669  34.117  53.368  0.00  0.00     0.285 C 
ATOM      8  N   UNL d   1      51.854  34.189  53.395  0.00  0.00    -0.179 NA
ATOM      9  O   UNL d   1      53.041  34.019  52.634  0.00  0.00    -0.265 OA
BRANCH   8  10
ATOM     10  C   UNL d   1      51.394  34.166  52.716  0.00  0.00     0.223 C 
ATOM     11  S   UNL d   1      51.699  34.481  52.013  0.00  0.00    -0.037 SA
BRANCH  10  12
ATOM     12  N   UNL d   1      50.639  33.837  52.721  0.00  0.00    -0.217 NA
BRANCH  12  13
ATOM     13  C   UNL d   1      49.992  34.310  52.569  0.00  0.00     0.084 A 
ATOM     14  C   UNL d   1      49.644  34.295  51.814  0.00  0.00     0.019 A 
ATOM     15  C   UNL d   1      48.991  34.773  51.661  0.00  0.00     0.002 A 
ATOM     16  C   UNL d   1      48.683  35.265  52.255  0.00  0.00     0.000 A 
ATOM     17  C   UNL d   1      49.037  35.276  53.011  0.00  0.00     0.002 A 
ATOM     18  C   UNL d   1      48.025  35.746  52.101  0.00  0.00     0.000 C 
ATOM     19  C   UNL d   1      49.694  34.795  53.165  0.00  0.00     0.019 A 
ENDBRANCH  12  13
ENDBRANCH  10  12
ENDBRANCH   8  10
ENDBRANCH   1   7
BRANCH   2  20
ATOM     20  C   UNL d   1      53.573  32.733  54.044  0.00  0.00     0.031 A 
ATOM     21  C   UNL d   1      54.263  32.458  53.691  0.00  0.00     0.059 A 
ATOM     22 CL   UNL d   1      54.925  32.944  53.651  0.00  0.00    -0.082 Cl
ATOM     23  C   UNL d   1      54.284  31.700  53.381  0.00  0.00     0.011 A 
ATOM     24  C   UNL d   1      53.616  31.208  53.420  0.00  0.00     0.001 A 
ATOM     25  C   UNL d   1      52.929  31.492  53.776  0.00  0.00     0.000 A 
ATOM     26  C   UNL d   1      52.896  32.258  54.094  0.00  0.00     0.002 A 
ENDBRANCH   2  20
TORSDOF 5
ENDMDL
