MODEL 1
REMARK VINA RESULT:      23.3      0.000      0.000
REMARK  1 active torsions:
REMARK  status: ('A' for Active; 'I' for Inactive)
REMARK    1  A    between atoms: C_10  and  N_2 
ROOT
ATOM      1  C   UNL d   1     -50.968  25.265  33.355  0.00  0.00     0.166 A 
ATOM      2  N   UNL d   1     -50.913  24.436  33.364  0.00  0.00    -0.291 N 
ATOM      3  C   UNL d   1     -51.771  25.444  33.334  0.00  0.00     0.117 A 
ATOM      4  C   UNL d   1     -51.665  24.127  33.349  0.00  0.00     0.067 A 
ATOM      5  N   UNL d   1     -50.389  25.866  33.364  0.00  0.00    -0.225 NA
ATOM      6  C   UNL d   1     -52.199  24.755  33.330  0.00  0.00     0.037 A 
ATOM      7  N   UNL d   1     -51.982  26.248  33.321  0.00  0.00    -0.241 NA
ATOM      8  C   UNL d   1     -50.613  26.643  33.351  0.00  0.00     0.101 A 
ATOM      9  C   UNL d   1     -51.423  26.830  33.329  0.00  0.00     0.099 A 
ATOM     10  C   UNL d   1     -51.944  23.345  33.349  0.00  0.00     0.018 A 
ATOM     11  C   UNL d   1     -53.013  24.601  33.311  0.00  0.00     0.003 A 
ATOM     12  C   UNL d   1     -51.656  27.614  33.316  0.00  0.00     0.021 A 
ATOM     13  C   UNL d   1     -50.061  27.230  33.359  0.00  0.00     0.021 A 
ATOM     14  C   UNL d   1     -52.760  23.195  33.330  0.00  0.00     0.002 A 
ATOM     15  C   UNL d   1     -53.294  23.823  33.311  0.00  0.00     0.000 A 
ATOM     16  C   UNL d   1     -50.310  28.037  33.346  0.00  0.00     0.002 A 
ATOM     17  C   UNL d   1     -51.096  28.237  33.324  0.00  0.00     0.002 A 
ENDROOT
BRANCH   2  18
ATOM     18  C   UNL d   1     -50.225  24.011  33.385  0.00  0.00     0.066 C 
ATOM     19  C   UNL d   1     -49.491  24.427  33.321  0.00  0.00     0.019 C 
ATOM     20  C   UNL d   1     -50.252  23.195  33.468  0.00  0.00     0.019 C 
ENDBRANCH   2  18
TORSDOF 1
ENDMDL
