MODEL 1
REMARK VINA RESULT:      -4.3      0.000      0.000
REMARK  6 active torsions:
REMARK  status: ('A' for Active; 'I' for Inactive)
REMARK    1  A    between atoms: S_2  and  C_1 
REMARK    2  A    between atoms: C_9  and  S_2 
REMARK    3  A    between atoms: N_10  and  C_6 
REMARK    4  A    between atoms: C_13  and  N_10 
REMARK    5  A    between atoms: N_12  and  C_14 
REMARK    6  A    between atoms: C_14  and  C_13 
ROOT
ATOM      1  C   UNL d   1      56.478  -0.058  32.454  0.00  0.00     0.187 A 
ATOM      2  N   UNL d   1      56.786   0.474  31.910  0.00  0.00    -0.208 NA
ATOM      3  C   UNL d   1      56.625  -0.822  32.177  0.00  0.00     0.118 A 
ATOM      4  S   UNL d   1      57.025  -0.755  31.461  0.00  0.00    -0.035 SA
ATOM      5  C   UNL d   1      57.125   0.041  31.296  0.00  0.00     0.196 A 
ATOM      6 CL   UNL d   1      56.410  -1.526  32.550  0.00  0.00    -0.073 Cl
ENDROOT
BRANCH   1   7
ATOM      7  S   UNL d   1      56.090   0.132  33.152  0.00  0.00     0.228 S 
ATOM      8  O   UNL d   1      56.785   0.220  33.579  0.00  0.00    -0.216 OA
ATOM      9  O   UNL d   1      55.392   0.046  32.732  0.00  0.00    -0.216 OA
BRANCH   7  10
ATOM     10  C   UNL d   1      55.624   0.316  33.815  0.00  0.00     0.089 A 
ATOM     11  C   UNL d   1      55.978   0.399  34.551  0.00  0.00     0.011 A 
ATOM     12  C   UNL d   1      55.514   0.583  35.218  0.00  0.00     0.001 A 
ATOM     13  C   UNL d   1      54.694   0.682  35.136  0.00  0.00     0.000 A 
ATOM     14  C   UNL d   1      54.338   0.597  34.387  0.00  0.00     0.001 A 
ATOM     15  C   UNL d   1      54.799   0.414  33.726  0.00  0.00     0.011 A 
ENDBRANCH   7  10
ENDBRANCH   1   7
BRANCH   5  16
ATOM     16  N   UNL d   1      57.498   0.351  30.633  0.00  0.00    -0.218 NA
BRANCH  16  17
ATOM     17  C   UNL d   1      58.315   0.325  30.587  0.00  0.00     0.120 C 
BRANCH  17  18
ATOM     18  C   UNL d   1      58.694   0.598  29.912  0.00  0.00     0.101 C 
BRANCH  18  19
ATOM     19  N   UNL d   1      59.513   0.490  29.864  0.00  0.00    -0.299 N 
ATOM     20  C   UNL d   1      59.978   0.679  30.512  0.00  0.00     0.100 C 
ATOM     21  C   UNL d   1      59.852   0.197  29.179  0.00  0.00     0.100 C 
ENDBRANCH  18  19
ENDBRANCH  17  18
ENDBRANCH  16  17
ENDBRANCH   5  16
TORSDOF 6
ENDMDL
MODEL 2
REMARK VINA RESULT:      -3.8      2.759      5.385
REMARK  6 active torsions:
REMARK  status: ('A' for Active; 'I' for Inactive)
REMARK    1  A    between atoms: S_2  and  C_1 
REMARK    2  A    between atoms: C_9  and  S_2 
REMARK    3  A    between atoms: N_10  and  C_6 
REMARK    4  A    between atoms: C_13  and  N_10 
REMARK    5  A    between atoms: N_12  and  C_14 
REMARK    6  A    between atoms: C_14  and  C_13 
ROOT
ATOM      1  C   UNL d   1      58.573  -0.702  29.562  0.00  0.00     0.187 A 
ATOM      2  N   UNL d   1      58.051  -0.637  30.192  0.00  0.00    -0.208 NA
ATOM      3  C   UNL d   1      58.629   0.036  29.197  0.00  0.00     0.118 A 
ATOM      4  S   UNL d   1      58.139   0.554  29.608  0.00  0.00    -0.035 SA
ATOM      5  C   UNL d   1      57.784   0.142  30.220  0.00  0.00     0.196 A 
ATOM      6 CL   UNL d   1      59.092   0.222  28.540  0.00  0.00    -0.073 Cl
ENDROOT
BRANCH   1   7
ATOM      7  S   UNL d   1      58.971  -1.382  29.330  0.00  0.00     0.228 S 
ATOM      8  O   UNL d   1      59.705  -1.096  29.558  0.00  0.00    -0.216 OA
ATOM      9  O   UNL d   1      58.241  -1.674  29.101  0.00  0.00    -0.216 OA
BRANCH   7  10
ATOM     10  C   UNL d   1      59.298  -2.102  29.072  0.00  0.00     0.089 A 
ATOM     11  C   UNL d   1      58.816  -2.663  28.716  0.00  0.00     0.011 A 
ATOM     12  C   UNL d   1      59.139  -3.385  28.456  0.00  0.00     0.001 A 
ATOM     13  C   UNL d   1      59.950  -3.534  28.557  0.00  0.00     0.000 A 
ATOM     14  C   UNL d   1      60.436  -2.961  28.918  0.00  0.00     0.001 A 
ATOM     15  C   UNL d   1      60.114  -2.245  29.176  0.00  0.00     0.011 A 
ENDBRANCH   7  10
ENDBRANCH   1   7
BRANCH   5  16
ATOM     16  N   UNL d   1      57.253   0.453  30.764  0.00  0.00    -0.218 NA
BRANCH  16  17
ATOM     17  C   UNL d   1      57.166   0.084  31.490  0.00  0.00     0.120 C 
BRANCH  17  18
ATOM     18  C   UNL d   1      56.629   0.380  32.036  0.00  0.00     0.101 C 
BRANCH  18  19
ATOM     19  N   UNL d   1      56.585   0.003  32.771  0.00  0.00    -0.299 N 
ATOM     20  C   UNL d   1      56.979   0.330  33.411  0.00  0.00     0.100 C 
ATOM     21  C   UNL d   1      56.154  -0.687  32.856  0.00  0.00     0.100 C 
ENDBRANCH  18  19
ENDBRANCH  17  18
ENDBRANCH  16  17
ENDBRANCH   5  16
TORSDOF 6
ENDMDL
MODEL 3
REMARK VINA RESULT:      -1.7      2.082      4.970
REMARK  6 active torsions:
REMARK  status: ('A' for Active; 'I' for Inactive)
REMARK    1  A    between atoms: S_2  and  C_1 
REMARK    2  A    between atoms: C_9  and  S_2 
REMARK    3  A    between atoms: N_10  and  C_6 
REMARK    4  A    between atoms: C_13  and  N_10 
REMARK    5  A    between atoms: N_12  and  C_14 
REMARK    6  A    between atoms: C_14  and  C_13 
ROOT
ATOM      1  C   UNL d   1      57.804  -0.342  30.736  0.00  0.00     0.187 A 
ATOM      2  N   UNL d   1      57.017  -0.339  30.970  0.00  0.00    -0.208 NA
ATOM      3  C   UNL d   1      58.187   0.283  31.113  0.00  0.00     0.118 A 
ATOM      4  S   UNL d   1      57.631   0.671  31.580  0.00  0.00    -0.035 SA
ATOM      5  C   UNL d   1      56.912   0.289  31.493  0.00  0.00     0.196 A 
ATOM      6 CL   UNL d   1      58.984   0.485  31.037  0.00  0.00    -0.073 Cl
ENDROOT
BRANCH   1   7
ATOM      7  S   UNL d   1      58.152  -0.875  30.217  0.00  0.00     0.228 S 
ATOM      8  O   UNL d   1      58.233  -1.461  30.785  0.00  0.00    -0.216 OA
ATOM      9  O   UNL d   1      58.075  -0.294  29.645  0.00  0.00    -0.216 OA
BRANCH   7  10
ATOM     10  C   UNL d   1      58.497  -1.353  29.631  0.00  0.00     0.089 A 
ATOM     11  C   UNL d   1      59.034  -1.026  29.103  0.00  0.00     0.011 A 
ATOM     12  C   UNL d   1      59.382  -1.502  28.515  0.00  0.00     0.001 A 
ATOM     13  C   UNL d   1      59.185  -2.307  28.464  0.00  0.00     0.000 A 
ATOM     14  C   UNL d   1      58.639  -2.635  29.002  0.00  0.00     0.001 A 
ATOM     15  C   UNL d   1      58.294  -2.161  29.586  0.00  0.00     0.011 A 
ENDBRANCH   7  10
ENDBRANCH   1   7
BRANCH   5  16
ATOM     16  N   UNL d   1      56.209   0.499  31.863  0.00  0.00    -0.218 NA
BRANCH  16  17
ATOM     17  C   UNL d   1      56.149   0.422  32.676  0.00  0.00     0.120 C 
BRANCH  17  18
ATOM     18  C   UNL d   1      55.410   0.430  33.033  0.00  0.00     0.101 C 
BRANCH  18  19
ATOM     19  N   UNL d   1      55.377   0.280  33.846  0.00  0.00    -0.299 N 
ATOM     20  C   UNL d   1      55.906   0.661  34.343  0.00  0.00     0.100 C 
ATOM     21  C   UNL d   1      54.824  -0.242  34.148  0.00  0.00     0.100 C 
ENDBRANCH  18  19
ENDBRANCH  17  18
ENDBRANCH  16  17
ENDBRANCH   5  16
TORSDOF 6
ENDMDL
