MODEL 1
REMARK VINA RESULT:      -7.3      0.000      0.000
REMARK  3 active torsions:
REMARK  status: ('A' for Active; 'I' for Inactive)
REMARK    1  A    between atoms: C_6  and  C_1 
REMARK    2  A    between atoms: C_7  and  C_4 
REMARK    3  A    between atoms: O_14  and  C_6 
ROOT
ATOM      1  C   UNL d   1     -46.478  13.334  22.586  0.00  0.00     0.167 A 
ATOM      2  C   UNL d   1     -46.678  13.907  23.153  0.00  0.00     0.047 A 
ATOM      3  N   UNL d   1     -47.804  13.358  22.092  0.00  0.00    -0.148 NA
ATOM      4  C   UNL d   1     -48.006  13.927  22.654  0.00  0.00     0.105 A 
ATOM      5  N   UNL d   1     -47.041  13.058  22.053  0.00  0.00    -0.143 NA
ENDROOT
BRANCH   4   6
ATOM      6  C   UNL d   1     -48.692  14.339  22.849  0.00  0.00     0.019 A 
ATOM      7  C   UNL d   1     -49.317  13.940  23.212  0.00  0.00     0.002 A 
ATOM      8  C   UNL d   1     -50.003  14.351  23.406  0.00  0.00     0.000 A 
ATOM      9  C   UNL d   1     -49.259  13.139  23.378  0.00  0.00     0.000 C 
ATOM     10  C   UNL d   1     -50.064  15.161  23.239  0.00  0.00     0.000 A 
ATOM     11  C   UNL d   1     -49.436  15.551  22.877  0.00  0.00     0.000 A 
ATOM     12  C   UNL d   1     -50.754  15.571  23.436  0.00  0.00     0.000 C 
ATOM     13  C   UNL d   1     -48.752  15.145  22.682  0.00  0.00     0.002 A 
ENDBRANCH   4   6
BRANCH   1  14
ATOM     14  C   UNL d   1     -45.705  13.040  22.558  0.00  0.00     0.316 C 
ATOM     15  O   UNL d   1     -45.464  12.475  23.104  0.00  0.00    -0.257 OA
BRANCH  14  16
ATOM     16  O   UNL d   1     -45.182  13.312  21.989  0.00  0.00    -0.294 OA
ATOM     17  C   UNL d   1     -44.427  12.923  21.876  0.00  0.00     0.185 C 
ENDBRANCH  14  16
ENDBRANCH   1  14
TORSDOF 3
ENDMDL
MODEL 2
REMARK VINA RESULT:      -7.1      1.475      2.213
REMARK  3 active torsions:
REMARK  status: ('A' for Active; 'I' for Inactive)
REMARK    1  A    between atoms: C_6  and  C_1 
REMARK    2  A    between atoms: C_7  and  C_4 
REMARK    3  A    between atoms: O_14  and  C_6 
ROOT
ATOM      1  C   UNL d   1     -45.805  13.074  22.552  0.00  0.00     0.167 A 
ATOM      2  C   UNL d   1     -46.455  12.918  22.059  0.00  0.00     0.047 A 
ATOM      3  N   UNL d   1     -46.602  12.812  23.691  0.00  0.00    -0.148 NA
ATOM      4  C   UNL d   1     -47.251  12.656  23.205  0.00  0.00     0.105 A 
ATOM      5  N   UNL d   1     -45.877  13.021  23.370  0.00  0.00    -0.143 NA
ENDROOT
BRANCH   4   6
ATOM      6  C   UNL d   1     -48.036  12.438  23.328  0.00  0.00     0.019 A 
ATOM      7  C   UNL d   1     -48.630  13.007  23.262  0.00  0.00     0.002 A 
ATOM      8  C   UNL d   1     -49.415  12.790  23.385  0.00  0.00     0.000 A 
ATOM      9  C   UNL d   1     -48.445  13.783  23.076  0.00  0.00     0.000 C 
ATOM     10  C   UNL d   1     -49.605  12.005  23.574  0.00  0.00     0.000 A 
ATOM     11  C   UNL d   1     -49.005  11.444  23.638  0.00  0.00     0.000 A 
ATOM     12  C   UNL d   1     -50.393  11.790  23.697  0.00  0.00     0.000 C 
ATOM     13  C   UNL d   1     -48.224  11.657  23.516  0.00  0.00     0.002 A 
ENDBRANCH   4   6
BRANCH   1  14
ATOM     14  C   UNL d   1     -45.080  13.284  22.214  0.00  0.00     0.316 C 
ATOM     15  O   UNL d   1     -44.849  14.073  22.201  0.00  0.00    -0.257 OA
BRANCH  14  16
ATOM     16  O   UNL d   1     -44.593  12.708  21.895  0.00  0.00    -0.294 OA
ATOM     17  C   UNL d   1     -43.868  12.929  21.494  0.00  0.00     0.185 C 
ENDBRANCH  14  16
ENDBRANCH   1  14
TORSDOF 3
ENDMDL
MODEL 3
REMARK VINA RESULT:      -7.1      1.587      2.236
REMARK  3 active torsions:
REMARK  status: ('A' for Active; 'I' for Inactive)
REMARK    1  A    between atoms: C_6  and  C_1 
REMARK    2  A    between atoms: C_7  and  C_4 
REMARK    3  A    between atoms: O_14  and  C_6 
ROOT
ATOM      1  C   UNL d   1     -46.046  11.632  23.459  0.00  0.00     0.167 A 
ATOM      2  C   UNL d   1     -46.871  11.603  23.379  0.00  0.00     0.047 A 
ATOM      3  N   UNL d   1     -46.071  13.031  23.249  0.00  0.00    -0.148 NA
ATOM      4  C   UNL d   1     -46.893  13.007  23.169  0.00  0.00     0.105 A 
ATOM      5  N   UNL d   1     -45.643  12.346  23.394  0.00  0.00    -0.143 NA
ENDROOT
BRANCH   4   6
ATOM      6  C   UNL d   1     -47.484  13.563  23.027  0.00  0.00     0.019 A 
ATOM      7  C   UNL d   1     -47.275  14.326  22.791  0.00  0.00     0.002 A 
ATOM      8  C   UNL d   1     -47.865  14.882  22.649  0.00  0.00     0.000 A 
ATOM      9  C   UNL d   1     -46.487  14.532  22.699  0.00  0.00     0.000 C 
ATOM     10  C   UNL d   1     -48.663  14.675  22.742  0.00  0.00     0.000 A 
ATOM     11  C   UNL d   1     -48.862  13.911  22.977  0.00  0.00     0.000 A 
ATOM     12  C   UNL d   1     -49.253  15.235  22.598  0.00  0.00     0.000 C 
ATOM     13  C   UNL d   1     -48.277  13.356  23.120  0.00  0.00     0.002 A 
ENDBRANCH   4   6
BRANCH   1  14
ATOM     14  C   UNL d   1     -45.626  10.934  23.605  0.00  0.00     0.316 C 
ATOM     15  O   UNL d   1     -46.032  10.225  23.698  0.00  0.00    -0.257 OA
BRANCH  14  16
ATOM     16  O   UNL d   1     -44.808  10.949  23.657  0.00  0.00    -0.294 OA
ATOM     17  C   UNL d   1     -44.364  10.217  23.696  0.00  0.00     0.185 C 
ENDBRANCH  14  16
ENDBRANCH   1  14
TORSDOF 3
ENDMDL
MODEL 4
REMARK VINA RESULT:      -6.4      8.064      9.062
REMARK  3 active torsions:
REMARK  status: ('A' for Active; 'I' for Inactive)
REMARK    1  A    between atoms: C_6  and  C_1 
REMARK    2  A    between atoms: C_7  and  C_4 
REMARK    3  A    between atoms: O_14  and  C_6 
ROOT
ATOM      1  C   UNL d   1     -40.854  15.201  17.597  0.00  0.00     0.167 A 
ATOM      2  C   UNL d   1     -40.568  15.680  18.212  0.00  0.00     0.047 A 
ATOM      3  N   UNL d   1     -40.725  14.059  18.423  0.00  0.00    -0.148 NA
ATOM      4  C   UNL d   1     -40.441  14.533  19.037  0.00  0.00     0.105 A 
ATOM      5  N   UNL d   1     -40.933  14.388  17.701  0.00  0.00    -0.143 NA
ENDROOT
BRANCH   4   6
ATOM      6  C   UNL d   1     -40.187  14.399  19.810  0.00  0.00     0.019 A 
ATOM      7  C   UNL d   1     -39.394  14.219  19.952  0.00  0.00     0.002 A 
ATOM      8  C   UNL d   1     -39.140  14.086  20.723  0.00  0.00     0.000 A 
ATOM      9  C   UNL d   1     -38.860  14.173  19.331  0.00  0.00     0.000 C 
ATOM     10  C   UNL d   1     -39.678  14.132  21.352  0.00  0.00     0.000 A 
ATOM     11  C   UNL d   1     -40.468  14.312  21.201  0.00  0.00     0.000 A 
ATOM     12  C   UNL d   1     -39.421  13.998  22.126  0.00  0.00     0.000 C 
ATOM     13  C   UNL d   1     -40.723  14.445  20.435  0.00  0.00     0.002 A 
ENDBRANCH   4   6
BRANCH   1  14
ATOM     14  C   UNL d   1     -41.060  15.546  16.874  0.00  0.00     0.316 C 
ATOM     15  O   UNL d   1     -40.485  15.920  16.421  0.00  0.00    -0.257 OA
BRANCH  14  16
ATOM     16  O   UNL d   1     -41.835  15.514  16.610  0.00  0.00    -0.294 OA
ATOM     17  C   UNL d   1     -42.063  15.922  15.891  0.00  0.00     0.185 C 
ENDBRANCH  14  16
ENDBRANCH   1  14
TORSDOF 3
ENDMDL
MODEL 5
REMARK VINA RESULT:      -5.9      7.483     10.035
REMARK  3 active torsions:
REMARK  status: ('A' for Active; 'I' for Inactive)
REMARK    1  A    between atoms: C_6  and  C_1 
REMARK    2  A    between atoms: C_7  and  C_4 
REMARK    3  A    between atoms: O_14  and  C_6 
ROOT
ATOM      1  C   UNL d   1     -40.438  14.581  19.486  0.00  0.00     0.167 A 
ATOM      2  C   UNL d   1     -39.661  14.778  19.270  0.00  0.00     0.047 A 
ATOM      3  N   UNL d   1     -40.611  13.904  18.255  0.00  0.00    -0.148 NA
ATOM      4  C   UNL d   1     -39.838  14.098  18.037  0.00  0.00     0.105 A 
ATOM      5  N   UNL d   1     -40.916  14.143  18.979  0.00  0.00    -0.143 NA
ENDROOT
BRANCH   4   6
ATOM      6  C   UNL d   1     -39.363  13.958  17.379  0.00  0.00     0.019 A 
ATOM      7  C   UNL d   1     -39.410  14.464  16.729  0.00  0.00     0.002 A 
ATOM      8  C   UNL d   1     -38.935  14.325  16.071  0.00  0.00     0.000 A 
ATOM      9  C   UNL d   1     -39.923  15.103  16.735  0.00  0.00     0.000 C 
ATOM     10  C   UNL d   1     -38.415  13.679  16.063  0.00  0.00     0.000 A 
ATOM     11  C   UNL d   1     -38.376  13.179  16.716  0.00  0.00     0.000 A 
ATOM     12  C   UNL d   1     -37.940  13.541  15.401  0.00  0.00     0.000 C 
ATOM     13  C   UNL d   1     -38.846  13.315  17.372  0.00  0.00     0.002 A 
ENDBRANCH   4   6
BRANCH   1  14
ATOM     14  C   UNL d   1     -40.733  14.828  20.218  0.00  0.00     0.316 C 
ATOM     15  O   UNL d   1     -40.785  14.292  20.839  0.00  0.00    -0.257 OA
BRANCH  14  16
ATOM     16  O   UNL d   1     -40.972  15.605  20.324  0.00  0.00    -0.294 OA
ATOM     17  C   UNL d   1     -41.166  15.894  21.108  0.00  0.00     0.185 C 
ENDBRANCH  14  16
ENDBRANCH   1  14
TORSDOF 3
ENDMDL
MODEL 6
REMARK VINA RESULT:      -5.0      8.586      9.097
REMARK  3 active torsions:
REMARK  status: ('A' for Active; 'I' for Inactive)
REMARK    1  A    between atoms: C_6  and  C_1 
REMARK    2  A    between atoms: C_7  and  C_4 
REMARK    3  A    between atoms: O_14  and  C_6 
ROOT
ATOM      1  C   UNL d   1     -39.231  14.426  20.934  0.00  0.00     0.167 A 
ATOM      2  C   UNL d   1     -40.031  14.537  20.744  0.00  0.00     0.047 A 
ATOM      3  N   UNL d   1     -38.871  14.709  19.596  0.00  0.00    -0.148 NA
ATOM      4  C   UNL d   1     -39.666  14.820  19.403  0.00  0.00     0.105 A 
ATOM      5  N   UNL d   1     -38.648  14.512  20.360  0.00  0.00    -0.143 NA
ENDROOT
BRANCH   4   6
ATOM      6  C   UNL d   1     -40.081  15.015  18.718  0.00  0.00     0.019 A 
ATOM      7  C   UNL d   1     -40.086  14.488  18.083  0.00  0.00     0.002 A 
ATOM      8  C   UNL d   1     -40.500  14.682  17.398  0.00  0.00     0.000 A 
ATOM      9  C   UNL d   1     -39.683  13.775  18.129  0.00  0.00     0.000 C 
ATOM     10  C   UNL d   1     -40.908  15.403  17.348  0.00  0.00     0.000 A 
ATOM     11  C   UNL d   1     -40.897  15.922  17.987  0.00  0.00     0.000 A 
ATOM     12  C   UNL d   1     -41.322  15.595  16.660  0.00  0.00     0.000 C 
ATOM     13  C   UNL d   1     -40.486  15.732  18.670  0.00  0.00     0.002 A 
ENDBRANCH   4   6
BRANCH   1  14
ATOM     14  C   UNL d   1     -39.020  14.227  21.709  0.00  0.00     0.316 C 
ATOM     15  O   UNL d   1     -39.048  14.798  22.300  0.00  0.00    -0.257 OA
BRANCH  14  16
ATOM     16  O   UNL d   1     -38.783  13.463  21.888  0.00  0.00    -0.294 OA
ATOM     17  C   UNL d   1     -38.485  13.275  22.669  0.00  0.00     0.185 C 
ENDBRANCH  14  16
ENDBRANCH   1  14
TORSDOF 3
ENDMDL
MODEL 7
REMARK VINA RESULT:      -4.6      8.283      9.916
REMARK  3 active torsions:
REMARK  status: ('A' for Active; 'I' for Inactive)
REMARK    1  A    between atoms: C_6  and  C_1 
REMARK    2  A    between atoms: C_7  and  C_4 
REMARK    3  A    between atoms: O_14  and  C_6 
ROOT
ATOM      1  C   UNL d   1     -38.577  14.788  16.945  0.00  0.00     0.167 A 
ATOM      2  C   UNL d   1     -39.400  14.786  17.053  0.00  0.00     0.047 A 
ATOM      3  N   UNL d   1     -38.395  15.066  18.321  0.00  0.00    -0.148 NA
ATOM      4  C   UNL d   1     -39.213  15.066  18.432  0.00  0.00     0.105 A 
ATOM      5  N   UNL d   1     -38.071  14.928  17.579  0.00  0.00    -0.143 NA
ENDROOT
BRANCH   4   6
ATOM      6  C   UNL d   1     -39.717  15.179  19.074  0.00  0.00     0.019 A 
ATOM      7  C   UNL d   1     -39.665  14.675  19.724  0.00  0.00     0.002 A 
ATOM      8  C   UNL d   1     -40.168  14.788  20.366  0.00  0.00     0.000 A 
ATOM      9  C   UNL d   1     -39.119  14.064  19.736  0.00  0.00     0.000 C 
ATOM     10  C   UNL d   1     -40.722  15.405  20.357  0.00  0.00     0.000 A 
ATOM     11  C   UNL d   1     -40.766  15.904  19.703  0.00  0.00     0.000 A 
ATOM     12  C   UNL d   1     -41.225  15.517  21.003  0.00  0.00     0.000 C 
ATOM     13  C   UNL d   1     -40.267  15.794  19.063  0.00  0.00     0.002 A 
ENDBRANCH   4   6
BRANCH   1  14
ATOM     14  C   UNL d   1     -38.264  14.647  16.193  0.00  0.00     0.316 C 
ATOM     15  O   UNL d   1     -38.132  15.276  15.681  0.00  0.00    -0.257 OA
BRANCH  14  16
ATOM     16  O   UNL d   1     -38.086  13.882  15.958  0.00  0.00    -0.294 OA
ATOM     17  C   UNL d   1     -37.940  13.707  15.132  0.00  0.00     0.185 C 
ENDBRANCH  14  16
ENDBRANCH   1  14
TORSDOF 3
ENDMDL
MODEL 8
REMARK VINA RESULT:      -4.3      8.147      9.240
REMARK  3 active torsions:
REMARK  status: ('A' for Active; 'I' for Inactive)
REMARK    1  A    between atoms: C_6  and  C_1 
REMARK    2  A    between atoms: C_7  and  C_4 
REMARK    3  A    between atoms: O_14  and  C_6 
ROOT
ATOM      1  C   UNL d   1     -39.948  14.931  18.511  0.00  0.00     0.167 A 
ATOM      2  C   UNL d   1     -39.963  14.370  19.123  0.00  0.00     0.047 A 
ATOM      3  N   UNL d   1     -39.518  15.922  19.425  0.00  0.00    -0.148 NA
ATOM      4  C   UNL d   1     -39.531  15.367  20.037  0.00  0.00     0.105 A 
ATOM      5  N   UNL d   1     -39.726  15.709  18.660  0.00  0.00    -0.143 NA
ENDROOT
BRANCH   4   6
ATOM      6  C   UNL d   1     -39.364  15.381  20.843  0.00  0.00     0.019 A 
ATOM      7  C   UNL d   1     -39.957  15.590  21.378  0.00  0.00     0.002 A 
ATOM      8  C   UNL d   1     -39.791  15.604  22.184  0.00  0.00     0.000 A 
ATOM      9  C   UNL d   1     -40.709  15.782  21.111  0.00  0.00     0.000 C 
ATOM     10  C   UNL d   1     -39.032  15.410  22.455  0.00  0.00     0.000 A 
ATOM     11  C   UNL d   1     -38.446  15.203  21.915  0.00  0.00     0.000 A 
ATOM     12  C   UNL d   1     -38.868  15.425  23.265  0.00  0.00     0.000 C 
ATOM     13  C   UNL d   1     -38.609  15.188  21.112  0.00  0.00     0.002 A 
ENDBRANCH   4   6
BRANCH   1  14
ATOM     14  C   UNL d   1     -40.160  14.703  17.745  0.00  0.00     0.316 C 
ATOM     15  O   UNL d   1     -40.935  14.800  17.489  0.00  0.00    -0.257 OA
BRANCH  14  16
ATOM     16  O   UNL d   1     -39.599  14.381  17.242  0.00  0.00    -0.294 OA
ATOM     17  C   UNL d   1     -39.704  14.426  16.392  0.00  0.00     0.185 C 
ENDBRANCH  14  16
ENDBRANCH   1  14
TORSDOF 3
ENDMDL
