MODEL 1
REMARK VINA RESULT:      74.7      0.000      0.000
REMARK  6 active torsions:
REMARK  status: ('A' for Active; 'I' for Inactive)
REMARK    1  A    between atoms: S_10  and  C_5 
REMARK    2  A    between atoms: C_11  and  N_8 
REMARK    3  A    between atoms: C_15  and  S_10 
REMARK    4  A    between atoms: C_16  and  C_11 
REMARK    5  A    between atoms: C_17  and  C_15 
REMARK    6  A    between atoms: C_23  and  C_16 
ROOT
ATOM      1  C   UNL d   1      57.195  49.670  54.099  0.00  0.00     0.174 A 
ATOM      2  C   UNL d   1      58.003  49.684  53.915  0.00  0.00     0.159 A 
ATOM      3  N   UNL d   1      56.778  49.665  53.395  0.00  0.00    -0.203 NA
ATOM      4  N   UNL d   1      56.963  49.663  54.890  0.00  0.00    -0.239 N 
ATOM      5  C   UNL d   1      57.334  49.677  52.783  0.00  0.00     0.181 A 
ATOM      6  C   UNL d   1      57.518  49.671  55.520  0.00  0.00     0.358 A 
ATOM      7  N   UNL d   1      58.326  49.685  55.336  0.00  0.00    -0.152 NA
ATOM      8  N   UNL d   1      58.132  49.690  53.027  0.00  0.00    -0.279 N 
ATOM      9  C   UNL d   1      58.579  49.692  54.522  0.00  0.00     0.302 A 
ATOM     10  O   UNL d   1      57.289  49.664  56.323  0.00  0.00    -0.244 OA
ATOM     11  O   UNL d   1      59.387  49.707  54.339  0.00  0.00    -0.263 OA
ATOM     12  C   UNL d   1      56.155  49.649  55.074  0.00  0.00     0.105 C 
ENDROOT
BRANCH   5  13
ATOM     13  S   UNL d   1      56.950  49.672  52.055  0.00  0.00    -0.049 SA
BRANCH  13  14
ATOM     14  C   UNL d   1      56.224  49.387  51.777  0.00  0.00     0.038 C 
BRANCH  14  15
ATOM     15  C   UNL d   1      56.182  49.007  51.046  0.00  0.00     0.007 A 
ATOM     16  C   UNL d   1      56.182  48.185  51.015  0.00  0.00     0.001 A 
ATOM     17  C   UNL d   1      56.140  47.805  50.284  0.00  0.00     0.000 A 
ATOM     18  C   UNL d   1      56.098  48.249  49.587  0.00  0.00     0.000 A 
ATOM     19  C   UNL d   1      56.097  49.077  49.626  0.00  0.00     0.000 A 
ATOM     20  C   UNL d   1      56.055  47.867  48.853  0.00  0.00     0.000 C 
ATOM     21  C   UNL d   1      56.139  49.452  50.359  0.00  0.00     0.001 A 
ENDBRANCH  14  15
ENDBRANCH  13  14
ENDBRANCH   5  13
BRANCH   8  22
ATOM     22  C   UNL d   1      58.741  49.702  52.473  0.00  0.00     0.082 C 
BRANCH  22  23
ATOM     23  C   UNL d   1      59.405  49.222  52.572  0.00  0.00     0.019 C 
BRANCH  23  24
ATOM     24  C   UNL d   1      59.856  48.994  51.921  0.00  0.00     0.002 C 
ATOM     25  C   UNL d   1      60.451  49.486  51.631  0.00  0.00     0.000 C 
ATOM     26  C   UNL d   1      59.716  48.268  51.550  0.00  0.00     0.000 C 
ENDBRANCH  23  24
ENDBRANCH  22  23
ENDBRANCH   8  22
TORSDOF 6
ENDMDL
