MODEL 1
REMARK VINA RESULT:      -3.4      0.000      0.000
REMARK  4 active torsions:
REMARK  status: ('A' for Active; 'I' for Inactive)
REMARK    1  A    between atoms: C_16  and  C_4 
REMARK    2  A    between atoms: C_8  and  S_14 
REMARK    3  A    between atoms: C_18  and  C_9 
REMARK    4  A    between atoms: S_14  and  C_16 
ROOT
ATOM      1  N   UNL d   1      31.822  17.568 -23.667  0.00  0.00    -0.218 NA
ATOM      2  C   UNL d   1      32.591  17.880 -23.604  0.00  0.00     0.215 A 
ATOM      3  C   UNL d   1      31.694  16.816 -23.918  0.00  0.00     0.104 A 
ATOM      4  N   UNL d   1      33.241  17.407 -23.804  0.00  0.00    -0.121 NA
ATOM      5  N   UNL d   1      33.114  16.630 -24.065  0.00  0.00    -0.143 NA
ATOM      6  C   UNL d   1      32.359  16.335 -24.122  0.00  0.00     0.141 A 
ENDROOT
BRANCH   2   7
ATOM      7  S   UNL d   1      32.708  18.646 -23.347  0.00  0.00    -0.045 SA
BRANCH   7   8
ATOM      8  C   UNL d   1      33.240  18.787 -22.743  0.00  0.00     0.060 C 
BRANCH   8   9
ATOM      9  C   UNL d   1      33.222  19.524 -22.324  0.00  0.00     0.124 A 
ATOM     10  N   UNL d   1      33.185  19.631 -21.534  0.00  0.00    -0.059 NA
ATOM     11  C   UNL d   1      33.180  20.437 -21.383  0.00  0.00     0.735 A 
ATOM     12  N   UNL d   1      33.215  20.819 -22.113  0.00  0.00    -0.136 N 
ATOM     13  N   UNL d   1      33.148  20.884 -20.685  0.00  0.00    -0.059 NA
ATOM     14  C   UNL d   1      33.241  20.246 -22.696  0.00  0.00     0.118 A 
ATOM     15  C   UNL d   1      33.219  21.639 -22.150  0.00  0.00     0.100 A 
ATOM     16  C   UNL d   1      33.187  22.085 -21.452  0.00  0.00     0.041 A 
ATOM     17  C   UNL d   1      33.152  21.710 -20.720  0.00  0.00     0.119 A 
ENDBRANCH   8   9
ENDBRANCH   7   8
ENDBRANCH   2   7
BRANCH   3  18
ATOM     18  C   UNL d   1      30.918  16.507 -23.980  0.00  0.00     0.019 A 
ATOM     19  C   UNL d   1      30.490  16.663 -24.661  0.00  0.00     0.002 A 
ATOM     20  C   UNL d   1      29.714  16.354 -24.722  0.00  0.00     0.000 A 
ATOM     21  C   UNL d   1      29.397  15.906 -24.107  0.00  0.00     0.000 A 
ATOM     22  C   UNL d   1      29.857  15.764 -23.425  0.00  0.00     0.000 A 
ATOM     23  C   UNL d   1      30.613  16.070 -23.377  0.00  0.00     0.002 A 
ENDBRANCH   3  18
TORSDOF 4
ENDMDL
MODEL 2
REMARK VINA RESULT:      -3.0      1.372      5.462
REMARK  4 active torsions:
REMARK  status: ('A' for Active; 'I' for Inactive)
REMARK    1  A    between atoms: C_16  and  C_4 
REMARK    2  A    between atoms: C_8  and  S_14 
REMARK    3  A    between atoms: C_18  and  C_9 
REMARK    4  A    between atoms: S_14  and  C_16 
ROOT
ATOM      1  N   UNL d   1      32.876  20.803 -21.876  0.00  0.00    -0.218 NA
ATOM      2  C   UNL d   1      33.044  19.991 -21.810  0.00  0.00     0.215 A 
ATOM      3  C   UNL d   1      32.887  21.287 -21.233  0.00  0.00     0.104 A 
ATOM      4  N   UNL d   1      33.228  19.671 -21.068  0.00  0.00    -0.121 NA
ATOM      5  N   UNL d   1      33.241  20.165 -20.402  0.00  0.00    -0.143 NA
ATOM      6  C   UNL d   1      33.075  20.957 -20.478  0.00  0.00     0.141 A 
ENDROOT
BRANCH   2   7
ATOM      7  S   UNL d   1      33.030  19.510 -22.469  0.00  0.00    -0.045 SA
BRANCH   7   8
ATOM      8  C   UNL d   1      33.190  18.713 -22.385  0.00  0.00     0.060 C 
BRANCH   8   9
ATOM      9  C   UNL d   1      32.965  18.168 -22.994  0.00  0.00     0.124 A 
ATOM     10  N   UNL d   1      32.488  18.309 -23.618  0.00  0.00    -0.059 NA
ATOM     11  C   UNL d   1      32.428  17.619 -24.058  0.00  0.00     0.735 A 
ATOM     12  N   UNL d   1      32.887  17.050 -23.677  0.00  0.00    -0.136 N 
ATOM     13  N   UNL d   1      32.021  17.422 -24.753  0.00  0.00    -0.059 NA
ATOM     14  C   UNL d   1      33.220  17.397 -23.014  0.00  0.00     0.118 A 
ATOM     15  C   UNL d   1      32.943  16.291 -23.984  0.00  0.00     0.100 A 
ATOM     16  C   UNL d   1      32.536  16.095 -24.679  0.00  0.00     0.041 A 
ATOM     17  C   UNL d   1      32.075  16.658 -25.064  0.00  0.00     0.119 A 
ENDBRANCH   8   9
ENDBRANCH   7   8
ENDBRANCH   2   7
BRANCH   3  18
ATOM     18  C   UNL d   1      32.717  22.103 -21.305  0.00  0.00     0.019 A 
ATOM     19  C   UNL d   1      32.040  22.393 -20.944  0.00  0.00     0.002 A 
ATOM     20  C   UNL d   1      31.870  23.210 -21.016  0.00  0.00     0.000 A 
ATOM     21  C   UNL d   1      32.377  23.702 -21.442  0.00  0.00     0.000 A 
ATOM     22  C   UNL d   1      33.058  23.379 -21.799  0.00  0.00     0.000 A 
ATOM     23  C   UNL d   1      33.214  22.580 -21.722  0.00  0.00     0.002 A 
ENDBRANCH   3  18
TORSDOF 4
ENDMDL
MODEL 3
REMARK VINA RESULT:      -2.8      0.883      1.353
REMARK  4 active torsions:
REMARK  status: ('A' for Active; 'I' for Inactive)
REMARK    1  A    between atoms: C_16  and  C_4 
REMARK    2  A    between atoms: C_8  and  S_14 
REMARK    3  A    between atoms: C_18  and  C_9 
REMARK    4  A    between atoms: S_14  and  C_16 
ROOT
ATOM      1  N   UNL d   1      32.212  18.223 -23.807  0.00  0.00    -0.218 NA
ATOM      2  C   UNL d   1      32.708  18.880 -23.927  0.00  0.00     0.215 A 
ATOM      3  C   UNL d   1      32.222  17.594 -24.306  0.00  0.00     0.104 A 
ATOM      4  N   UNL d   1      33.225  18.888 -24.575  0.00  0.00    -0.121 NA
ATOM      5  N   UNL d   1      33.239  18.241 -25.093  0.00  0.00    -0.143 NA
ATOM      6  C   UNL d   1      32.750  17.604 -24.966  0.00  0.00     0.141 A 
ENDROOT
BRANCH   2   7
ATOM      7  S   UNL d   1      32.689  19.514 -23.413  0.00  0.00    -0.045 SA
BRANCH   7   8
ATOM      8  C   UNL d   1      33.116  19.477 -22.718  0.00  0.00     0.060 C 
BRANCH   8   9
ATOM      9  C   UNL d   1      33.106  20.131 -22.178  0.00  0.00     0.124 A 
ATOM     10  N   UNL d   1      32.990  20.901 -22.352  0.00  0.00    -0.059 NA
ATOM     11  C   UNL d   1      33.028  21.332 -21.654  0.00  0.00     0.735 A 
ATOM     12  N   UNL d   1      33.172  20.793 -21.047  0.00  0.00    -0.136 N 
ATOM     13  N   UNL d   1      32.952  22.139 -21.481  0.00  0.00    -0.059 NA
ATOM     14  C   UNL d   1      33.220  20.046 -21.378  0.00  0.00     0.118 A 
ATOM     15  C   UNL d   1      33.241  21.054 -20.272  0.00  0.00     0.100 A 
ATOM     16  C   UNL d   1      33.165  21.861 -20.098  0.00  0.00     0.041 A 
ATOM     17  C   UNL d   1      33.021  22.404 -20.701  0.00  0.00     0.119 A 
ENDBRANCH   8   9
ENDBRANCH   7   8
ENDBRANCH   2   7
BRANCH   3  18
ATOM     18  C   UNL d   1      31.720  16.935 -24.180  0.00  0.00     0.019 A 
ATOM     19  C   UNL d   1      32.048  16.249 -23.875  0.00  0.00     0.002 A 
ATOM     20  C   UNL d   1      31.546  15.590 -23.749  0.00  0.00     0.000 A 
ATOM     21  C   UNL d   1      30.743  15.641 -23.930  0.00  0.00     0.000 A 
ATOM     22  C   UNL d   1      30.438  16.354 -24.239  0.00  0.00     0.000 A 
ATOM     23  C   UNL d   1      30.937  16.989 -24.358  0.00  0.00     0.002 A 
ENDBRANCH   3  18
TORSDOF 4
ENDMDL
MODEL 4
REMARK VINA RESULT:      -2.3      1.152      1.911
REMARK  4 active torsions:
REMARK  status: ('A' for Active; 'I' for Inactive)
REMARK    1  A    between atoms: C_16  and  C_4 
REMARK    2  A    between atoms: C_8  and  S_14 
REMARK    3  A    between atoms: C_18  and  C_9 
REMARK    4  A    between atoms: S_14  and  C_16 
ROOT
ATOM      1  N   UNL d   1      30.955  16.467 -23.608  0.00  0.00    -0.218 NA
ATOM      2  C   UNL d   1      31.769  16.448 -23.782  0.00  0.00     0.215 A 
ATOM      3  C   UNL d   1      30.426  16.035 -24.032  0.00  0.00     0.104 A 
ATOM      4  N   UNL d   1      32.042  15.975 -24.406  0.00  0.00    -0.121 NA
ATOM      5  N   UNL d   1      31.500  15.528 -24.846  0.00  0.00    -0.143 NA
ATOM      6  C   UNL d   1      30.708  15.554 -24.668  0.00  0.00     0.141 A 
ENDROOT
BRANCH   2   7
ATOM      7  S   UNL d   1      32.297  16.890 -23.345  0.00  0.00    -0.045 SA
BRANCH   7   8
ATOM      8  C   UNL d   1      32.779  17.428 -23.727  0.00  0.00     0.060 C 
BRANCH   8   9
ATOM      9  C   UNL d   1      32.884  18.207 -23.408  0.00  0.00     0.124 A 
ATOM     10  N   UNL d   1      32.905  18.895 -23.811  0.00  0.00    -0.059 NA
ATOM     11  C   UNL d   1      33.017  19.505 -23.273  0.00  0.00     0.735 A 
ATOM     12  N   UNL d   1      33.062  19.161 -22.526  0.00  0.00    -0.136 N 
ATOM     13  N   UNL d   1      33.084  20.328 -23.354  0.00  0.00    -0.059 NA
ATOM     14  C   UNL d   1      32.978  18.352 -22.614  0.00  0.00     0.118 A 
ATOM     15  C   UNL d   1      33.173  19.630 -21.861  0.00  0.00     0.100 A 
ATOM     16  C   UNL d   1      33.240  20.453 -21.942  0.00  0.00     0.041 A 
ATOM     17  C   UNL d   1      33.196  20.802 -22.686  0.00  0.00     0.119 A 
ENDBRANCH   8   9
ENDBRANCH   7   8
ENDBRANCH   2   7
BRANCH   3  18
ATOM     18  C   UNL d   1      29.609  16.058 -23.853  0.00  0.00     0.019 A 
ATOM     19  C   UNL d   1      29.296  15.461 -23.386  0.00  0.00     0.002 A 
ATOM     20  C   UNL d   1      28.478  15.484 -23.207  0.00  0.00     0.000 A 
ATOM     21  C   UNL d   1      28.008  16.097 -23.496  0.00  0.00     0.000 A 
ATOM     22  C   UNL d   1      28.355  16.691 -23.969  0.00  0.00     0.000 A 
ATOM     23  C   UNL d   1      29.153  16.658 -24.137  0.00  0.00     0.002 A 
ENDBRANCH   3  18
TORSDOF 4
ENDMDL
MODEL 5
REMARK VINA RESULT:      -2.0      2.452      6.418
REMARK  4 active torsions:
REMARK  status: ('A' for Active; 'I' for Inactive)
REMARK    1  A    between atoms: C_16  and  C_4 
REMARK    2  A    between atoms: C_8  and  S_14 
REMARK    3  A    between atoms: C_18  and  C_9 
REMARK    4  A    between atoms: S_14  and  C_16 
ROOT
ATOM      1  N   UNL d   1      32.855  22.541 -20.055  0.00  0.00    -0.218 NA
ATOM      2  C   UNL d   1      32.819  22.423 -20.878  0.00  0.00     0.215 A 
ATOM      3  C   UNL d   1      32.474  23.155 -19.703  0.00  0.00     0.104 A 
ATOM      4  N   UNL d   1      32.382  22.949 -21.347  0.00  0.00    -0.121 NA
ATOM      5  N   UNL d   1      31.988  23.584 -20.988  0.00  0.00    -0.143 NA
ATOM      6  C   UNL d   1      32.030  23.689 -20.183  0.00  0.00     0.141 A 
ENDROOT
BRANCH   2   7
ATOM      7  S   UNL d   1      33.210  21.796 -21.224  0.00  0.00    -0.045 SA
BRANCH   7   8
ATOM      8  C   UNL d   1      32.946  21.036 -21.086  0.00  0.00     0.060 C 
BRANCH   8   9
ATOM      9  C   UNL d   1      33.004  20.448 -21.694  0.00  0.00     0.124 A 
ATOM     10  N   UNL d   1      33.093  20.569 -22.478  0.00  0.00    -0.059 NA
ATOM     11  C   UNL d   1      33.122  19.839 -22.851  0.00  0.00     0.735 A 
ATOM     12  N   UNL d   1      33.047  19.266 -22.263  0.00  0.00    -0.136 N 
ATOM     13  N   UNL d   1      33.206  19.609 -23.643  0.00  0.00    -0.059 NA
ATOM     14  C   UNL d   1      32.973  19.650 -21.544  0.00  0.00     0.118 A 
ATOM     15  C   UNL d   1      33.055  18.469 -22.459  0.00  0.00     0.100 A 
ATOM     16  C   UNL d   1      33.139  18.239 -23.251  0.00  0.00     0.041 A 
ATOM     17  C   UNL d   1      33.214  18.807 -23.843  0.00  0.00     0.119 A 
ENDBRANCH   8   9
ENDBRANCH   7   8
ENDBRANCH   2   7
BRANCH   3  18
ATOM     18  C   UNL d   1      32.513  23.268 -18.874  0.00  0.00     0.019 A 
ATOM     19  C   UNL d   1      33.202  23.054 -18.484  0.00  0.00     0.002 A 
ATOM     20  C   UNL d   1      33.241  23.167 -17.655  0.00  0.00     0.000 A 
ATOM     21  C   UNL d   1      32.597  23.488 -17.250  0.00  0.00     0.000 A 
ATOM     22  C   UNL d   1      31.910  23.697 -17.674  0.00  0.00     0.000 A 
ATOM     23  C   UNL d   1      31.883  23.581 -18.483  0.00  0.00     0.002 A 
ENDBRANCH   3  18
TORSDOF 4
ENDMDL
