MODEL 1
REMARK VINA RESULT:      35.3      0.000      0.000
REMARK  4 active torsions:
REMARK  status: ('A' for Active; 'I' for Inactive)
REMARK    1  A    between atoms: N_7  and  S_1 
REMARK    2  A    between atoms: C_11  and  S_1 
REMARK    3  A    between atoms: C_14  and  N_7 
REMARK    4  A    between atoms: C_13  and  C_14 
ROOT
ATOM      1  N   UNL d   1     -59.149 -99.140 -43.951  0.00  0.00    -0.304 N 
ATOM      2  C   UNL d   1     -59.081 -99.032 -43.131  0.00  0.00     0.064 A 
ATOM      3  C   UNL d   1     -58.392 -99.064 -44.279  0.00  0.00     0.064 A 
ATOM      4  C   UNL d   1     -57.862 -98.911 -43.665  0.00  0.00     0.018 A 
ATOM      5  C   UNL d   1     -58.288 -98.892 -42.962  0.00  0.00     0.019 A 
ATOM      6  C   UNL d   1     -58.124 -99.115 -45.057  0.00  0.00     0.018 A 
ATOM      7  C   UNL d   1     -57.056 -98.808 -43.831  0.00  0.00     0.003 A 
ATOM      8  C   UNL d   1     -56.789 -98.859 -44.608  0.00  0.00     0.020 A 
ATOM      9  C   UNL d   1     -57.324 -99.013 -45.222  0.00  0.00     0.003 A 
ATOM     10  C   UNL d   1     -59.839 -99.293 -44.363  0.00  0.00     0.099 C 
ATOM     11  C   UNL d   1     -59.704 -99.063 -42.591  0.00  0.00     0.019 C 
ENDROOT
BRANCH   8  12
ATOM     12  C   UNL d   1     -55.983 -98.756 -44.767  0.00  0.00     0.112 C 
BRANCH  12  13
ATOM     13  N   UNL d   1     -55.512 -99.416 -44.944  0.00  0.00    -0.157 NA
BRANCH  13  14
ATOM     14  S   UNL d   1     -55.131 -99.825 -44.339  0.00  0.00     0.285 S 
ATOM     15  O   UNL d   1     -54.714-100.031 -43.658  0.00  0.00    -0.198 OA
ATOM     16  O   UNL d   1     -55.050 -99.023 -44.139  0.00  0.00    -0.198 OA
BRANCH  14  17
ATOM     17  C   UNL d   1     -55.099-100.650 -44.351  0.00  0.00     0.105 A 
ATOM     18  C   UNL d   1     -55.165-101.042 -45.064  0.00  0.00     0.013 A 
ATOM     19  C   UNL d   1     -55.133-101.868 -45.078  0.00  0.00     0.001 A 
ATOM     20  C   UNL d   1     -55.036-102.290 -44.372  0.00  0.00     0.000 A 
ATOM     21  C   UNL d   1     -54.970-101.883 -43.658  0.00  0.00     0.001 A 
ATOM     22  C   UNL d   1     -55.002-101.065 -43.645  0.00  0.00     0.013 A 
ENDBRANCH  14  17
ENDBRANCH  13  14
ENDBRANCH  12  13
ENDBRANCH   8  12
TORSDOF 4
ENDMDL
