MODEL 1
REMARK VINA RESULT:      58.9      0.000      0.000
REMARK  3 active torsions:
REMARK  status: ('A' for Active; 'I' for Inactive)
REMARK    1  A    between atoms: C_2  and  C_1 
REMARK    2  A    between atoms: N_3  and  C_1 
REMARK    3  A    between atoms: C_13  and  N_3 
ROOT
ATOM      1  C   UNL d   1      57.174  39.558  54.997  0.00  0.00     0.030 A 
ATOM      2  C   UNL d   1      58.416  39.755  55.690  0.00  0.00     0.119 A 
ATOM      3  C   UNL d   1      57.710  40.059  55.393  0.00  0.00     0.029 A 
ATOM      4  C   UNL d   1      58.585  38.951  55.591  0.00  0.00     0.119 A 
ATOM      5  O   UNL d   1      59.065  40.119  56.113  0.00  0.00    -0.300 OA
ATOM      6  O   UNL d   1      59.348  38.820  55.959  0.00  0.00    -0.300 OA
ATOM      7  C   UNL d   1      59.599  39.521  56.252  0.00  0.00     0.304 A 
ATOM      8  C   UNL d   1      57.349  38.759  54.903  0.00  0.00     0.004 A 
ATOM      9  C   UNL d   1      58.054  38.456  55.200  0.00  0.00     0.026 A 
ENDROOT
BRANCH   1  10
ATOM     10  C   UNL d   1      56.469  39.862  54.701  0.00  0.00     0.136 C 
ATOM     11  S   UNL d   1      56.052  40.432  55.129  0.00  0.00    -0.057 SA
BRANCH  10  12
ATOM     12  N   UNL d   1      56.179  39.592  53.966  0.00  0.00    -0.235 NA
BRANCH  12  13
ATOM     13  C   UNL d   1      56.132  40.112  53.325  0.00  0.00     0.082 A 
ATOM     14  C   UNL d   1      56.120  39.818  52.561  0.00  0.00     0.019 A 
ATOM     15  C   UNL d   1      56.073  40.339  51.920  0.00  0.00     0.002 A 
ATOM     16  C   UNL d   1      56.037  41.152  52.052  0.00  0.00     0.000 A 
ATOM     17  C   UNL d   1      56.049  41.445  52.826  0.00  0.00     0.002 A 
ATOM     18  C   UNL d   1      56.096  40.925  53.462  0.00  0.00     0.019 A 
ENDBRANCH  12  13
ENDBRANCH  10  12
ENDBRANCH   1  10
TORSDOF 3
ENDMDL
MODEL 2
REMARK VINA RESULT:      61.4      9.156     10.361
REMARK  3 active torsions:
REMARK  status: ('A' for Active; 'I' for Inactive)
REMARK    1  A    between atoms: C_2  and  C_1 
REMARK    2  A    between atoms: N_3  and  C_1 
REMARK    3  A    between atoms: C_13  and  N_3 
ROOT
ATOM      1  C   UNL d   1      60.638  48.891  50.725  0.00  0.00     0.030 A 
ATOM      2  C   UNL d   1      59.255  49.277  50.732  0.00  0.00     0.119 A 
ATOM      3  C   UNL d   1      59.916  49.003  50.324  0.00  0.00     0.029 A 
ATOM      4  C   UNL d   1      59.316  49.438  51.541  0.00  0.00     0.119 A 
ATOM      5  O   UNL d   1      58.454  49.444  50.481  0.00  0.00    -0.300 OA
ATOM      6  O   UNL d   1      58.541  49.708  51.790  0.00  0.00    -0.300 OA
ATOM      7  C   UNL d   1      58.064  49.699  51.148  0.00  0.00     0.304 A 
ATOM      8  C   UNL d   1      60.691  49.054  51.530  0.00  0.00     0.004 A 
ATOM      9  C   UNL d   1      60.030  49.327  51.938  0.00  0.00     0.026 A 
ENDROOT
BRANCH   1  10
ATOM     10  C   UNL d   1      61.298  48.618  50.317  0.00  0.00     0.136 C 
ATOM     11  S   UNL d   1      61.521  48.973  49.605  0.00  0.00    -0.057 SA
BRANCH  10  12
ATOM     12  N   UNL d   1      61.740  47.981  50.626  0.00  0.00    -0.235 NA
BRANCH  12  13
ATOM     13  C   UNL d   1      61.700  47.238  50.265  0.00  0.00     0.082 A 
ATOM     14  C   UNL d   1      62.219  47.048  49.661  0.00  0.00     0.019 A 
ATOM     15  C   UNL d   1      62.179  46.305  49.301  0.00  0.00     0.002 A 
ATOM     16  C   UNL d   1      61.615  45.757  49.551  0.00  0.00     0.000 A 
ATOM     17  C   UNL d   1      61.091  45.952  50.161  0.00  0.00     0.002 A 
ATOM     18  C   UNL d   1      61.134  46.693  50.518  0.00  0.00     0.019 A 
ENDBRANCH  12  13
ENDBRANCH  10  12
ENDBRANCH   1  10
TORSDOF 3
ENDMDL
