MODEL 1
REMARK VINA RESULT:      -7.1      0.000      0.000
REMARK  1 active torsions:
REMARK  status: ('A' for Active; 'I' for Inactive)
REMARK    1  A    between atoms: C_5  and  C_1 
ROOT
ATOM      1  C   UNL d   1     -47.934  13.218  22.547  0.00  0.00     0.005 A 
ATOM      2  C   UNL d   1     -48.447  13.731  22.939  0.00  0.00     0.001 A 
ATOM      3  C   UNL d   1     -48.129  12.923  21.804  0.00  0.00     0.001 A 
ATOM      4  C   UNL d   1     -49.355  13.654  21.839  0.00  0.00     0.058 A 
ATOM      5  C   UNL d   1     -48.842  13.141  21.447  0.00  0.00     0.011 A 
ATOM      6  C   UNL d   1     -49.156  13.950  22.588  0.00  0.00     0.011 A 
ATOM      7 CL   UNL d   1     -50.074  13.877  21.483  0.00  0.00    -0.082 Cl
ENDROOT
BRANCH   1   8
ATOM      8  C   UNL d   1     -47.223  13.000  22.901  0.00  0.00     0.060 A 
ATOM      9  C   UNL d   1     -46.492  13.322  22.950  0.00  0.00     0.206 A 
ATOM     10  N   UNL d   1     -45.913  12.954  23.349  0.00  0.00    -0.127 NA
ATOM     11  N   UNL d   1     -46.339  14.048  22.581  0.00  0.00    -0.125 N 
ATOM     12  N   UNL d   1     -46.071  12.262  23.698  0.00  0.00    -0.145 NA
ATOM     13  C   UNL d   1     -46.798  11.938  23.651  0.00  0.00     0.125 A 
ENDBRANCH   1   8
TORSDOF 1
ENDMDL
MODEL 2
REMARK VINA RESULT:      -6.5      2.317      2.842
REMARK  1 active torsions:
REMARK  status: ('A' for Active; 'I' for Inactive)
REMARK    1  A    between atoms: C_5  and  C_1 
ROOT
ATOM      1  C   UNL d   1     -47.882  12.928  22.834  0.00  0.00     0.005 A 
ATOM      2  C   UNL d   1     -47.121  12.611  22.796  0.00  0.00     0.001 A 
ATOM      3  C   UNL d   1     -47.990  13.740  22.906  0.00  0.00     0.001 A 
ATOM      4  C   UNL d   1     -46.574  13.926  22.904  0.00  0.00     0.058 A 
ATOM      5  C   UNL d   1     -47.335  14.243  22.941  0.00  0.00     0.011 A 
ATOM      6  C   UNL d   1     -46.468  13.106  22.831  0.00  0.00     0.011 A 
ATOM      7 CL   UNL d   1     -45.911  14.428  22.939  0.00  0.00    -0.082 Cl
ENDROOT
BRANCH   1   8
ATOM      8  C   UNL d   1     -48.536  12.428  22.798  0.00  0.00     0.060 A 
ATOM      9  C   UNL d   1     -49.039  12.193  22.221  0.00  0.00     0.206 A 
ATOM     10  N   UNL d   1     -49.630  11.689  22.381  0.00  0.00    -0.127 NA
ATOM     11  N   UNL d   1     -48.940  12.479  21.450  0.00  0.00    -0.125 N 
ATOM     12  N   UNL d   1     -49.715  11.423  23.121  0.00  0.00    -0.145 NA
ATOM     13  C   UNL d   1     -49.217  11.655  23.698  0.00  0.00     0.125 A 
ENDBRANCH   1   8
TORSDOF 1
ENDMDL
MODEL 3
REMARK VINA RESULT:      -6.5      2.452      3.346
REMARK  1 active torsions:
REMARK  status: ('A' for Active; 'I' for Inactive)
REMARK    1  A    between atoms: C_5  and  C_1 
ROOT
ATOM      1  C   UNL d   1     -48.352  14.195  22.832  0.00  0.00     0.005 A 
ATOM      2  C   UNL d   1     -47.630  14.571  22.694  0.00  0.00     0.001 A 
ATOM      3  C   UNL d   1     -48.371  13.409  23.072  0.00  0.00     0.001 A 
ATOM      4  C   UNL d   1     -46.945  13.367  23.039  0.00  0.00     0.058 A 
ATOM      5  C   UNL d   1     -47.666  12.991  23.177  0.00  0.00     0.011 A 
ATOM      6  C   UNL d   1     -46.928  14.160  22.796  0.00  0.00     0.011 A 
ATOM      7 CL   UNL d   1     -46.231  12.950  23.143  0.00  0.00    -0.082 Cl
ENDROOT
BRANCH   1   8
ATOM      8  C   UNL d   1     -49.056  14.610  22.728  0.00  0.00     0.060 A 
ATOM      9  C   UNL d   1     -49.633  14.618  22.173  0.00  0.00     0.206 A 
ATOM     10  N   UNL d   1     -50.257  15.102  22.244  0.00  0.00    -0.127 NA
ATOM     11  N   UNL d   1     -49.576  14.116  21.516  0.00  0.00    -0.125 N 
ATOM     12  N   UNL d   1     -50.301  15.577  22.876  0.00  0.00    -0.145 NA
ATOM     13  C   UNL d   1     -49.729  15.572  23.431  0.00  0.00     0.125 A 
ENDBRANCH   1   8
TORSDOF 1
ENDMDL
MODEL 4
REMARK VINA RESULT:      -6.4      1.848      2.175
REMARK  1 active torsions:
REMARK  status: ('A' for Active; 'I' for Inactive)
REMARK    1  A    between atoms: C_5  and  C_1 
ROOT
ATOM      1  C   UNL d   1     -48.854  13.256  22.939  0.00  0.00     0.005 A 
ATOM      2  C   UNL d   1     -48.375  13.818  22.571  0.00  0.00     0.001 A 
ATOM      3  C   UNL d   1     -49.551  13.485  23.310  0.00  0.00     0.001 A 
ATOM      4  C   UNL d   1     -49.297  14.842  22.948  0.00  0.00     0.058 A 
ATOM      5  C   UNL d   1     -49.776  14.280  23.316  0.00  0.00     0.011 A 
ATOM      6  C   UNL d   1     -48.593  14.609  22.574  0.00  0.00     0.011 A 
ATOM      7 CL   UNL d   1     -49.518  15.645  22.951  0.00  0.00    -0.082 Cl
ENDROOT
BRANCH   1   8
ATOM      8  C   UNL d   1     -48.632  12.463  22.934  0.00  0.00     0.060 A 
ATOM      9  C   UNL d   1     -48.808  11.828  22.479  0.00  0.00     0.206 A 
ATOM     10  N   UNL d   1     -48.486  11.119  22.632  0.00  0.00    -0.127 NA
ATOM     11  N   UNL d   1     -49.331  11.913  21.842  0.00  0.00    -0.125 N 
ATOM     12  N   UNL d   1     -47.988  11.050  23.243  0.00  0.00    -0.145 NA
ATOM     13  C   UNL d   1     -47.811  11.680  23.698  0.00  0.00     0.125 A 
ENDBRANCH   1   8
TORSDOF 1
ENDMDL
