MODEL 1
REMARK VINA RESULT:      -1.4      0.000      0.000
REMARK  5 active torsions:
REMARK  status: ('A' for Active; 'I' for Inactive)
REMARK    1  A    between atoms: N_2  and  S_1 
REMARK    2  A    between atoms: C_6  and  S_1 
REMARK       I    between atoms: C_3  and  N_4 
REMARK    3  A    between atoms: C_5  and  C_3 
REMARK    4  A    between atoms: O_22  and  C_12 
REMARK    5  A    between atoms: O_26  and  C_16 
ROOT
ATOM      1  N   UNL d   1      30.123  16.217 -24.201  0.00  0.00    -0.226 N 
ATOM      2  C   UNL d   1      32.106  17.223 -23.103  0.00  0.00     0.265 C 
ATOM      3  N   UNL d   1      31.447  16.887 -23.467  0.00  0.00    -0.269 N 
ATOM      4  C   UNL d   1      30.508  15.837 -23.587  0.00  0.00     0.111 A 
ATOM      5  C   UNL d   1      30.412  16.954 -24.453  0.00  0.00     0.111 A 
ATOM      6  C   UNL d   1      31.069  17.273 -24.078  0.00  0.00     0.103 A 
ATOM      7  C   UNL d   1      31.158  16.149 -23.215  0.00  0.00     0.103 A 
ATOM      8  O   UNL d   1      32.473  16.820 -22.490  0.00  0.00    -0.267 OA
ENDROOT
BRANCH   2   9
ATOM      9  C   UNL d   1      32.386  17.940 -23.348  0.00  0.00     0.059 A 
ATOM     10  C   UNL d   1      32.608  18.510 -22.797  0.00  0.00     0.031 A 
ATOM     11  C   UNL d   1      32.886  19.222 -23.040  0.00  0.00     0.116 A 
ATOM     12  C   UNL d   1      32.952  19.390 -23.844  0.00  0.00     0.116 A 
ATOM     13  C   UNL d   1      32.730  18.820 -24.396  0.00  0.00     0.026 A 
ATOM     14  C   UNL d   1      32.452  18.108 -24.153  0.00  0.00     0.007 A 
BRANCH  11  15
ATOM     15  O   UNL d   1      33.104  19.780 -22.451  0.00  0.00    -0.326 OA
ATOM     16  C   UNL d   1      32.550  20.357 -22.195  0.00  0.00     0.181 C 
ENDBRANCH  11  15
BRANCH  12  17
ATOM     17  O   UNL d   1      33.240  20.125 -24.100  0.00  0.00    -0.326 OA
ATOM     18  C   UNL d   1      33.228  20.175 -24.917  0.00  0.00     0.181 C 
ENDBRANCH  12  17
ENDBRANCH   2   9
BRANCH   1  19
ATOM     19  S   UNL d   1      29.467  15.883 -24.564  0.00  0.00     0.271 S 
ATOM     20  O   UNL d   1      29.956  15.453 -25.082  0.00  0.00    -0.200 OA
ATOM     21  O   UNL d   1      28.793  15.551 -24.923  0.00  0.00    -0.200 OA
BRANCH  19  22
ATOM     22  C   UNL d   1      28.971  16.303 -24.055  0.00  0.00     0.104 A 
ATOM     23  C   UNL d   1      28.721  17.071 -24.240  0.00  0.00     0.014 A 
ATOM     24  C   UNL d   1      28.231  17.500 -23.748  0.00  0.00     0.012 A 
ATOM     25  C   UNL d   1      27.974  17.158 -23.039  0.00  0.00     0.058 A 
ATOM     26  C   UNL d   1      28.211  16.395 -22.835  0.00  0.00     0.012 A 
ATOM     27 CL   UNL d   1      27.478  17.579 -22.530  0.00  0.00    -0.082 Cl
ATOM     28  C   UNL d   1      28.714  15.962 -23.346  0.00  0.00     0.014 A 
ENDBRANCH  19  22
ENDBRANCH   1  19
TORSDOF 5
ENDMDL
MODEL 2
REMARK VINA RESULT:       0.2      1.957      4.563
REMARK  5 active torsions:
REMARK  status: ('A' for Active; 'I' for Inactive)
REMARK    1  A    between atoms: N_2  and  S_1 
REMARK    2  A    between atoms: C_6  and  S_1 
REMARK       I    between atoms: C_3  and  N_4 
REMARK    3  A    between atoms: C_5  and  C_3 
REMARK    4  A    between atoms: O_22  and  C_12 
REMARK    5  A    between atoms: O_26  and  C_16 
ROOT
ATOM      1  N   UNL d   1      32.705  18.460 -24.205  0.00  0.00    -0.226 N 
ATOM      2  C   UNL d   1      31.907  16.113 -24.146  0.00  0.00     0.265 C 
ATOM      3  N   UNL d   1      32.174  16.894 -24.165  0.00  0.00    -0.269 N 
ATOM      4  C   UNL d   1      33.229  17.834 -24.165  0.00  0.00     0.111 A 
ATOM      5  C   UNL d   1      31.891  18.295 -24.226  0.00  0.00     0.111 A 
ATOM      6  C   UNL d   1      31.644  17.512 -24.205  0.00  0.00     0.103 A 
ATOM      7  C   UNL d   1      32.988  17.059 -24.145  0.00  0.00     0.103 A 
ATOM      8  O   UNL d   1      32.455  15.504 -24.106  0.00  0.00    -0.267 OA
ENDROOT
BRANCH   2   9
ATOM      9  C   UNL d   1      31.116  15.953 -24.166  0.00  0.00     0.059 A 
ATOM     10  C   UNL d   1      30.707  15.787 -23.470  0.00  0.00     0.031 A 
ATOM     11  C   UNL d   1      29.921  15.627 -23.490  0.00  0.00     0.116 A 
ATOM     12  C   UNL d   1      29.515  15.627 -24.206  0.00  0.00     0.116 A 
ATOM     13  C   UNL d   1      29.923  15.793 -24.903  0.00  0.00     0.026 A 
ATOM     14  C   UNL d   1      30.709  15.953 -24.883  0.00  0.00     0.007 A 
BRANCH  11  15
ATOM     15  O   UNL d   1      29.536  15.462 -22.762  0.00  0.00    -0.326 OA
ATOM     16  C   UNL d   1      29.975  15.469 -22.045  0.00  0.00     0.181 C 
ENDBRANCH  11  15
BRANCH  12  17
ATOM     17  O   UNL d   1      28.702  15.463 -24.232  0.00  0.00    -0.326 OA
ATOM     18  C   UNL d   1      28.386  15.660 -24.961  0.00  0.00     0.181 C 
ENDBRANCH  12  17
ENDBRANCH   2   9
BRANCH   1  19
ATOM     19  S   UNL d   1      32.970  19.237 -24.224  0.00  0.00     0.271 S 
ATOM     20  O   UNL d   1      32.935  19.242 -25.056  0.00  0.00    -0.200 OA
ATOM     21  O   UNL d   1      33.240  20.025 -24.230  0.00  0.00    -0.200 OA
BRANCH  19  22
ATOM     22  C   UNL d   1      33.009  19.245 -23.400  0.00  0.00     0.104 A 
ATOM     23  C   UNL d   1      33.176  18.555 -22.973  0.00  0.00     0.014 A 
ATOM     24  C   UNL d   1      33.218  18.547 -22.158  0.00  0.00     0.012 A 
ATOM     25  C   UNL d   1      33.089  19.250 -21.741  0.00  0.00     0.058 A 
ATOM     26  C   UNL d   1      32.921  19.949 -22.146  0.00  0.00     0.012 A 
ATOM     27 CL   UNL d   1      33.128  19.258 -20.916  0.00  0.00    -0.082 Cl
ATOM     28  C   UNL d   1      32.881  19.948 -22.983  0.00  0.00     0.014 A 
ENDBRANCH  19  22
ENDBRANCH   1  19
TORSDOF 5
ENDMDL
