MODEL 1
REMARK VINA RESULT:      53.1      0.000      0.000
REMARK  7 active torsions:
REMARK  status: ('A' for Active; 'I' for Inactive)
REMARK    1  A    between atoms: C_11  and  C_1 
REMARK    2  A    between atoms: C_15  and  N_3 
REMARK    3  A    between atoms: C_7  and  S_12 
REMARK    4  A    between atoms: C_13  and  C_11 
REMARK    5  A    between atoms: S_12  and  C_13 
REMARK    6  A    between atoms: C_20  and  C_15 
REMARK    7  A    between atoms: O_19  and  C_20 
ROOT
ATOM      1  C   UNL d   1     -57.070 -99.068 -45.277  0.00  0.00     0.057 A 
ATOM      2  C   UNL d   1     -57.832 -99.003 -44.993  0.00  0.00     0.067 A 
ATOM      3  N   UNL d   1     -58.312 -98.888 -45.647  0.00  0.00    -0.303 N 
ATOM      4  C   UNL d   1     -57.088 -98.995 -46.083  0.00  0.00     0.022 A 
ATOM      5  C   UNL d   1     -57.849 -98.885 -46.300  0.00  0.00     0.064 A 
ATOM      6  C   UNL d   1     -58.068 -99.045 -44.204  0.00  0.00     0.019 C 
ATOM      7  C   UNL d   1     -58.119 -98.783 -47.094  0.00  0.00     0.019 C 
ENDROOT
BRANCH   1   8
ATOM      8  C   UNL d   1     -56.392 -99.190 -44.806  0.00  0.00     0.203 C 
ATOM      9  O   UNL d   1     -55.702 -98.779 -44.982  0.00  0.00    -0.286 OA
BRANCH   8  10
ATOM     10  C   UNL d   1     -56.411 -99.715 -44.173  0.00  0.00     0.079 C 
BRANCH  10  11
ATOM     11  S   UNL d   1     -55.773-100.220 -44.029  0.00  0.00    -0.056 SA
BRANCH  11  12
ATOM     12  C   UNL d   1     -55.438-100.943 -43.788  0.00  0.00     0.164 A 
ATOM     13  S   UNL d   1     -55.292-101.153 -42.999  0.00  0.00    -0.039 SA
ATOM     14  C   UNL d   1     -54.954-101.921 -43.003  0.00  0.00     0.134 A 
ATOM     15  C   UNL d   1     -54.718-102.354 -42.330  0.00  0.00     0.030 C 
ATOM     16  N   UNL d   1     -54.896-102.175 -43.797  0.00  0.00    -0.140 NA
ATOM     17  N   UNL d   1     -55.199-101.560 -44.278  0.00  0.00    -0.134 NA
ENDBRANCH  11  12
ENDBRANCH  10  11
ENDBRANCH   8  10
ENDBRANCH   1   8
BRANCH   3  18
ATOM     18  C   UNL d   1     -59.147 -98.788 -45.662  0.00  0.00     0.107 C 
BRANCH  18  19
ATOM     19  C   UNL d   1     -59.626 -99.428 -45.900  0.00  0.00     0.135 C 
BRANCH  19  20
ATOM     20  O   UNL d   1     -59.834 -99.530 -46.675  0.00  0.00    -0.325 OA
ATOM     21  C   UNL d   1     -59.917 -98.980 -47.079  0.00  0.00     0.182 C 
ENDBRANCH  19  20
ENDBRANCH  18  19
ENDBRANCH   3  18
TORSDOF 7
ENDMDL
