MODEL 1
REMARK VINA RESULT:      -1.1      0.000      0.000
REMARK  4 active torsions:
REMARK  status: ('A' for Active; 'I' for Inactive)
REMARK    1  A    between atoms: C_2  and  C_1 
REMARK    2  A    between atoms: N_4  and  C_1 
REMARK    3  A    between atoms: O_13  and  C_5 
REMARK    4  A    between atoms: O_12  and  C_6 
ROOT
ATOM      1  C   UNL d   1     -41.665-122.782 -51.180  0.00  0.00     0.031 A 
ATOM      2  C   UNL d   1     -41.616-122.016 -52.640  0.00  0.00     0.138 A 
ATOM      3  C   UNL d   1     -41.387-121.611 -51.955  0.00  0.00     0.118 A 
ATOM      4  C   UNL d   1     -41.870-122.805 -52.596  0.00  0.00     0.118 A 
ATOM      5  C   UNL d   1     -41.414-121.998 -51.232  0.00  0.00     0.029 A 
ATOM      6  C   UNL d   1     -41.893-123.186 -51.865  0.00  0.00     0.029 A 
ATOM      7  O   UNL d   1     -41.595-121.640 -53.378  0.00  0.00    -0.324 OA
ATOM      8  C   UNL d   1     -41.555-121.222 -54.080  0.00  0.00     0.182 C 
ENDROOT
BRANCH   4   9
ATOM      9  O   UNL d   1     -42.099-123.211 -53.279  0.00  0.00    -0.326 OA
ATOM     10  C   UNL d   1     -41.630-123.815 -53.574  0.00  0.00     0.181 C 
ENDBRANCH   4   9
BRANCH   3  11
ATOM     11  O   UNL d   1     -41.132-120.815 -52.008  0.00  0.00    -0.326 OA
ATOM     12  C   UNL d   1     -41.253-120.305 -51.358  0.00  0.00     0.181 C 
ENDBRANCH   3  11
BRANCH   1  13
ATOM     13  C   UNL d   1     -41.690-123.164 -50.457  0.00  0.00     0.120 C 
ATOM     14  S   UNL d   1     -41.149-123.777 -50.299  0.00  0.00    -0.059 SA
BRANCH  13  15
ATOM     15  N   UNL d   1     -42.252-122.940 -49.888  0.00  0.00    -0.292 N 
ATOM     16  C   UNL d   1     -43.038-123.006 -50.082  0.00  0.00     0.108 A 
ATOM     17  C   UNL d   1     -43.621-122.788 -49.529  0.00  0.00     0.142 A 
ATOM     18  O   UNL d   1     -43.401-122.505 -48.790  0.00  0.00    -0.300 OA
ATOM     19  C   UNL d   1     -42.601-122.440 -48.600  0.00  0.00     0.142 A 
ATOM     20  C   UNL d   1     -42.030-122.656 -49.145  0.00  0.00     0.108 A 
ENDBRANCH  13  15
ENDBRANCH   1  13
TORSDOF 4
ENDMDL
MODEL 2
REMARK VINA RESULT:       0.5      1.321      3.822
REMARK  4 active torsions:
REMARK  status: ('A' for Active; 'I' for Inactive)
REMARK    1  A    between atoms: C_2  and  C_1 
REMARK    2  A    between atoms: N_4  and  C_1 
REMARK    3  A    between atoms: O_13  and  C_5 
REMARK    4  A    between atoms: O_12  and  C_6 
ROOT
ATOM      1  C   UNL d   1     -41.827-122.355 -50.668  0.00  0.00     0.031 A 
ATOM      2  C   UNL d   1     -42.582-123.084 -49.396  0.00  0.00     0.138 A 
ATOM      3  C   UNL d   1     -43.033-122.734 -49.996  0.00  0.00     0.118 A 
ATOM      4  C   UNL d   1     -41.753-123.070 -49.431  0.00  0.00     0.118 A 
ATOM      5  C   UNL d   1     -42.650-122.373 -50.626  0.00  0.00     0.029 A 
ATOM      6  C   UNL d   1     -41.378-122.705 -50.068  0.00  0.00     0.029 A 
ATOM      7  O   UNL d   1     -42.952-123.453 -48.752  0.00  0.00    -0.324 OA
ATOM      8  C   UNL d   1     -43.368-123.802 -48.141  0.00  0.00     0.182 C 
ENDROOT
BRANCH   4   9
ATOM      9  O   UNL d   1     -41.302-123.419 -48.832  0.00  0.00    -0.326 OA
ATOM     10  C   UNL d   1     -41.122-122.996 -48.154  0.00  0.00     0.181 C 
ENDBRANCH   4   9
BRANCH   3  11
ATOM     11  O   UNL d   1     -43.869-122.752 -49.954  0.00  0.00    -0.326 OA
ATOM     12  C   UNL d   1     -44.316-122.487 -50.607  0.00  0.00     0.181 C 
ENDBRANCH   3  11
BRANCH   1  13
ATOM     13  C   UNL d   1     -41.450-121.995 -51.298  0.00  0.00     0.120 C 
ATOM     14  S   UNL d   1     -41.123-121.235 -51.200  0.00  0.00    -0.059 SA
BRANCH  13  15
ATOM     15  N   UNL d   1     -41.396-122.385 -52.030  0.00  0.00    -0.292 N 
ATOM     16  C   UNL d   1     -41.576-121.965 -52.700  0.00  0.00     0.108 A 
ATOM     17  C   UNL d   1     -41.530-122.333 -53.445  0.00  0.00     0.142 A 
ATOM     18  O   UNL d   1     -41.304-123.120 -53.501  0.00  0.00    -0.300 OA
ATOM     19  C   UNL d   1     -41.123-123.542 -52.816  0.00  0.00     0.142 A 
ATOM     20  C   UNL d   1     -41.169-123.177 -52.084  0.00  0.00     0.108 A 
ENDBRANCH  13  15
ENDBRANCH   1  13
TORSDOF 4
ENDMDL
