MODEL 1
REMARK VINA RESULT:       0.6      0.000      0.000
REMARK  1 active torsions:
REMARK  status: ('A' for Active; 'I' for Inactive)
REMARK    1  A    between atoms: C_6  and  CA_1 
ROOT
ATOM      1  CA  UNL d   1      23.269  13.113  -0.825  0.00  0.00     0.147 A 
ATOM      2  N   UNL d   1      23.859  12.584  -0.615  0.00  0.00    -0.237 NA
ATOM      3  C   UNL d   1      23.234  13.152  -1.649  0.00  0.00     0.052 A 
ATOM      4  C   UNL d   1      24.193  12.292  -1.310  0.00  0.00     0.106 A 
ATOM      5  C   UNL d   1      23.808  12.642  -1.948  0.00  0.00     0.119 A 
ATOM      6  C   UNL d   1      24.768  11.781  -1.609  0.00  0.00     0.048 A 
ATOM      7  O   UNL d   1      24.143  12.349  -2.643  0.00  0.00    -0.303 OA
ATOM      8  C   UNL d   1      24.738  11.815  -2.436  0.00  0.00     0.124 A 
ENDROOT
BRANCH   1   9
ATOM      9  C   UNL d   1      22.789  13.536  -0.299  0.00  0.00     0.230 C 
ATOM     10  O   UNL d   1      23.033  14.268  -0.016  0.00  0.00    -0.643 OA
ATOM     11  OXT UNL d   1      22.067  13.224  -0.059  0.00  0.00    -0.643 OA
ENDBRANCH   1   9
TORSDOF 1
ENDMDL
MODEL 2
REMARK VINA RESULT:       1.2      1.326      2.670
REMARK  1 active torsions:
REMARK  status: ('A' for Active; 'I' for Inactive)
REMARK    1  A    between atoms: C_6  and  CA_1 
ROOT
ATOM      1  CA  UNL d   1      24.500  12.491  -2.493  0.00  0.00     0.147 A 
ATOM      2  N   UNL d   1      24.261  11.839  -2.056  0.00  0.00    -0.237 NA
ATOM      3  C   UNL d   1      24.533  13.145  -1.990  0.00  0.00     0.052 A 
ATOM      4  C   UNL d   1      24.145  12.088  -1.278  0.00  0.00     0.106 A 
ATOM      5  C   UNL d   1      24.313  12.893  -1.237  0.00  0.00     0.119 A 
ATOM      6  C   UNL d   1      23.924  11.835  -0.524  0.00  0.00     0.048 A 
ATOM      7  O   UNL d   1      24.196  13.141  -0.458  0.00  0.00    -0.303 OA
ATOM      8  C   UNL d   1      23.955  12.487  -0.014  0.00  0.00     0.124 A 
ENDROOT
BRANCH   1   9
ATOM      9  C   UNL d   1      24.678  12.492  -3.302  0.00  0.00     0.230 C 
ATOM     10  O   UNL d   1      24.768  13.203  -3.703  0.00  0.00    -0.643 OA
ATOM     11  OXT UNL d   1      24.764  11.780  -3.704  0.00  0.00    -0.643 OA
ENDBRANCH   1   9
TORSDOF 1
ENDMDL
