MODEL 1
REMARK VINA RESULT:      34.3      0.000      0.000
REMARK  1 active torsions:
REMARK  status: ('A' for Active; 'I' for Inactive)
REMARK    1  A    between atoms: C_11  and  C_9 
ROOT
ATOM      1  N   UNL d   1      13.455  13.034  -3.778  0.00  0.00    -0.253 N 
ATOM      2  C   UNL d   1      13.586  12.255  -3.554  0.00  0.00     0.182 A 
ATOM      3  C   UNL d   1      13.580  13.645  -3.209  0.00  0.00     0.267 A 
ATOM      4  N   UNL d   1      13.431  11.780  -4.187  0.00  0.00    -0.221 NA
ATOM      5  S   UNL d   1      13.832  12.058  -2.799  0.00  0.00    -0.050 SA
ATOM      6  C   UNL d   1      13.824  13.470  -2.452  0.00  0.00     0.068 A 
ATOM      7  C   UNL d   1      13.220  13.028  -4.552  0.00  0.00     0.086 A 
ATOM      8  C   UNL d   1      13.197  12.257  -4.831  0.00  0.00     0.100 A 
ATOM      9  C   UNL d   1      13.954  12.650  -2.242  0.00  0.00     0.037 A 
ATOM     10  O   UNL d   1      13.450  14.463  -3.417  0.00  0.00    -0.267 OA
ATOM     11  C   UNL d   1      13.010  13.663  -5.074  0.00  0.00     0.019 A 
ATOM     12  C   UNL d   1      12.977  12.090  -5.594  0.00  0.00     0.021 A 
ATOM     13  C   UNL d   1      12.790  13.482  -5.841  0.00  0.00     0.002 A 
ATOM     14  C   UNL d   1      12.771  12.722  -6.105  0.00  0.00     0.002 A 
ENDROOT
BRANCH   9  15
ATOM     15  C   UNL d   1      14.206  12.358  -1.495  0.00  0.00     0.006 A 
ATOM     16  C   UNL d   1      13.654  12.074  -0.952  0.00  0.00     0.001 A 
ATOM     17  C   UNL d   1      13.901  11.781  -0.204  0.00  0.00     0.000 A 
ATOM     18  C   UNL d   1      14.699  11.780  -0.017  0.00  0.00     0.000 A 
ATOM     19  C   UNL d   1      15.268  12.069  -0.565  0.00  0.00     0.000 A 
ATOM     20  C   UNL d   1      15.024  12.356  -1.299  0.00  0.00     0.001 A 
ENDBRANCH   9  15
TORSDOF 1
ENDMDL
