MODEL 1
REMARK VINA RESULT:      -7.7      0.000      0.000
REMARK  4 active torsions:
REMARK  status: ('A' for Active; 'I' for Inactive)
REMARK    1  A    between atoms: C_2  and  C_1 
REMARK    2  A    between atoms: C_6  and  C_2 
REMARK    3  A    between atoms: C_9  and  C_6 
REMARK    4  A    between atoms: O_18  and  C_12 
ROOT
ATOM      1  C   UNL d   1     -47.272  13.569  22.975  0.00  0.00     0.199 C 
ATOM      2  O   UNL d   1     -46.978  14.213  23.323  0.00  0.00    -0.286 OA
ENDROOT
BRANCH   1   3
ATOM      3  C   UNL d   1     -46.798  12.814  23.140  0.00  0.00     0.078 A 
ATOM      4  C   UNL d   1     -46.025  12.791  22.853  0.00  0.00     0.202 A 
ATOM      5  C   UNL d   1     -45.546  12.067  23.001  0.00  0.00     0.084 A 
ATOM      6  O   UNL d   1     -45.709  13.428  22.440  0.00  0.00    -0.286 OA
ATOM      7  C   UNL d   1     -45.883  11.419  23.427  0.00  0.00     0.199 A 
ATOM      8  C   UNL d   1     -46.652  11.473  23.698  0.00  0.00     0.042 A 
ATOM      9  O   UNL d   1     -45.406  10.723  23.563  0.00  0.00    -0.286 OA
ATOM     10  C   UNL d   1     -47.127  12.181  23.555  0.00  0.00     0.010 A 
ENDBRANCH   1   3
BRANCH   1  11
ATOM     11  C   UNL d   1     -47.861  13.541  22.557  0.00  0.00     0.042 C 
BRANCH  11  12
ATOM     12  C   UNL d   1     -48.429  14.104  22.642  0.00  0.00     0.003 A 
ATOM     13  C   UNL d   1     -49.143  13.915  22.952  0.00  0.00     0.002 A 
ATOM     14  C   UNL d   1     -49.741  14.504  23.043  0.00  0.00     0.024 A 
ATOM     15  C   UNL d   1     -49.611  15.282  22.817  0.00  0.00     0.094 A 
ATOM     16  C   UNL d   1     -48.890  15.478  22.502  0.00  0.00     0.024 A 
ATOM     17  C   UNL d   1     -48.298  14.917  22.408  0.00  0.00     0.002 A 
BRANCH  15  18
ATOM     18  O   UNL d   1     -50.214  15.880  22.907  0.00  0.00    -0.328 OA
ATOM     19  C   UNL d   1     -50.681  15.906  23.582  0.00  0.00     0.181 C 
ENDBRANCH  15  18
ENDBRANCH  11  12
ENDBRANCH   1  11
TORSDOF 4
ENDMDL
MODEL 2
REMARK VINA RESULT:      -7.6      1.141      4.465
REMARK  4 active torsions:
REMARK  status: ('A' for Active; 'I' for Inactive)
REMARK    1  A    between atoms: C_2  and  C_1 
REMARK    2  A    between atoms: C_6  and  C_2 
REMARK    3  A    between atoms: C_9  and  C_6 
REMARK    4  A    between atoms: O_18  and  C_12 
ROOT
ATOM      1  C   UNL d   1     -48.289  13.272  22.612  0.00  0.00     0.199 C 
ATOM      2  O   UNL d   1     -48.193  12.774  22.009  0.00  0.00    -0.286 OA
ENDROOT
BRANCH   1   3
ATOM      3  C   UNL d   1     -48.995  13.834  22.516  0.00  0.00     0.078 A 
ATOM      4  C   UNL d   1     -49.720  13.490  22.328  0.00  0.00     0.202 A 
ATOM      5  C   UNL d   1     -50.419  14.017  22.230  0.00  0.00     0.084 A 
ATOM      6  O   UNL d   1     -49.789  12.676  22.233  0.00  0.00    -0.286 OA
ATOM      7  C   UNL d   1     -50.334  14.852  22.330  0.00  0.00     0.199 A 
ATOM      8  C   UNL d   1     -49.602  15.162  22.517  0.00  0.00     0.042 A 
ATOM      9  O   UNL d   1     -51.022  15.350  22.232  0.00  0.00    -0.286 OA
ATOM     10  C   UNL d   1     -48.912  14.650  22.614  0.00  0.00     0.010 A 
ENDBRANCH   1   3
BRANCH   1  11
ATOM     11  C   UNL d   1     -47.877  13.309  23.205  0.00  0.00     0.042 C 
BRANCH  11  12
ATOM     12  C   UNL d   1     -47.229  12.836  23.261  0.00  0.00     0.003 A 
ATOM     13  C   UNL d   1     -47.275  12.129  23.637  0.00  0.00     0.002 A 
ATOM     14  C   UNL d   1     -46.596  11.631  23.698  0.00  0.00     0.024 A 
ATOM     15  C   UNL d   1     -45.874  11.853  23.378  0.00  0.00     0.094 A 
ATOM     16  C   UNL d   1     -45.823  12.567  22.997  0.00  0.00     0.024 A 
ATOM     17  C   UNL d   1     -46.473  13.063  22.929  0.00  0.00     0.002 A 
BRANCH  15  18
ATOM     18  O   UNL d   1     -45.186  11.351  23.438  0.00  0.00    -0.328 OA
ATOM     19  C   UNL d   1     -45.254  10.575  23.697  0.00  0.00     0.181 C 
ENDBRANCH  15  18
ENDBRANCH  11  12
ENDBRANCH   1  11
TORSDOF 4
ENDMDL
MODEL 3
REMARK VINA RESULT:      -7.0      1.906      4.028
REMARK  4 active torsions:
REMARK  status: ('A' for Active; 'I' for Inactive)
REMARK    1  A    between atoms: C_2  and  C_1 
REMARK    2  A    between atoms: C_6  and  C_2 
REMARK    3  A    between atoms: C_9  and  C_6 
REMARK    4  A    between atoms: O_18  and  C_12 
ROOT
ATOM      1  C   UNL d   1     -47.999  12.731  22.557  0.00  0.00     0.199 C 
ATOM      2  O   UNL d   1     -47.902  12.636  21.781  0.00  0.00    -0.286 OA
ENDROOT
BRANCH   1   3
ATOM      3  C   UNL d   1     -48.794  12.425  22.869  0.00  0.00     0.078 A 
ATOM      4  C   UNL d   1     -49.473  12.794  22.579  0.00  0.00     0.202 A 
ATOM      5  C   UNL d   1     -50.256  12.513  22.868  0.00  0.00     0.084 A 
ATOM      6  O   UNL d   1     -49.419  13.408  22.036  0.00  0.00    -0.286 OA
ATOM      7  C   UNL d   1     -50.297  11.881  23.427  0.00  0.00     0.199 A 
ATOM      8  C   UNL d   1     -49.606  11.536  23.695  0.00  0.00     0.042 A 
ATOM      9  O   UNL d   1     -51.064  11.620  23.698  0.00  0.00    -0.286 OA
ATOM     10  C   UNL d   1     -48.834  11.807  23.415  0.00  0.00     0.010 A 
ENDBRANCH   1   3
BRANCH   1  11
ATOM     11  C   UNL d   1     -47.524  13.029  23.014  0.00  0.00     0.042 C 
BRANCH  11  12
ATOM     12  C   UNL d   1     -46.757  13.105  22.786  0.00  0.00     0.003 A 
ATOM     13  C   UNL d   1     -46.491  13.799  22.484  0.00  0.00     0.002 A 
ATOM     14  C   UNL d   1     -45.686  13.881  22.244  0.00  0.00     0.024 A 
ATOM     15  C   UNL d   1     -45.155  13.260  22.312  0.00  0.00     0.094 A 
ATOM     16  C   UNL d   1     -45.419  12.557  22.617  0.00  0.00     0.024 A 
ATOM     17  C   UNL d   1     -46.199  12.460  22.855  0.00  0.00     0.002 A 
BRANCH  15  18
ATOM     18  O   UNL d   1     -44.340  13.341  22.070  0.00  0.00    -0.328 OA
ATOM     19  C   UNL d   1     -44.022  12.847  21.496  0.00  0.00     0.181 C 
ENDBRANCH  15  18
ENDBRANCH  11  12
ENDBRANCH   1  11
TORSDOF 4
ENDMDL
MODEL 4
REMARK VINA RESULT:      -6.0      1.740      2.195
REMARK  4 active torsions:
REMARK  status: ('A' for Active; 'I' for Inactive)
REMARK    1  A    between atoms: C_2  and  C_1 
REMARK    2  A    between atoms: C_6  and  C_2 
REMARK    3  A    between atoms: C_9  and  C_6 
REMARK    4  A    between atoms: O_18  and  C_12 
ROOT
ATOM      1  C   UNL d   1     -47.357  13.452  22.788  0.00  0.00     0.199 C 
ATOM      2  O   UNL d   1     -47.458  13.475  23.569  0.00  0.00    -0.286 OA
ENDROOT
BRANCH   1   3
ATOM      3  C   UNL d   1     -46.493  13.354  22.531  0.00  0.00     0.078 A 
ATOM      4  C   UNL d   1     -46.031  14.038  22.517  0.00  0.00     0.202 A 
ATOM      5  C   UNL d   1     -45.189  13.966  22.270  0.00  0.00     0.084 A 
ATOM      6  O   UNL d   1     -46.348  14.766  22.728  0.00  0.00    -0.286 OA
ATOM      7  C   UNL d   1     -44.875  13.211  22.056  0.00  0.00     0.199 A 
ATOM      8  C   UNL d   1     -45.359  12.553  22.080  0.00  0.00     0.042 A 
ATOM      9  O   UNL d   1     -44.056  13.158  21.818  0.00  0.00    -0.286 OA
ATOM     10  C   UNL d   1     -46.187  12.617  22.321  0.00  0.00     0.010 A 
ENDBRANCH   1   3
BRANCH   1  11
ATOM     11  C   UNL d   1     -47.878  13.502  22.289  0.00  0.00     0.042 C 
BRANCH  11  12
ATOM     12  C   UNL d   1     -48.610  13.213  22.456  0.00  0.00     0.003 A 
ATOM     13  C   UNL d   1     -49.069  13.567  23.010  0.00  0.00     0.002 A 
ATOM     14  C   UNL d   1     -49.837  13.265  23.187  0.00  0.00     0.024 A 
ATOM     15  C   UNL d   1     -50.135  12.606  22.801  0.00  0.00     0.094 A 
ATOM     16  C   UNL d   1     -49.674  12.244  22.241  0.00  0.00     0.024 A 
ATOM     17  C   UNL d   1     -48.926  12.525  22.057  0.00  0.00     0.002 A 
BRANCH  15  18
ATOM     18  O   UNL d   1     -50.912  12.298  22.978  0.00  0.00    -0.328 OA
ATOM     19  C   UNL d   1     -51.064  11.932  23.698  0.00  0.00     0.181 C 
ENDBRANCH  15  18
ENDBRANCH  11  12
ENDBRANCH   1  11
TORSDOF 4
ENDMDL
MODEL 5
REMARK VINA RESULT:      -5.9      8.366      8.738
REMARK  4 active torsions:
REMARK  status: ('A' for Active; 'I' for Inactive)
REMARK    1  A    between atoms: C_2  and  C_1 
REMARK    2  A    between atoms: C_6  and  C_2 
REMARK    3  A    between atoms: C_9  and  C_6 
REMARK    4  A    between atoms: O_18  and  C_12 
ROOT
ATOM      1  C   UNL d   1     -40.037  14.837  20.387  0.00  0.00     0.199 C 
ATOM      2  O   UNL d   1     -40.818  14.915  20.460  0.00  0.00    -0.286 OA
ENDROOT
BRANCH   1   3
ATOM      3  C   UNL d   1     -39.618  14.595  21.154  0.00  0.00     0.078 A 
ATOM      4  C   UNL d   1     -39.589  15.160  21.755  0.00  0.00     0.202 A 
ATOM      5  C   UNL d   1     -39.186  14.947  22.509  0.00  0.00     0.084 A 
ATOM      6  O   UNL d   1     -39.927  15.903  21.652  0.00  0.00    -0.286 OA
ATOM      7  C   UNL d   1     -38.843  14.180  22.601  0.00  0.00     0.199 A 
ATOM      8  C   UNL d   1     -38.889  13.643  21.987  0.00  0.00     0.042 A 
ATOM      9  O   UNL d   1     -38.456  13.989  23.339  0.00  0.00    -0.286 OA
ATOM     10  C   UNL d   1     -39.283  13.847  21.245  0.00  0.00     0.010 A 
ENDBRANCH   1   3
BRANCH   1  11
ATOM     11  C   UNL d   1     -39.653  14.940  19.784  0.00  0.00     0.042 C 
BRANCH  11  12
ATOM     12  C   UNL d   1     -40.037  15.002  19.080  0.00  0.00     0.003 A 
ATOM     13  C   UNL d   1     -40.238  15.722  18.790  0.00  0.00     0.002 A 
ATOM     14  C   UNL d   1     -40.641  15.790  18.051  0.00  0.00     0.024 A 
ATOM     15  C   UNL d   1     -40.839  15.126  17.611  0.00  0.00     0.094 A 
ATOM     16  C   UNL d   1     -40.638  14.396  17.901  0.00  0.00     0.024 A 
ATOM     17  C   UNL d   1     -40.246  14.313  18.617  0.00  0.00     0.002 A 
BRANCH  15  18
ATOM     18  O   UNL d   1     -41.247  15.191  16.864  0.00  0.00    -0.328 OA
ATOM     19  C   UNL d   1     -41.580  15.904  16.629  0.00  0.00     0.181 C 
ENDBRANCH  15  18
ENDBRANCH  11  12
ENDBRANCH   1  11
TORSDOF 4
ENDMDL
MODEL 6
REMARK VINA RESULT:      -5.9      8.478      9.216
REMARK  4 active torsions:
REMARK  status: ('A' for Active; 'I' for Inactive)
REMARK    1  A    between atoms: C_2  and  C_1 
REMARK    2  A    between atoms: C_6  and  C_2 
REMARK    3  A    between atoms: C_9  and  C_6 
REMARK    4  A    between atoms: O_18  and  C_12 
ROOT
ATOM      1  C   UNL d   1     -39.861  14.928  19.698  0.00  0.00     0.199 C 
ATOM      2  O   UNL d   1     -39.090  14.769  19.674  0.00  0.00    -0.286 OA
ENDROOT
BRANCH   1   3
ATOM      3  C   UNL d   1     -40.243  15.029  18.882  0.00  0.00     0.078 A 
ATOM      4  C   UNL d   1     -40.218  14.377  18.377  0.00  0.00     0.202 A 
ATOM      5  C   UNL d   1     -40.583  14.452  17.580  0.00  0.00     0.084 A 
ATOM      6  O   UNL d   1     -39.863  13.674  18.614  0.00  0.00    -0.286 OA
ATOM      7  C   UNL d   1     -40.945  15.180  17.349  0.00  0.00     0.199 A 
ATOM      8  C   UNL d   1     -40.953  15.808  17.872  0.00  0.00     0.042 A 
ATOM      9  O   UNL d   1     -41.294  15.238  16.571  0.00  0.00    -0.286 OA
ATOM     10  C   UNL d   1     -40.597  15.740  18.656  0.00  0.00     0.010 A 
ENDBRANCH   1   3
BRANCH   1  11
ATOM     11  C   UNL d   1     -40.264  14.996  20.295  0.00  0.00     0.042 C 
BRANCH  11  12
ATOM     12  C   UNL d   1     -39.900  15.082  21.006  0.00  0.00     0.003 A 
ATOM     13  C   UNL d   1     -39.702  14.438  21.442  0.00  0.00     0.002 A 
ATOM     14  C   UNL d   1     -39.319  14.527  22.189  0.00  0.00     0.024 A 
ATOM     15  C   UNL d   1     -39.139  15.268  22.490  0.00  0.00     0.094 A 
ATOM     16  C   UNL d   1     -39.337  15.921  22.054  0.00  0.00     0.024 A 
ATOM     17  C   UNL d   1     -39.709  15.853  21.326  0.00  0.00     0.002 A 
BRANCH  15  18
ATOM     18  O   UNL d   1     -38.751  15.360  23.246  0.00  0.00    -0.328 OA
ATOM     19  C   UNL d   1     -37.965  15.592  23.288  0.00  0.00     0.181 C 
ENDBRANCH  15  18
ENDBRANCH  11  12
ENDBRANCH   1  11
TORSDOF 4
ENDMDL
MODEL 7
REMARK VINA RESULT:      -5.2      8.342     10.344
REMARK  4 active torsions:
REMARK  status: ('A' for Active; 'I' for Inactive)
REMARK    1  A    between atoms: C_2  and  C_1 
REMARK    2  A    between atoms: C_6  and  C_2 
REMARK    3  A    between atoms: C_9  and  C_6 
REMARK    4  A    between atoms: O_18  and  C_12 
ROOT
ATOM      1  C   UNL d   1     -39.717  14.427  18.437  0.00  0.00     0.199 C 
ATOM      2  O   UNL d   1     -40.276  14.086  17.998  0.00  0.00    -0.286 OA
ENDROOT
BRANCH   1   3
ATOM      3  C   UNL d   1     -40.020  14.759  19.225  0.00  0.00     0.078 A 
ATOM      4  C   UNL d   1     -40.563  15.378  19.183  0.00  0.00     0.202 A 
ATOM      5  C   UNL d   1     -40.870  15.716  19.936  0.00  0.00     0.084 A 
ATOM      6  O   UNL d   1     -40.811  15.672  18.456  0.00  0.00    -0.286 OA
ATOM      7  C   UNL d   1     -40.606  15.405  20.676  0.00  0.00     0.199 A 
ATOM      8  C   UNL d   1     -40.068  14.791  20.684  0.00  0.00     0.042 A 
ATOM      9  O   UNL d   1     -40.914  15.743  21.398  0.00  0.00    -0.286 OA
ATOM     10  C   UNL d   1     -39.762  14.455  19.948  0.00  0.00     0.010 A 
ENDBRANCH   1   3
BRANCH   1  11
ATOM     11  C   UNL d   1     -39.018  14.489  18.265  0.00  0.00     0.042 C 
BRANCH  11  12
ATOM     12  C   UNL d   1     -38.759  14.191  17.564  0.00  0.00     0.003 A 
ATOM     13  C   UNL d   1     -38.668  13.400  17.470  0.00  0.00     0.002 A 
ATOM     14  C   UNL d   1     -38.396  13.084  16.736  0.00  0.00     0.024 A 
ATOM     15  C   UNL d   1     -38.219  13.572  16.101  0.00  0.00     0.094 A 
ATOM     16  C   UNL d   1     -38.309  14.373  16.192  0.00  0.00     0.024 A 
ATOM     17  C   UNL d   1     -38.572  14.696  16.899  0.00  0.00     0.002 A 
BRANCH  15  18
ATOM     18  O   UNL d   1     -37.943  13.255  15.357  0.00  0.00    -0.328 OA
ATOM     19  C   UNL d   1     -38.159  13.606  14.647  0.00  0.00     0.181 C 
ENDBRANCH  15  18
ENDBRANCH  11  12
ENDBRANCH   1  11
TORSDOF 4
ENDMDL
MODEL 8
REMARK VINA RESULT:      -5.2      8.282      9.887
REMARK  4 active torsions:
REMARK  status: ('A' for Active; 'I' for Inactive)
REMARK    1  A    between atoms: C_2  and  C_1 
REMARK    2  A    between atoms: C_6  and  C_2 
REMARK    3  A    between atoms: C_9  and  C_6 
REMARK    4  A    between atoms: O_18  and  C_12 
ROOT
ATOM      1  C   UNL d   1     -39.336  14.886  18.128  0.00  0.00     0.199 C 
ATOM      2  O   UNL d   1     -39.020  15.597  18.252  0.00  0.00    -0.286 OA
ENDROOT
BRANCH   1   3
ATOM      3  C   UNL d   1     -39.006  14.457  17.400  0.00  0.00     0.078 A 
ATOM      4  C   UNL d   1     -39.084  14.843  16.675  0.00  0.00     0.202 A 
ATOM      5  C   UNL d   1     -38.770  14.446  15.955  0.00  0.00     0.084 A 
ATOM      6  O   UNL d   1     -39.445  15.580  16.626  0.00  0.00    -0.286 OA
ATOM      7  C   UNL d   1     -38.400  13.688  16.020  0.00  0.00     0.199 A 
ATOM      8  C   UNL d   1     -38.339  13.332  16.752  0.00  0.00     0.042 A 
ATOM      9  O   UNL d   1     -38.101  13.315  15.311  0.00  0.00    -0.286 OA
ATOM     10  C   UNL d   1     -38.645  13.718  17.463  0.00  0.00     0.010 A 
ENDBRANCH   1   3
BRANCH   1  11
ATOM     11  C   UNL d   1     -39.845  14.569  18.532  0.00  0.00     0.042 C 
BRANCH  11  12
ATOM     12  C   UNL d   1     -39.946  14.809  19.293  0.00  0.00     0.003 A 
ATOM     13  C   UNL d   1     -39.571  14.428  19.892  0.00  0.00     0.002 A 
ATOM     14  C   UNL d   1     -39.676  14.678  20.691  0.00  0.00     0.024 A 
ATOM     15  C   UNL d   1     -40.160  15.313  20.879  0.00  0.00     0.094 A 
ATOM     16  C   UNL d   1     -40.541  15.700  20.278  0.00  0.00     0.024 A 
ATOM     17  C   UNL d   1     -40.450  15.470  19.496  0.00  0.00     0.002 A 
BRANCH  15  18
ATOM     18  O   UNL d   1     -40.268  15.568  21.687  0.00  0.00    -0.328 OA
ATOM     19  C   UNL d   1     -39.653  15.921  22.101  0.00  0.00     0.181 C 
ENDBRANCH  15  18
ENDBRANCH  11  12
ENDBRANCH   1  11
TORSDOF 4
ENDMDL
