MODEL 1
REMARK VINA RESULT:      62.3      0.000      0.000
REMARK  4 active torsions:
REMARK  status: ('A' for Active; 'I' for Inactive)
REMARK    1  A    between atoms: C_11  and  C_4 
REMARK    2  A    between atoms: N_10  and  C_7 
REMARK    3  A    between atoms: C_14  and  N_10 
REMARK    4  A    between atoms: C_21  and  C_14 
ROOT
ATOM      1  C   UNL d   1      45.823 -15.556  43.700  0.00  0.00     0.186 A 
ATOM      2  N   UNL d   1      45.557 -15.112  44.350  0.00  0.00    -0.193 N 
ATOM      3  N   UNL d   1      46.065 -15.159  43.004  0.00  0.00    -0.206 NA
ATOM      4  C   UNL d   1      45.786 -16.354  43.900  0.00  0.00     0.140 A 
ATOM      5  N   UNL d   1      45.356 -15.645  44.954  0.00  0.00    -0.058 NA
ATOM      6  N   UNL d   1      45.496 -16.415  44.679  0.00  0.00    -0.127 NA
ATOM      7  C   UNL d   1      46.041 -14.333  42.962  0.00  0.00     0.166 A 
ATOM      8  C   UNL d   1      45.774 -13.901  43.619  0.00  0.00     0.054 A 
ATOM      9  C   UNL d   1      45.534 -14.289  44.306  0.00  0.00     0.089 A 
ATOM     10  C   UNL d   1      45.751 -13.080  43.576  0.00  0.00     0.005 A 
ATOM     11  C   UNL d   1      45.270 -13.849  44.954  0.00  0.00     0.019 A 
ATOM     12  C   UNL d   1      45.487 -12.642  44.222  0.00  0.00     0.000 A 
ATOM     13  C   UNL d   1      45.247 -13.027  44.911  0.00  0.00     0.002 A 
ENDROOT
BRANCH   7  14
ATOM     14  N   UNL d   1      46.280 -13.941  42.277  0.00  0.00    -0.225 NA
BRANCH  14  15
ATOM     15  C   UNL d   1      46.088 -13.150  42.177  0.00  0.00     0.101 C 
BRANCH  15  16
ATOM     16  C   UNL d   1      45.832 -12.875  41.442  0.00  0.00     0.019 A 
ATOM     17  C   UNL d   1      46.360 -12.821  40.810  0.00  0.00     0.002 A 
ATOM     18  C   UNL d   1      46.105 -12.547  40.075  0.00  0.00     0.000 A 
ATOM     19  C   UNL d   1      45.313 -12.326  39.975  0.00  0.00     0.000 A 
ATOM     20  C   UNL d   1      44.782 -12.380  40.612  0.00  0.00     0.000 A 
ATOM     21  C   UNL d   1      45.048 -12.656  41.341  0.00  0.00     0.002 A 
ENDBRANCH  15  16
ENDBRANCH  14  15
ENDBRANCH   7  14
BRANCH   4  22
ATOM     22  C   UNL d   1      45.998 -16.979  43.416  0.00  0.00     0.023 A 
ATOM     23  C   UNL d   1      46.384 -17.631  43.739  0.00  0.00     0.004 A 
ATOM     24  C   UNL d   1      46.600 -18.267  43.249  0.00  0.00     0.030 A 
ATOM     25  C   UNL d   1      46.429 -18.243  42.449  0.00  0.00     0.140 A 
ATOM     26  C   UNL d   1      46.039 -17.580  42.132  0.00  0.00     0.030 A 
ATOM     27  F   UNL d   1      46.641 -18.868  41.964  0.00  0.00    -0.204 F 
ATOM     28  C   UNL d   1      45.827 -16.955  42.616  0.00  0.00     0.004 A 
ENDBRANCH   4  22
TORSDOF 4
ENDMDL
