MODEL 1
REMARK VINA RESULT:      -4.2      0.000      0.000
REMARK  5 active torsions:
REMARK  status: ('A' for Active; 'I' for Inactive)
REMARK    1  A    between atoms: C_16  and  N_2 
REMARK    2  A    between atoms: S_9  and  C_4 
REMARK    3  A    between atoms: C_17  and  S_9 
REMARK    4  A    between atoms: C_10  and  C_17 
REMARK       I    between atoms: N_12  and  C_10 
REMARK    5  A    between atoms: C_14  and  N_12 
ROOT
ATOM      1  C   UNL d   1      59.712  -2.358  28.835  0.00  0.00     0.104 A 
ATOM      2  N   UNL d   1      59.952  -0.984  29.132  0.00  0.00    -0.252 N 
ATOM      3  C   UNL d   1      60.228  -1.730  28.886  0.00  0.00     0.274 A 
ATOM      4  C   UNL d   1      59.155  -0.886  29.321  0.00  0.00     0.182 A 
ATOM      5  C   UNL d   1      58.915  -2.260  29.025  0.00  0.00     0.095 A 
ATOM      6  N   UNL d   1      58.634  -1.534  29.266  0.00  0.00    -0.222 NA
ATOM      7  S   UNL d   1      59.824  -3.142  28.614  0.00  0.00    -0.081 SA
ATOM      8  C   UNL d   1      58.535  -2.984  28.921  0.00  0.00     0.026 A 
ATOM      9  O   UNL d   1      61.025  -1.828  28.697  0.00  0.00    -0.266 OA
ATOM     10  C   UNL d   1      59.092  -3.527  28.669  0.00  0.00     0.031 A 
ATOM     11  C   UNL d   1      58.939  -4.320  28.500  0.00  0.00     0.007 C 
ENDROOT
BRANCH   4  12
ATOM     12  S   UNL d   1      58.868  -0.143  29.568  0.00  0.00    -0.044 SA
BRANCH  12  13
ATOM     13  C   UNL d   1      58.200  -0.104  30.052  0.00  0.00     0.101 C 
BRANCH  13  14
ATOM     14  C   UNL d   1      57.584   0.412  29.864  0.00  0.00     0.286 C 
ATOM     15  N   UNL d   1      57.058   0.657  30.451  0.00  0.00    -0.208 NA
ATOM     16  O   UNL d   1      57.493   0.682  29.089  0.00  0.00    -0.265 OA
BRANCH  15  17
ATOM     17  C   UNL d   1      57.149   0.387  31.225  0.00  0.00     0.085 A 
ATOM     18  C   UNL d   1      56.633  -0.173  31.523  0.00  0.00     0.019 A 
ATOM     19  C   UNL d   1      56.724  -0.443  32.296  0.00  0.00     0.002 A 
ATOM     20  C   UNL d   1      56.197  -1.018  32.603  0.00  0.00     0.000 C 
ATOM     21  C   UNL d   1      57.331  -0.149  32.765  0.00  0.00     0.000 A 
ATOM     22  C   UNL d   1      57.849   0.416  32.461  0.00  0.00     0.002 A 
ATOM     23  C   UNL d   1      57.755   0.681  31.693  0.00  0.00     0.019 A 
ENDBRANCH  15  17
ENDBRANCH  13  14
ENDBRANCH  12  13
ENDBRANCH   4  12
BRANCH   2  24
ATOM     24  C   UNL d   1      60.475  -0.341  29.185  0.00  0.00     0.085 C 
ATOM     25  C   UNL d   1      60.920  -0.116  28.527  0.00  0.00     0.021 C 
ENDBRANCH   2  24
TORSDOF 5
ENDMDL
MODEL 2
REMARK VINA RESULT:      -3.5      1.466      4.287
REMARK  5 active torsions:
REMARK  status: ('A' for Active; 'I' for Inactive)
REMARK    1  A    between atoms: C_16  and  N_2 
REMARK    2  A    between atoms: S_9  and  C_4 
REMARK    3  A    between atoms: C_17  and  S_9 
REMARK    4  A    between atoms: C_10  and  C_17 
REMARK       I    between atoms: N_12  and  C_10 
REMARK    5  A    between atoms: C_14  and  N_12 
ROOT
ATOM      1  C   UNL d   1      57.202  -0.067  32.486  0.00  0.00     0.104 A 
ATOM      2  N   UNL d   1      58.307   0.334  31.679  0.00  0.00    -0.252 N 
ATOM      3  C   UNL d   1      57.938   0.275  32.424  0.00  0.00     0.274 A 
ATOM      4  C   UNL d   1      57.922   0.045  31.009  0.00  0.00     0.182 A 
ATOM      5  C   UNL d   1      56.817  -0.356  31.816  0.00  0.00     0.095 A 
ATOM      6  N   UNL d   1      57.169  -0.303  31.083  0.00  0.00    -0.222 NA
ATOM      7  S   UNL d   1      56.712  -0.199  33.134  0.00  0.00    -0.081 SA
ATOM      8  C   UNL d   1      56.090  -0.666  32.050  0.00  0.00     0.026 A 
ATOM      9  O   UNL d   1      58.323   0.564  33.094  0.00  0.00    -0.266 OA
ATOM     10  C   UNL d   1      56.025  -0.570  32.859  0.00  0.00     0.031 A 
ATOM     11  C   UNL d   1      55.379  -0.807  33.315  0.00  0.00     0.007 C 
ENDROOT
BRANCH   4  12
ATOM     12  S   UNL d   1      58.283   0.099  30.259  0.00  0.00    -0.044 SA
BRANCH  12  13
ATOM     13  C   UNL d   1      58.293  -0.561  29.763  0.00  0.00     0.101 C 
BRANCH  13  14
ATOM     14  C   UNL d   1      58.279  -0.462  28.944  0.00  0.00     0.286 C 
ATOM     15  N   UNL d   1      58.655  -1.010  28.455  0.00  0.00    -0.208 NA
ATOM     16  O   UNL d   1      57.888   0.186  28.613  0.00  0.00    -0.265 OA
BRANCH  15  17
ATOM     17  C   UNL d   1      59.045  -1.658  28.786  0.00  0.00     0.085 A 
ATOM     18  C   UNL d   1      59.860  -1.651  28.851  0.00  0.00     0.019 A 
ATOM     19  C   UNL d   1      60.250  -2.298  29.182  0.00  0.00     0.002 A 
ATOM     20  C   UNL d   1      61.085  -2.292  29.249  0.00  0.00     0.000 C 
ATOM     21  C   UNL d   1      59.819  -2.946  29.444  0.00  0.00     0.000 A 
ATOM     22  C   UNL d   1      58.997  -2.949  29.377  0.00  0.00     0.002 A 
ATOM     23  C   UNL d   1      58.615  -2.306  29.048  0.00  0.00     0.019 A 
ENDBRANCH  15  17
ENDBRANCH  13  14
ENDBRANCH  12  13
ENDBRANCH   4  12
BRANCH   2  24
ATOM     24  C   UNL d   1      59.059   0.682  31.611  0.00  0.00     0.085 C 
ATOM     25  C   UNL d   1      59.612   0.589  32.217  0.00  0.00     0.021 C 
ENDBRANCH   2  24
TORSDOF 5
ENDMDL
