MODEL 1
REMARK VINA RESULT:      68.0      0.000      0.000
REMARK  1 active torsions:
REMARK  status: ('A' for Active; 'I' for Inactive)
REMARK       I    between atoms: N_3  and  C_1 
REMARK       I    between atoms: N_5  and  C_1 
REMARK       I    between atoms: C_2  and  N_4 
REMARK    1  A    between atoms: C_6  and  C_2 
ROOT
ATOM      1  C   UNL d   1     -58.564 -99.049 -44.857  0.00  0.00     0.340 C 
ATOM      2  C   UNL d   1     -55.459-100.094 -44.444  0.00  0.00     0.271 C 
ATOM      3  N   UNL d   1     -57.763 -99.212 -44.739  0.00  0.00    -0.254 N 
ATOM      4  N   UNL d   1     -56.243 -99.817 -44.543  0.00  0.00    -0.269 N 
ATOM      5  N   UNL d   1     -58.840 -98.871 -45.614  0.00  0.00    -0.253 N 
ATOM      6  O   UNL d   1     -59.086 -99.064 -44.223  0.00  0.00    -0.245 OA
ATOM      7  C   UNL d   1     -57.492 -99.419 -43.983  0.00  0.00     0.104 A 
ATOM      8  C   UNL d   1     -57.256 -99.293 -45.398  0.00  0.00     0.104 A 
ATOM      9  C   UNL d   1     -56.723 -99.736 -43.887  0.00  0.00     0.102 A 
ATOM     10  C   UNL d   1     -56.493 -99.592 -45.301  0.00  0.00     0.102 A 
ATOM     11  O   UNL d   1     -54.955-100.175 -45.103  0.00  0.00    -0.266 OA
ATOM     12  O   UNL d   1     -59.445 -98.799 -47.176  0.00  0.00    -0.300 OA
ATOM     13  C   UNL d   1     -59.683 -98.993 -45.784  0.00  0.00     0.111 C 
ATOM     14  C   UNL d   1     -58.360 -99.142 -46.295  0.00  0.00     0.111 C 
ATOM     15  C   UNL d   1     -58.645 -98.962 -47.054  0.00  0.00     0.142 C 
ATOM     16  C   UNL d   1     -59.961 -98.816 -46.533  0.00  0.00     0.142 C 
ENDROOT
BRANCH   2  17
ATOM     17  C   UNL d   1     -55.189-100.309 -43.688  0.00  0.00     0.086 A 
ATOM     18  S   UNL d   1     -55.052-101.085 -43.419  0.00  0.00    -0.082 SA
ATOM     19  C   UNL d   1     -54.774-101.040 -42.627  0.00  0.00     0.036 A 
ATOM     20  C   UNL d   1     -54.750-100.237 -42.412  0.00  0.00     0.008 A 
ATOM     21  C   UNL d   1     -55.000 -99.785 -43.066  0.00  0.00     0.012 A 
ENDBRANCH   2  17
TORSDOF 1
ENDMDL
