MODEL 1
REMARK VINA RESULT:      -2.3      0.000      0.000
REMARK  4 active torsions:
REMARK  status: ('A' for Active; 'I' for Inactive)
REMARK    1  A    between atoms: C_2  and  S_1 
REMARK    2  A    between atoms: N_9  and  S_1 
REMARK    3  A    between atoms: C_18  and  N_9 
REMARK    4  A    between atoms: C_19  and  N_9 
ROOT
ATOM      1  C   UNL d   1      57.740  -0.125  30.747  0.00  0.00     0.104 A 
ATOM      2  C   UNL d   1      60.184   0.389  29.583  0.00  0.00     0.225 A 
ATOM      3  S   UNL d   1      59.385   0.002  28.953  0.00  0.00    -0.046 SA
ATOM      4  C   UNL d   1      59.041   0.169  30.222  0.00  0.00     0.010 A 
ATOM      5  C   UNL d   1      58.768  -0.082  29.461  0.00  0.00     0.033 A 
ATOM      6  C   UNL d   1      58.531   0.149  30.868  0.00  0.00     0.013 A 
ATOM      7  C   UNL d   1      59.809   0.431  30.317  0.00  0.00     0.046 A 
ATOM      8  C   UNL d   1      57.478  -0.366  30.017  0.00  0.00     0.013 A 
ATOM      9  C   UNL d   1      57.996  -0.342  29.376  0.00  0.00     0.007 A 
ATOM     10  O   UNL d   1      60.983   0.635  29.561  0.00  0.00    -0.279 OA
ATOM     11  C   UNL d   1      58.804   0.400  31.629  0.00  0.00     0.001 A 
ATOM     12  C   UNL d   1      60.082   0.681  31.078  0.00  0.00     0.004 A 
ATOM     13  C   UNL d   1      59.577   0.661  31.715  0.00  0.00     0.000 A 
ENDROOT
BRANCH   1  14
ATOM     14  S   UNL d   1      57.203  -0.153  31.397  0.00  0.00     0.271 S 
ATOM     15  O   UNL d   1      57.379  -0.958  31.468  0.00  0.00    -0.200 OA
ATOM     16  O   UNL d   1      57.036   0.681  31.305  0.00  0.00    -0.200 OA
BRANCH  14  17
ATOM     17  N   UNL d   1      56.660  -0.169  32.051  0.00  0.00    -0.229 N 
BRANCH  17  18
ATOM     18  C   UNL d   1      56.458  -0.926  32.327  0.00  0.00     0.092 C 
ATOM     19  C   UNL d   1      55.979  -1.060  32.969  0.00  0.00     0.021 C 
ENDBRANCH  17  18
BRANCH  17  20
ATOM     20  C   UNL d   1      56.358   0.509  32.383  0.00  0.00     0.092 C 
ATOM     21  C   UNL d   1      55.767   0.456  32.964  0.00  0.00     0.021 C 
ENDBRANCH  17  20
ENDBRANCH  14  17
ENDBRANCH   1  14
TORSDOF 4
ENDMDL
MODEL 2
REMARK VINA RESULT:      -2.0      1.607      3.869
REMARK  4 active torsions:
REMARK  status: ('A' for Active; 'I' for Inactive)
REMARK    1  A    between atoms: C_2  and  S_1 
REMARK    2  A    between atoms: N_9  and  S_1 
REMARK    3  A    between atoms: C_18  and  N_9 
REMARK    4  A    between atoms: C_19  and  N_9 
ROOT
ATOM      1  C   UNL d   1      56.739  -0.185  32.009  0.00  0.00     0.104 A 
ATOM      2  C   UNL d   1      56.046   0.320  34.628  0.00  0.00     0.225 A 
ATOM      3  S   UNL d   1      55.293  -0.112  33.971  0.00  0.00    -0.046 SA
ATOM      4  C   UNL d   1      56.462   0.109  33.385  0.00  0.00     0.010 A 
ATOM      5  C   UNL d   1      55.676  -0.183  33.267  0.00  0.00     0.033 A 
ATOM      6  C   UNL d   1      56.997   0.110  32.759  0.00  0.00     0.013 A 
ATOM      7  C   UNL d   1      56.690   0.389  34.117  0.00  0.00     0.046 A 
ATOM      8  C   UNL d   1      55.985  -0.465  31.896  0.00  0.00     0.013 A 
ATOM      9  C   UNL d   1      55.457  -0.462  32.529  0.00  0.00     0.007 A 
ATOM     10  O   UNL d   1      56.167   0.580  35.413  0.00  0.00    -0.279 OA
ATOM     11  C   UNL d   1      57.783   0.402  32.877  0.00  0.00     0.001 A 
ATOM     12  C   UNL d   1      57.477   0.681  34.235  0.00  0.00     0.004 A 
ATOM     13  C   UNL d   1      58.003   0.682  33.615  0.00  0.00     0.000 A 
ENDROOT
BRANCH   1  14
ATOM     14  S   UNL d   1      57.273  -0.191  31.356  0.00  0.00     0.271 S 
ATOM     15  O   UNL d   1      57.452  -0.976  31.551  0.00  0.00    -0.200 OA
ATOM     16  O   UNL d   1      57.073   0.620  31.173  0.00  0.00    -0.200 OA
BRANCH  14  17
ATOM     17  N   UNL d   1      57.809  -0.187  30.696  0.00  0.00    -0.229 N 
BRANCH  17  18
ATOM     18  C   UNL d   1      57.978  -0.932  30.370  0.00  0.00     0.092 C 
ATOM     19  C   UNL d   1      58.601  -1.075  29.869  0.00  0.00     0.021 C 
ENDBRANCH  17  18
BRANCH  17  20
ATOM     20  C   UNL d   1      58.133   0.499  30.403  0.00  0.00     0.092 C 
ATOM     21  C   UNL d   1      58.527   0.490  29.673  0.00  0.00     0.021 C 
ENDBRANCH  17  20
ENDBRANCH  14  17
ENDBRANCH   1  14
TORSDOF 4
ENDMDL
MODEL 3
REMARK VINA RESULT:       0.4      2.687      3.446
REMARK  4 active torsions:
REMARK  status: ('A' for Active; 'I' for Inactive)
REMARK    1  A    between atoms: C_2  and  S_1 
REMARK    2  A    between atoms: N_9  and  S_1 
REMARK    3  A    between atoms: C_18  and  N_9 
REMARK    4  A    between atoms: C_19  and  N_9 
ROOT
ATOM      1  C   UNL d   1      58.774  -1.723  29.201  0.00  0.00     0.104 A 
ATOM      2  C   UNL d   1      60.363  -3.881  28.557  0.00  0.00     0.225 A 
ATOM      3  S   UNL d   1      59.283  -3.990  28.463  0.00  0.00    -0.046 SA
ATOM      4  C   UNL d   1      59.673  -2.796  28.887  0.00  0.00     0.010 A 
ATOM      5  C   UNL d   1      59.001  -3.273  28.690  0.00  0.00     0.033 A 
ATOM      6  C   UNL d   1      59.564  -2.021  29.143  0.00  0.00     0.013 A 
ATOM      7  C   UNL d   1      60.426  -3.103  28.823  0.00  0.00     0.046 A 
ATOM      8  C   UNL d   1      58.130  -2.180  29.013  0.00  0.00     0.013 A 
ATOM      9  C   UNL d   1      58.249  -2.955  28.758  0.00  0.00     0.007 A 
ATOM     10  O   UNL d   1      61.080  -4.297  28.455  0.00  0.00    -0.279 OA
ATOM     11  C   UNL d   1      60.236  -1.543  29.339  0.00  0.00     0.001 A 
ATOM     12  C   UNL d   1      61.098  -2.625  29.020  0.00  0.00     0.004 A 
ATOM     13  C   UNL d   1      60.989  -1.860  29.272  0.00  0.00     0.000 A 
ENDROOT
BRANCH   1  14
ATOM     14  S   UNL d   1      58.643  -0.931  29.461  0.00  0.00     0.271 S 
ATOM     15  O   UNL d   1      58.633  -0.705  28.665  0.00  0.00    -0.200 OA
ATOM     16  O   UNL d   1      58.658  -1.189  30.277  0.00  0.00    -0.200 OA
BRANCH  14  17
ATOM     17  N   UNL d   1      58.512  -0.137  29.734  0.00  0.00    -0.229 N 
BRANCH  17  18
ATOM     18  C   UNL d   1      57.750   0.165  29.598  0.00  0.00     0.092 C 
ATOM     19  C   UNL d   1      57.373   0.682  30.098  0.00  0.00     0.021 C 
ENDBRANCH  17  18
BRANCH  17  20
ATOM     20  C   UNL d   1      59.092   0.298  30.103  0.00  0.00     0.092 C 
ATOM     21  C   UNL d   1      59.040   0.448  30.918  0.00  0.00     0.021 C 
ENDBRANCH  17  20
ENDBRANCH  14  17
ENDBRANCH   1  14
TORSDOF 4
ENDMDL
