MODEL 1
REMARK VINA RESULT:      52.1      0.000      0.000
REMARK  5 active torsions:
REMARK  status: ('A' for Active; 'I' for Inactive)
REMARK    1  A    between atoms: N_10  and  C_2 
REMARK    2  A    between atoms: C_7  and  C_5 
REMARK    3  A    between atoms: C_6  and  C_9 
REMARK    4  A    between atoms: C_8  and  C_7 
REMARK       I    between atoms: N_11  and  C_8 
REMARK    5  A    between atoms: C_14  and  N_11 
ROOT
ATOM      1  C   UNL d   1     -49.672  27.580  33.985  0.00  0.00     0.280 C 
ATOM      2  N   UNL d   1     -49.002  28.048  33.891  0.00  0.00    -0.208 NA
ATOM      3  O   UNL d   1     -49.973  27.445  34.740  0.00  0.00    -0.265 OA
ENDROOT
BRANCH   1   4
ATOM      4  C   UNL d   1     -50.042  27.247  33.330  0.00  0.00     0.074 C 
BRANCH   4   5
ATOM      5  C   UNL d   1     -50.593  26.641  33.425  0.00  0.00     0.093 A 
ATOM      6  C   UNL d   1     -51.412  26.729  33.414  0.00  0.00     0.272 A 
ATOM      7  N   UNL d   1     -51.746  25.990  33.530  0.00  0.00    -0.251 N 
ATOM      8  O   UNL d   1     -51.823  27.437  33.306  0.00  0.00    -0.266 OA
ATOM      9  C   UNL d   1     -51.133  25.443  33.613  0.00  0.00     0.182 A 
ATOM     10  C   UNL d   1     -52.554  25.818  33.559  0.00  0.00     0.104 C 
ATOM     11  S   UNL d   1     -50.422  25.848  33.548  0.00  0.00    -0.045 SA
BRANCH   9  12
ATOM     12  N   UNL d   1     -51.220  24.632  33.739  0.00  0.00    -0.219 NA
ATOM     13  C   UNL d   1     -50.766  24.095  33.306  0.00  0.00     0.122 C 
ENDBRANCH   9  12
ENDBRANCH   4   5
ENDBRANCH   1   4
BRANCH   2  14
ATOM     14  C   UNL d   1     -48.635  28.380  34.552  0.00  0.00     0.085 A 
ATOM     15  C   UNL d   1     -48.345  29.155  34.526  0.00  0.00     0.023 A 
ATOM     16  C   UNL d   1     -47.979  29.480  35.191  0.00  0.00     0.073 A 
ATOM     17  C   UNL d   1     -47.904  29.035  35.877  0.00  0.00     0.004 A 
ATOM     18  C   UNL d   1     -48.194  28.260  35.903  0.00  0.00     0.002 A 
ATOM     19  C   UNL d   1     -48.559  27.932  35.243  0.00  0.00     0.019 A 
BRANCH  16  20
ATOM     20  C   UNL d   1     -47.690  30.255  35.165  0.00  0.00     0.419 C 
ATOM     21  F   UNL d   1     -47.427  30.957  35.142  0.00  0.00    -0.166 F 
ATOM     22  F   UNL d   1     -46.888  30.542  35.287  0.00  0.00    -0.166 F 
ATOM     23  F   UNL d   1     -48.113  30.991  35.009  0.00  0.00    -0.166 F 
ENDBRANCH  16  20
ENDBRANCH   2  14
TORSDOF 5
ENDMDL
