MODEL 1
REMARK VINA RESULT:     123.0      0.000      0.000
REMARK  4 active torsions:
REMARK  status: ('A' for Active; 'I' for Inactive)
REMARK    1  A    between atoms: C_30  and  N_11 
REMARK    2  A    between atoms: C_29  and  N_12 
REMARK    3  A    between atoms: C_16  and  C_13 
REMARK    4  A    between atoms: C_15  and  C_14 
ROOT
ATOM      1  N   UNL d   1     -56.847 -98.836 -43.350  0.00  0.00    -0.240 N 
ATOM      2  N   UNL d   1     -57.644 -98.845 -43.680  0.00  0.00    -0.240 N 
ATOM      3  C   UNL d   1     -56.300 -98.857 -43.994  0.00  0.00     0.144 A 
ATOM      4  C   UNL d   1     -58.191 -98.824 -43.036  0.00  0.00     0.144 A 
ATOM      5  C   UNL d   1     -57.742 -98.801 -42.296  0.00  0.00     0.097 A 
ATOM      6  C   UNL d   1     -56.751 -98.879 -44.723  0.00  0.00     0.097 A 
ATOM      7  C   UNL d   1     -55.476 -98.864 -44.200  0.00  0.00     0.285 A 
ATOM      8  C   UNL d   1     -59.023 -98.817 -42.848  0.00  0.00     0.285 A 
ATOM      9  C   UNL d   1     -56.201 -98.900 -45.371  0.00  0.00     0.270 A 
ATOM     10  C   UNL d   1     -58.306 -98.780 -41.654  0.00  0.00     0.270 A 
ATOM     11  N   UNL d   1     -59.096 -98.790 -41.991  0.00  0.00    -0.239 N 
ATOM     12  N   UNL d   1     -55.412 -98.891 -45.040  0.00  0.00    -0.239 N 
ATOM     13  C   UNL d   1     -56.921 -98.809 -42.499  0.00  0.00     0.094 A 
ATOM     14  C   UNL d   1     -57.570 -98.871 -44.523  0.00  0.00     0.094 A 
ATOM     15  O   UNL d   1     -59.639 -98.832 -43.376  0.00  0.00    -0.265 OA
ATOM     16  O   UNL d   1     -58.129 -98.756 -40.861  0.00  0.00    -0.266 OA
ATOM     17  O   UNL d   1     -56.385 -98.925 -46.162  0.00  0.00    -0.266 OA
ATOM     18  O   UNL d   1     -54.854 -98.849 -43.672  0.00  0.00    -0.265 OA
ENDROOT
BRANCH  13  19
ATOM     19  C   UNL d   1     -56.304 -98.793 -41.964  0.00  0.00     0.047 A 
ATOM     20  S   UNL d   1     -56.384 -98.806 -41.156  0.00  0.00    -0.085 SA
ATOM     21  C   UNL d   1     -55.638 -98.782 -40.841  0.00  0.00     0.035 A 
ATOM     22  C   UNL d   1     -55.101 -98.756 -41.455  0.00  0.00     0.007 A 
ATOM     23  C   UNL d   1     -55.527 -98.763 -42.147  0.00  0.00     0.009 A 
ENDBRANCH  13  19
BRANCH  11  24
ATOM     24  C   UNL d   1     -59.791 -98.775 -41.573  0.00  0.00     0.086 C 
ATOM     25  C   UNL d   1     -59.958 -99.376 -41.031  0.00  0.00     0.021 C 
ENDBRANCH  11  24
BRANCH  14  26
ATOM     26  C   UNL d   1     -58.185 -98.887 -45.045  0.00  0.00     0.047 A 
ATOM     27  S   UNL d   1     -58.130 -98.756 -45.849  0.00  0.00    -0.085 SA
ATOM     28  C   UNL d   1     -58.869 -98.824 -46.155  0.00  0.00     0.035 A 
ATOM     29  C   UNL d   1     -59.377 -98.994 -45.551  0.00  0.00     0.007 A 
ATOM     30  C   UNL d   1     -58.955 -99.033 -44.868  0.00  0.00     0.009 A 
ENDBRANCH  14  26
BRANCH  12  31
ATOM     31  C   UNL d   1     -54.718 -98.905 -45.471  0.00  0.00     0.086 C 
ATOM     32  C   UNL d   1     -54.742 -99.032 -46.286  0.00  0.00     0.021 C 
ENDBRANCH  12  31
TORSDOF 4
ENDMDL
