MODEL 1
REMARK VINA RESULT:      -6.7      0.000      0.000
REMARK  6 active torsions:
REMARK  status: ('A' for Active; 'I' for Inactive)
REMARK    1  A    between atoms: C_9  and  N_1 
REMARK    2  A    between atoms: S_10  and  C_6 
REMARK    3  A    between atoms: C_16  and  S_10 
REMARK    4  A    between atoms: C_12  and  C_16 
REMARK    5  A    between atoms: O_20  and  C_12 
REMARK    6  A    between atoms: C_22  and  O_20 
ROOT
ATOM      1  N   UNL d   1     -48.818  12.662  22.989  0.00  0.00    -0.212 N 
ATOM      2  C   UNL d   1     -48.038  12.865  23.142  0.00  0.00     0.169 A 
ATOM      3  N   UNL d   1     -48.893  11.857  23.028  0.00  0.00    -0.162 NA
ATOM      4  C   UNL d   1     -47.621  12.167  23.280  0.00  0.00     0.081 A 
ATOM      5  C   UNL d   1     -48.149  11.540  23.209  0.00  0.00     0.126 A 
ATOM      6  C   UNL d   1     -46.817  12.193  23.450  0.00  0.00     0.117 A 
ATOM      7  N   UNL d   1     -47.651  13.590  23.176  0.00  0.00    -0.205 NA
ATOM      8  N   UNL d   1     -46.427  12.919  23.484  0.00  0.00    -0.217 NA
ATOM      9  C   UNL d   1     -46.844  13.618  23.347  0.00  0.00     0.201 A 
ENDROOT
BRANCH   1  10
ATOM     10  C   UNL d   1     -49.378  13.255  22.828  0.00  0.00     0.085 A 
ATOM     11  C   UNL d   1     -49.819  13.573  23.438  0.00  0.00     0.020 A 
ATOM     12  C   UNL d   1     -50.370  14.155  23.286  0.00  0.00     0.013 A 
ATOM     13  C   UNL d   1     -50.488  14.430  22.507  0.00  0.00     0.058 A 
ATOM     14  C   UNL d   1     -50.037  14.102  21.896  0.00  0.00     0.013 A 
ATOM     15 CL   UNL d   1     -51.047  15.022  22.347  0.00  0.00    -0.082 Cl
ATOM     16  C   UNL d   1     -49.486  13.518  22.057  0.00  0.00     0.020 A 
ENDBRANCH   1  10
BRANCH   6  17
ATOM     17  S   UNL d   1     -46.401  11.494  23.587  0.00  0.00    -0.062 SA
BRANCH  17  18
ATOM     18  C   UNL d   1     -45.622  11.431  23.353  0.00  0.00     0.105 C 
BRANCH  18  19
ATOM     19  C   UNL d   1     -45.176  10.774  23.578  0.00  0.00     0.307 C 
ATOM     20  O   UNL d   1     -45.542  10.042  23.682  0.00  0.00    -0.258 OA
BRANCH  19  21
ATOM     21  O   UNL d   1     -44.363  10.849  23.698  0.00  0.00    -0.271 OA
BRANCH  21  22
ATOM     22  C   UNL d   1     -43.841  10.325  23.330  0.00  0.00     0.126 C 
ATOM     23  C   UNL d   1     -43.052  10.292  23.571  0.00  0.00     0.029 C 
ENDBRANCH  21  22
ENDBRANCH  19  21
ENDBRANCH  18  19
ENDBRANCH  17  18
ENDBRANCH   6  17
TORSDOF 6
ENDMDL
MODEL 2
REMARK VINA RESULT:      -6.2      1.673      1.826
REMARK  6 active torsions:
REMARK  status: ('A' for Active; 'I' for Inactive)
REMARK    1  A    between atoms: C_9  and  N_1 
REMARK    2  A    between atoms: S_10  and  C_6 
REMARK    3  A    between atoms: C_16  and  S_10 
REMARK    4  A    between atoms: C_12  and  C_16 
REMARK    5  A    between atoms: O_20  and  C_12 
REMARK    6  A    between atoms: C_22  and  O_20 
ROOT
ATOM      1  N   UNL d   1     -48.330  13.527  22.623  0.00  0.00    -0.212 N 
ATOM      2  C   UNL d   1     -47.590  13.876  22.696  0.00  0.00     0.169 A 
ATOM      3  N   UNL d   1     -48.235  12.755  22.398  0.00  0.00    -0.162 NA
ATOM      4  C   UNL d   1     -47.025  13.304  22.511  0.00  0.00     0.081 A 
ATOM      5  C   UNL d   1     -47.423  12.608  22.326  0.00  0.00     0.126 A 
ATOM      6  C   UNL d   1     -46.225  13.492  22.535  0.00  0.00     0.117 A 
ATOM      7  N   UNL d   1     -47.355  14.636  22.906  0.00  0.00    -0.205 NA
ATOM      8  N   UNL d   1     -45.987  14.253  22.745  0.00  0.00    -0.217 NA
ATOM      9  C   UNL d   1     -46.552  14.825  22.931  0.00  0.00     0.201 A 
ENDROOT
BRANCH   1  10
ATOM     10  C   UNL d   1     -49.015  13.970  22.776  0.00  0.00     0.085 A 
ATOM     11  C   UNL d   1     -49.334  13.981  23.529  0.00  0.00     0.020 A 
ATOM     12  C   UNL d   1     -50.006  14.414  23.684  0.00  0.00     0.013 A 
ATOM     13  C   UNL d   1     -50.376  14.851  23.076  0.00  0.00     0.058 A 
ATOM     14  C   UNL d   1     -50.046  14.834  22.318  0.00  0.00     0.013 A 
ATOM     15 CL   UNL d   1     -51.061  15.294  23.230  0.00  0.00    -0.082 Cl
ATOM     16  C   UNL d   1     -49.371  14.397  22.170  0.00  0.00     0.020 A 
ENDBRANCH   1  10
BRANCH   6  17
ATOM     17  S   UNL d   1     -45.661  12.920  22.350  0.00  0.00    -0.062 SA
BRANCH  17  18
ATOM     18  C   UNL d   1     -44.894  13.142  22.183  0.00  0.00     0.105 C 
BRANCH  18  19
ATOM     19  C   UNL d   1     -44.330  12.570  21.994  0.00  0.00     0.307 C 
ATOM     20  O   UNL d   1     -44.251  11.897  22.465  0.00  0.00    -0.258 OA
BRANCH  19  21
ATOM     21  O   UNL d   1     -43.845  12.671  21.333  0.00  0.00    -0.271 OA
BRANCH  21  22
ATOM     22  C   UNL d   1     -43.029  12.564  21.400  0.00  0.00     0.126 C 
ATOM     23  C   UNL d   1     -42.513  13.087  21.024  0.00  0.00     0.029 C 
ENDBRANCH  21  22
ENDBRANCH  19  21
ENDBRANCH  18  19
ENDBRANCH  17  18
ENDBRANCH   6  17
TORSDOF 6
ENDMDL
MODEL 3
REMARK VINA RESULT:      -4.3      9.282     10.866
REMARK  6 active torsions:
REMARK  status: ('A' for Active; 'I' for Inactive)
REMARK    1  A    between atoms: C_9  and  N_1 
REMARK    2  A    between atoms: S_10  and  C_6 
REMARK    3  A    between atoms: C_16  and  S_10 
REMARK    4  A    between atoms: C_12  and  C_16 
REMARK    5  A    between atoms: O_20  and  C_12 
REMARK    6  A    between atoms: C_22  and  O_20 
ROOT
ATOM      1  N   UNL d   1     -39.320  14.989  19.069  0.00  0.00    -0.212 N 
ATOM      2  C   UNL d   1     -38.890  14.391  18.706  0.00  0.00     0.169 A 
ATOM      3  N   UNL d   1     -39.574  15.511  18.504  0.00  0.00    -0.162 NA
ATOM      4  C   UNL d   1     -38.879  14.549  17.897  0.00  0.00     0.081 A 
ATOM      5  C   UNL d   1     -39.302  15.243  17.769  0.00  0.00     0.126 A 
ATOM      6  C   UNL d   1     -38.486  14.042  17.383  0.00  0.00     0.117 A 
ATOM      7  N   UNL d   1     -38.508  13.726  19.003  0.00  0.00    -0.205 NA
ATOM      8  N   UNL d   1     -38.102  13.373  17.678  0.00  0.00    -0.217 NA
ATOM      9  C   UNL d   1     -38.113  13.216  18.488  0.00  0.00     0.201 A 
ENDROOT
BRANCH   1  10
ATOM     10  C   UNL d   1     -39.429  14.982  19.893  0.00  0.00     0.085 A 
ATOM     11  C   UNL d   1     -38.824  15.228  20.385  0.00  0.00     0.020 A 
ATOM     12  C   UNL d   1     -38.925  15.223  21.194  0.00  0.00     0.013 A 
ATOM     13  C   UNL d   1     -39.647  14.966  21.527  0.00  0.00     0.058 A 
ATOM     14  C   UNL d   1     -40.253  14.719  21.020  0.00  0.00     0.013 A 
ATOM     15 CL   UNL d   1     -39.755  14.959  22.350  0.00  0.00    -0.082 Cl
ATOM     16  C   UNL d   1     -40.143  14.727  20.210  0.00  0.00     0.020 A 
ENDBRANCH   1  10
BRANCH   6  17
ATOM     17  S   UNL d   1     -38.475  14.199  16.574  0.00  0.00    -0.062 SA
BRANCH  17  18
ATOM     18  C   UNL d   1     -38.127  13.670  16.060  0.00  0.00     0.105 C 
BRANCH  18  19
ATOM     19  C   UNL d   1     -38.013  13.877  15.269  0.00  0.00     0.307 C 
ATOM     20  O   UNL d   1     -37.967  14.672  15.053  0.00  0.00    -0.258 OA
BRANCH  19  21
ATOM     21  O   UNL d   1     -37.945  13.288  14.694  0.00  0.00    -0.271 OA
BRANCH  21  22
ATOM     22  C   UNL d   1     -38.007  13.483  13.894  0.00  0.00     0.126 C 
ATOM     23  C   UNL d   1     -37.940  12.895  13.319  0.00  0.00     0.029 C 
ENDBRANCH  21  22
ENDBRANCH  19  21
ENDBRANCH  18  19
ENDBRANCH  17  18
ENDBRANCH   6  17
TORSDOF 6
ENDMDL
MODEL 4
REMARK VINA RESULT:      -4.2      2.899      5.159
REMARK  6 active torsions:
REMARK  status: ('A' for Active; 'I' for Inactive)
REMARK    1  A    between atoms: C_9  and  N_1 
REMARK    2  A    between atoms: S_10  and  C_6 
REMARK    3  A    between atoms: C_16  and  S_10 
REMARK    4  A    between atoms: C_12  and  C_16 
REMARK    5  A    between atoms: O_20  and  C_12 
REMARK    6  A    between atoms: C_22  and  O_20 
ROOT
ATOM      1  N   UNL d   1     -46.400  11.765  23.284  0.00  0.00    -0.212 N 
ATOM      2  C   UNL d   1     -46.416  12.577  23.156  0.00  0.00     0.169 A 
ATOM      3  N   UNL d   1     -47.159  11.501  23.385  0.00  0.00    -0.162 NA
ATOM      4  C   UNL d   1     -47.205  12.817  23.179  0.00  0.00     0.081 A 
ATOM      5  C   UNL d   1     -47.667  12.152  23.321  0.00  0.00     0.126 A 
ATOM      6  C   UNL d   1     -47.397  13.608  23.068  0.00  0.00     0.117 A 
ATOM      7  N   UNL d   1     -45.820  13.127  23.022  0.00  0.00    -0.205 NA
ATOM      8  N   UNL d   1     -46.801  14.163  22.933  0.00  0.00    -0.217 NA
ATOM      9  C   UNL d   1     -46.013  13.922  22.910  0.00  0.00     0.201 A 
ENDROOT
BRANCH   1  10
ATOM     10  C   UNL d   1     -45.675  11.360  23.292  0.00  0.00     0.085 A 
ATOM     11  C   UNL d   1     -45.028  11.677  22.906  0.00  0.00     0.020 A 
ATOM     12  C   UNL d   1     -44.314  11.283  22.911  0.00  0.00     0.013 A 
ATOM     13  C   UNL d   1     -44.238  10.554  23.310  0.00  0.00     0.058 A 
ATOM     14  C   UNL d   1     -44.899  10.241  23.698  0.00  0.00     0.013 A 
ATOM     15 CL   UNL d   1     -43.513  10.149  23.318  0.00  0.00    -0.082 Cl
ATOM     16  C   UNL d   1     -45.611  10.643  23.688  0.00  0.00     0.020 A 
ENDBRANCH   1  10
BRANCH   6  17
ATOM     17  S   UNL d   1     -48.186  13.849  23.091  0.00  0.00    -0.062 SA
BRANCH  17  18
ATOM     18  C   UNL d   1     -48.380  14.626  22.939  0.00  0.00     0.105 C 
BRANCH  18  19
ATOM     19  C   UNL d   1     -49.172  14.848  22.869  0.00  0.00     0.307 C 
ATOM     20  O   UNL d   1     -49.443  15.534  23.239  0.00  0.00    -0.258 OA
BRANCH  19  21
ATOM     21  O   UNL d   1     -49.693  14.384  22.427  0.00  0.00    -0.271 OA
BRANCH  21  22
ATOM     22  C   UNL d   1     -50.439  14.676  22.229  0.00  0.00     0.126 C 
ATOM     23  C   UNL d   1     -51.061  14.153  22.079  0.00  0.00     0.029 C 
ENDBRANCH  21  22
ENDBRANCH  19  21
ENDBRANCH  18  19
ENDBRANCH  17  18
ENDBRANCH   6  17
TORSDOF 6
ENDMDL
MODEL 5
REMARK VINA RESULT:      -4.2      9.033     10.190
REMARK  6 active torsions:
REMARK  status: ('A' for Active; 'I' for Inactive)
REMARK    1  A    between atoms: C_9  and  N_1 
REMARK    2  A    between atoms: S_10  and  C_6 
REMARK    3  A    between atoms: C_16  and  S_10 
REMARK    4  A    between atoms: C_12  and  C_16 
REMARK    5  A    between atoms: O_20  and  C_12 
REMARK    6  A    between atoms: C_22  and  O_20 
ROOT
ATOM      1  N   UNL d   1     -39.335  14.832  20.761  0.00  0.00    -0.212 N 
ATOM      2  C   UNL d   1     -39.141  14.570  20.007  0.00  0.00     0.169 A 
ATOM      3  N   UNL d   1     -39.798  15.494  20.699  0.00  0.00    -0.162 NA
ATOM      4  C   UNL d   1     -39.492  15.085  19.467  0.00  0.00     0.081 A 
ATOM      5  C   UNL d   1     -39.900  15.658  19.893  0.00  0.00     0.126 A 
ATOM      6  C   UNL d   1     -39.395  14.964  18.659  0.00  0.00     0.117 A 
ATOM      7  N   UNL d   1     -38.692  13.935  19.740  0.00  0.00    -0.205 NA
ATOM      8  N   UNL d   1     -38.946  14.327  18.389  0.00  0.00    -0.217 NA
ATOM      9  C   UNL d   1     -38.594  13.813  18.930  0.00  0.00     0.201 A 
ENDROOT
BRANCH   1  10
ATOM     10  C   UNL d   1     -39.058  14.421  21.427  0.00  0.00     0.085 A 
ATOM     11  C   UNL d   1     -39.573  13.959  21.863  0.00  0.00     0.020 A 
ATOM     12  C   UNL d   1     -39.307  13.553  22.518  0.00  0.00     0.013 A 
ATOM     13  C   UNL d   1     -38.506  13.606  22.750  0.00  0.00     0.058 A 
ATOM     14  C   UNL d   1     -37.993  14.076  22.302  0.00  0.00     0.013 A 
ATOM     15 CL   UNL d   1     -38.230  13.195  23.416  0.00  0.00    -0.082 Cl
ATOM     16  C   UNL d   1     -38.268  14.480  21.646  0.00  0.00     0.020 A 
ENDBRANCH   1  10
BRANCH   6  17
ATOM     17  S   UNL d   1     -39.747  15.479  18.119  0.00  0.00    -0.062 SA
BRANCH  17  18
ATOM     18  C   UNL d   1     -40.231  15.186  17.532  0.00  0.00     0.105 C 
BRANCH  18  19
ATOM     19  C   UNL d   1     -40.431  15.660  16.887  0.00  0.00     0.307 C 
ATOM     20  O   UNL d   1     -39.851  15.886  16.345  0.00  0.00    -0.258 OA
BRANCH  19  21
ATOM     21  O   UNL d   1     -41.212  15.909  16.784  0.00  0.00    -0.271 OA
BRANCH  21  22
ATOM     22  C   UNL d   1     -41.673  15.582  16.182  0.00  0.00     0.126 C 
ATOM     23  C   UNL d   1     -42.400  15.922  15.989  0.00  0.00     0.029 C 
ENDBRANCH  21  22
ENDBRANCH  19  21
ENDBRANCH  18  19
ENDBRANCH  17  18
ENDBRANCH   6  17
TORSDOF 6
ENDMDL
MODEL 6
REMARK VINA RESULT:      -4.1      9.219     10.491
REMARK  6 active torsions:
REMARK  status: ('A' for Active; 'I' for Inactive)
REMARK    1  A    between atoms: C_9  and  N_1 
REMARK    2  A    between atoms: S_10  and  C_6 
REMARK    3  A    between atoms: C_16  and  S_10 
REMARK    4  A    between atoms: C_12  and  C_16 
REMARK    5  A    between atoms: O_20  and  C_12 
REMARK    6  A    between atoms: C_22  and  O_20 
ROOT
ATOM      1  N   UNL d   1     -38.657  15.314  20.508  0.00  0.00    -0.212 N 
ATOM      2  C   UNL d   1     -39.225  15.049  19.977  0.00  0.00     0.169 A 
ATOM      3  N   UNL d   1     -38.119  15.772  20.111  0.00  0.00    -0.162 NA
ATOM      4  C   UNL d   1     -39.032  15.352  19.234  0.00  0.00     0.081 A 
ATOM      5  C   UNL d   1     -38.347  15.800  19.315  0.00  0.00     0.126 A 
ATOM      6  C   UNL d   1     -39.504  15.180  18.584  0.00  0.00     0.117 A 
ATOM      7  N   UNL d   1     -39.890  14.574  20.070  0.00  0.00    -0.205 NA
ATOM      8  N   UNL d   1     -40.172  14.704  18.674  0.00  0.00    -0.217 NA
ATOM      9  C   UNL d   1     -40.365  14.401  19.417  0.00  0.00     0.201 A 
ENDROOT
BRANCH   1  10
ATOM     10  C   UNL d   1     -38.703  15.098  21.308  0.00  0.00     0.085 A 
ATOM     11  C   UNL d   1     -38.421  14.369  21.550  0.00  0.00     0.020 A 
ATOM     12  C   UNL d   1     -38.464  14.152  22.334  0.00  0.00     0.013 A 
ATOM     13  C   UNL d   1     -38.796  14.671  22.898  0.00  0.00     0.058 A 
ATOM     14  C   UNL d   1     -39.078  15.406  22.644  0.00  0.00     0.013 A 
ATOM     15 CL   UNL d   1     -38.842  14.454  23.698  0.00  0.00    -0.082 Cl
ATOM     16  C   UNL d   1     -39.031  15.617  21.855  0.00  0.00     0.020 A 
ENDBRANCH   1  10
BRANCH   6  17
ATOM     17  S   UNL d   1     -39.312  15.483  17.841  0.00  0.00    -0.062 SA
BRANCH  17  18
ATOM     18  C   UNL d   1     -39.489  15.057  17.169  0.00  0.00     0.105 C 
BRANCH  18  19
ATOM     19  C   UNL d   1     -39.060  15.182  16.476  0.00  0.00     0.307 C 
ATOM     20  O   UNL d   1     -39.172  15.874  16.040  0.00  0.00    -0.258 OA
BRANCH  19  21
ATOM     21  O   UNL d   1     -38.517  14.616  16.218  0.00  0.00    -0.271 OA
BRANCH  21  22
ATOM     22  C   UNL d   1     -38.410  14.485  15.410  0.00  0.00     0.126 C 
ATOM     23  C   UNL d   1     -37.940  13.857  15.152  0.00  0.00     0.029 C 
ENDBRANCH  21  22
ENDBRANCH  19  21
ENDBRANCH  18  19
ENDBRANCH  17  18
ENDBRANCH   6  17
TORSDOF 6
ENDMDL
