MODEL 1
REMARK VINA RESULT:      -2.7      0.000      0.000
REMARK  6 active torsions:
REMARK  status: ('A' for Active; 'I' for Inactive)
REMARK       I    between atoms: N_3  and  C_1 
REMARK    1  A    between atoms: O_5  and  C_1 
REMARK    2  A    between atoms: C_6  and  C_2 
REMARK    3  A    between atoms: C_4  and  O_5 
REMARK    4  A    between atoms: C_7  and  C_6 
REMARK    5  A    between atoms: C_9  and  C_7 
REMARK    6  A    between atoms: C_8  and  C_9 
ROOT
ATOM      1  C   UNL d   1      33.021  19.829 -23.444  0.00  0.00     0.063 A 
ATOM      2  C   UNL d   1      32.886  19.138 -23.893  0.00  0.00     0.108 A 
ATOM      3  C   UNL d   1      33.138  20.547 -23.832  0.00  0.00     0.017 A 
ATOM      4  C   UNL d   1      32.872  19.183 -24.712  0.00  0.00     0.026 A 
ATOM      5  C   UNL d   1      33.122  20.584 -24.652  0.00  0.00     0.058 A 
ATOM      6  C   UNL d   1      32.989  19.899 -25.097  0.00  0.00     0.013 A 
ATOM      7 CL   UNL d   1      33.240  21.305 -25.038  0.00  0.00    -0.082 Cl
ENDROOT
BRANCH   1   8
ATOM      8  C   UNL d   1      33.037  19.790 -22.620  0.00  0.00     0.198 C 
ATOM      9  O   UNL d   1      33.101  19.056 -22.245  0.00  0.00    -0.286 OA
BRANCH   8  10
ATOM     10  C   UNL d   1      32.988  20.479 -22.173  0.00  0.00     0.043 C 
BRANCH  10  11
ATOM     11  C   UNL d   1      32.692  20.454 -21.404  0.00  0.00     0.010 C 
BRANCH  11  12
ATOM     12  C   UNL d   1      32.626  21.153 -20.958  0.00  0.00     0.030 A 
ATOM     13  S   UNL d   1      33.241  21.513 -20.536  0.00  0.00    -0.086 SA
ATOM     14  C   UNL d   1      32.922  22.195 -20.176  0.00  0.00     0.035 A 
ATOM     15  C   UNL d   1      32.124  22.244 -20.378  0.00  0.00     0.007 A 
ATOM     16  C   UNL d   1      31.946  21.599 -20.861  0.00  0.00     0.007 A 
ENDBRANCH  11  12
ENDBRANCH  10  11
ENDBRANCH   8  10
ENDBRANCH   1   8
BRANCH   2  17
ATOM     17  O   UNL d   1      32.769  18.422 -23.509  0.00  0.00    -0.259 OA
BRANCH  17  18
ATOM     18  C   UNL d   1      32.191  17.900 -23.786  0.00  0.00     0.378 C 
ATOM     19  N   UNL d   1      32.239  17.097 -23.605  0.00  0.00    -0.247 N 
ATOM     20  C   UNL d   1      31.664  16.577 -23.881  0.00  0.00     0.112 A 
ATOM     21  C   UNL d   1      32.872  16.811 -23.143  0.00  0.00     0.112 A 
ATOM     22  C   UNL d   1      31.718  15.764 -23.695  0.00  0.00     0.142 A 
ATOM     23  O   UNL d   1      32.350  15.488 -23.234  0.00  0.00    -0.300 OA
ATOM     24  C   UNL d   1      32.925  16.013 -22.959  0.00  0.00     0.142 A 
ATOM     25  O   UNL d   1      31.559  18.176 -24.246  0.00  0.00    -0.237 OA
ENDBRANCH  17  18
ENDBRANCH   2  17
TORSDOF 6
ENDMDL
MODEL 2
REMARK VINA RESULT:      -1.9      2.153      3.398
REMARK  6 active torsions:
REMARK  status: ('A' for Active; 'I' for Inactive)
REMARK       I    between atoms: N_3  and  C_1 
REMARK    1  A    between atoms: O_5  and  C_1 
REMARK    2  A    between atoms: C_6  and  C_2 
REMARK    3  A    between atoms: C_4  and  O_5 
REMARK    4  A    between atoms: C_7  and  C_6 
REMARK    5  A    between atoms: C_9  and  C_7 
REMARK    6  A    between atoms: C_8  and  C_9 
ROOT
ATOM      1  C   UNL d   1      32.316  17.084 -23.442  0.00  0.00     0.063 A 
ATOM      2  C   UNL d   1      31.634  16.687 -23.714  0.00  0.00     0.108 A 
ATOM      3  C   UNL d   1      32.847  16.687 -22.951  0.00  0.00     0.017 A 
ATOM      4  C   UNL d   1      31.501  15.909 -23.489  0.00  0.00     0.026 A 
ATOM      5  C   UNL d   1      32.707  15.908 -22.731  0.00  0.00     0.058 A 
ATOM      6  C   UNL d   1      32.031  15.515 -23.001  0.00  0.00     0.013 A 
ATOM      7 CL   UNL d   1      33.241  15.513 -22.240  0.00  0.00    -0.082 Cl
ENDROOT
BRANCH   1   8
ATOM      8  C   UNL d   1      32.455  17.866 -23.663  0.00  0.00     0.198 C 
ATOM      9  O   UNL d   1      32.264  18.116 -24.428  0.00  0.00    -0.286 OA
BRANCH   8  10
ATOM     10  C   UNL d   1      32.783  18.396 -23.126  0.00  0.00     0.043 C 
BRANCH  10  11
ATOM     11  C   UNL d   1      32.615  19.202 -23.184  0.00  0.00     0.010 C 
BRANCH  11  12
ATOM     12  C   UNL d   1      32.758  19.706 -22.538  0.00  0.00     0.030 A 
ATOM     13  S   UNL d   1      32.434  20.461 -22.438  0.00  0.00    -0.086 SA
ATOM     14  C   UNL d   1      32.729  20.759 -21.717  0.00  0.00     0.035 A 
ATOM     15  C   UNL d   1      33.226  20.190 -21.387  0.00  0.00     0.007 A 
ATOM     16  C   UNL d   1      33.241  19.542 -21.898  0.00  0.00     0.007 A 
ENDBRANCH  11  12
ENDBRANCH  10  11
ENDBRANCH   8  10
ENDBRANCH   1   8
BRANCH   2  17
ATOM     17  O   UNL d   1      31.104  17.081 -24.202  0.00  0.00    -0.259 OA
BRANCH  17  18
ATOM     18  C   UNL d   1      30.556  16.646 -24.644  0.00  0.00     0.378 C 
ATOM     19  N   UNL d   1      29.759  16.858 -24.636  0.00  0.00    -0.247 N 
ATOM     20  C   UNL d   1      29.214  16.426 -25.076  0.00  0.00     0.112 A 
ATOM     21  C   UNL d   1      29.506  17.510 -24.183  0.00  0.00     0.112 A 
ATOM     22  C   UNL d   1      28.408  16.645 -25.064  0.00  0.00     0.142 A 
ATOM     23  O   UNL d   1      28.163  17.295 -24.611  0.00  0.00    -0.300 OA
ATOM     24  C   UNL d   1      28.714  17.726 -24.171  0.00  0.00     0.142 A 
ATOM     25  O   UNL d   1      30.800  15.996 -25.097  0.00  0.00    -0.237 OA
ENDBRANCH  17  18
ENDBRANCH   2  17
TORSDOF 6
ENDMDL
MODEL 3
REMARK VINA RESULT:      -1.1      1.351      1.879
REMARK  6 active torsions:
REMARK  status: ('A' for Active; 'I' for Inactive)
REMARK       I    between atoms: N_3  and  C_1 
REMARK    1  A    between atoms: O_5  and  C_1 
REMARK    2  A    between atoms: C_6  and  C_2 
REMARK    3  A    between atoms: C_4  and  O_5 
REMARK    4  A    between atoms: C_7  and  C_6 
REMARK    5  A    between atoms: C_9  and  C_7 
REMARK    6  A    between atoms: C_8  and  C_9 
ROOT
ATOM      1  C   UNL d   1      33.144  21.586 -22.823  0.00  0.00     0.063 A 
ATOM      2  C   UNL d   1      33.195  20.981 -23.396  0.00  0.00     0.108 A 
ATOM      3  C   UNL d   1      33.139  22.374 -23.065  0.00  0.00     0.017 A 
ATOM      4  C   UNL d   1      33.240  21.179 -24.191  0.00  0.00     0.026 A 
ATOM      5  C   UNL d   1      33.184  22.563 -23.863  0.00  0.00     0.058 A 
ATOM      6  C   UNL d   1      33.235  21.964 -24.431  0.00  0.00     0.013 A 
ATOM      7 CL   UNL d   1      33.179  23.354 -24.103  0.00  0.00    -0.082 Cl
ENDROOT
BRANCH   1   8
ATOM      8  C   UNL d   1      33.098  21.394 -22.022  0.00  0.00     0.198 C 
ATOM      9  O   UNL d   1      32.975  20.608 -21.795  0.00  0.00    -0.286 OA
BRANCH   8  10
ATOM     10  C   UNL d   1      33.175  21.981 -21.451  0.00  0.00     0.043 C 
BRANCH  10  11
ATOM     11  C   UNL d   1      33.043  21.806 -20.656  0.00  0.00     0.010 C 
BRANCH  11  12
ATOM     12  C   UNL d   1      32.988  22.419 -20.096  0.00  0.00     0.030 A 
ATOM     13  S   UNL d   1      33.239  22.373 -19.308  0.00  0.00    -0.086 SA
ATOM     14  C   UNL d   1      33.076  23.113 -18.958  0.00  0.00     0.035 A 
ATOM     15  C   UNL d   1      32.732  23.598 -19.529  0.00  0.00     0.007 A 
ATOM     16  C   UNL d   1      32.680  23.165 -20.229  0.00  0.00     0.007 A 
ENDBRANCH  11  12
ENDBRANCH  10  11
ENDBRANCH   8  10
ENDBRANCH   1   8
BRANCH   2  17
ATOM     17  O   UNL d   1      33.200  20.196 -23.156  0.00  0.00    -0.259 OA
BRANCH  17  18
ATOM     18  C   UNL d   1      33.043  19.600 -23.708  0.00  0.00     0.378 C 
ATOM     19  N   UNL d   1      33.025  18.811 -23.469  0.00  0.00    -0.247 N 
ATOM     20  C   UNL d   1      32.868  18.218 -24.018  0.00  0.00     0.112 A 
ATOM     21  C   UNL d   1      33.166  18.614 -22.671  0.00  0.00     0.112 A 
ATOM     22  C   UNL d   1      32.851  17.420 -23.770  0.00  0.00     0.142 A 
ATOM     23  O   UNL d   1      32.993  17.232 -22.974  0.00  0.00    -0.300 OA
ATOM     24  C   UNL d   1      33.150  17.830 -22.427  0.00  0.00     0.142 A 
ATOM     25  O   UNL d   1      32.901  19.788 -24.503  0.00  0.00    -0.237 OA
ENDBRANCH  17  18
ENDBRANCH   2  17
TORSDOF 6
ENDMDL
