MODEL 1
REMARK VINA RESULT:      -0.6      0.000      0.000
REMARK  1 active torsions:
REMARK  status: ('A' for Active; 'I' for Inactive)
REMARK       I    between atoms: N_2  and  C_1 
REMARK    1  A    between atoms: C_5  and  N_2 
ROOT
ATOM      1  C   UNL d   1      46.633 -19.366  43.026  0.00  0.00     0.100 A 
ATOM      2  C   UNL d   1      46.641 -18.991  41.415  0.00  0.00     0.058 A 
ATOM      3 CL   UNL d   1      46.645 -18.806  40.614  0.00  0.00    -0.082 Cl
ATOM      4  C   UNL d   1      46.629 -18.573  42.781  0.00  0.00     0.021 A 
ATOM      5  C   UNL d   1      46.641 -19.969  42.463  0.00  0.00     0.021 A 
ATOM      6  C   UNL d   1      46.633 -18.388  41.978  0.00  0.00     0.013 A 
ATOM      7  C   UNL d   1      46.645 -19.779  41.655  0.00  0.00     0.013 A 
ENDROOT
BRANCH   1   8
ATOM      8  N   UNL d   1      46.628 -19.548  43.831  0.00  0.00    -0.056 NA
ATOM      9  C   UNL d   1      46.025 -20.008  44.150  0.00  0.00     0.787 C 
ATOM     10  N   UNL d   1      46.017 -20.191  44.952  0.00  0.00     0.064 N 
ATOM     11  N   UNL d   1      45.424 -20.285  43.657  0.00  0.00     0.064 N 
ENDBRANCH   1   8
TORSDOF 1
ENDMDL
MODEL 2
REMARK VINA RESULT:      -0.0      2.030      2.834
REMARK  1 active torsions:
REMARK  status: ('A' for Active; 'I' for Inactive)
REMARK       I    between atoms: N_2  and  C_1 
REMARK    1  A    between atoms: C_5  and  N_2 
ROOT
ATOM      1  C   UNL d   1      46.628 -19.073  42.758  0.00  0.00     0.100 A 
ATOM      2  C   UNL d   1      46.600 -19.876  44.204  0.00  0.00     0.058 A 
ATOM      3 CL   UNL d   1      46.585 -20.274  44.923  0.00  0.00    -0.082 Cl
ATOM      4  C   UNL d   1      46.604 -19.903  42.775  0.00  0.00     0.021 A 
ATOM      5  C   UNL d   1      46.638 -18.648  43.465  0.00  0.00     0.021 A 
ATOM      6  C   UNL d   1      46.590 -20.301  43.496  0.00  0.00     0.013 A 
ATOM      7  C   UNL d   1      46.623 -19.053  44.189  0.00  0.00     0.013 A 
ENDROOT
BRANCH   1   8
ATOM      8  N   UNL d   1      46.642 -18.677  42.033  0.00  0.00    -0.056 NA
ATOM      9  C   UNL d   1      46.632 -19.102  41.328  0.00  0.00     0.787 C 
ATOM     10  N   UNL d   1      46.646 -18.711  40.605  0.00  0.00     0.064 N 
ATOM     11  N   UNL d   1      46.609 -19.926  41.352  0.00  0.00     0.064 N 
ENDBRANCH   1   8
TORSDOF 1
ENDMDL
MODEL 3
REMARK VINA RESULT:       1.1      7.405      7.823
REMARK  1 active torsions:
REMARK  status: ('A' for Active; 'I' for Inactive)
REMARK       I    between atoms: N_2  and  C_1 
REMARK    1  A    between atoms: C_5  and  N_2 
ROOT
ATOM      1  C   UNL d   1      44.543 -15.659  36.910  0.00  0.00     0.100 A 
ATOM      2  C   UNL d   1      42.892 -15.570  36.888  0.00  0.00     0.058 A 
ATOM      3 CL   UNL d   1      42.071 -15.524  36.878  0.00  0.00    -0.082 Cl
ATOM      4  C   UNL d   1      44.109 -16.079  36.340  0.00  0.00     0.021 A 
ATOM      5  C   UNL d   1      44.148 -15.196  37.467  0.00  0.00     0.021 A 
ATOM      6  C   UNL d   1      43.286 -16.033  36.330  0.00  0.00     0.013 A 
ATOM      7  C   UNL d   1      43.320 -15.152  37.454  0.00  0.00     0.013 A 
ENDROOT
BRANCH   1   8
ATOM      8  N   UNL d   1      45.367 -15.707  36.916  0.00  0.00    -0.056 NA
ATOM      9  C   UNL d   1      45.823 -15.028  36.827  0.00  0.00     0.787 C 
ATOM     10  N   UNL d   1      46.645 -15.072  36.833  0.00  0.00     0.064 N 
ATOM     11  N   UNL d   1      45.450 -14.299  36.731  0.00  0.00     0.064 N 
ENDBRANCH   1   8
TORSDOF 1
ENDMDL
