MODEL 1
REMARK VINA RESULT:      67.5      0.000      0.000
REMARK  8 active torsions:
REMARK  status: ('A' for Active; 'I' for Inactive)
REMARK    1  A    between atoms: S_10  and  C_3 
REMARK    2  A    between atoms: C_12  and  C_7 
REMARK    3  A    between atoms: C_15  and  S_10 
REMARK    4  A    between atoms: C_11  and  C_15 
REMARK       I    between atoms: N_16  and  C_11 
REMARK    5  A    between atoms: C_23  and  N_16 
REMARK    6  A    between atoms: O_24  and  C_17 
REMARK    7  A    between atoms: C_18  and  C_29 
REMARK    8  A    between atoms: C_29  and  C_23 
ROOT
ATOM      1  N   UNL d   1     -57.686 -99.113 -44.660  0.00  0.00    -0.186 N 
ATOM      2  N   UNL d   1     -57.907 -99.052 -45.444  0.00  0.00    -0.162 NA
ATOM      3  C   UNL d   1     -56.945 -99.180 -44.299  0.00  0.00     0.217 A 
ATOM      4  C   UNL d   1     -58.254 -99.114 -44.061  0.00  0.00     0.187 A 
ATOM      5  N   UNL d   1     -57.066 -99.221 -43.490  0.00  0.00    -0.120 NA
ATOM      6  N   UNL d   1     -57.876 -99.180 -43.342  0.00  0.00    -0.127 NA
ATOM      7  C   UNL d   1     -58.709 -98.991 -45.639  0.00  0.00     0.102 A 
ATOM      8  C   UNL d   1     -59.058 -99.052 -44.259  0.00  0.00     0.042 A 
ATOM      9  C   UNL d   1     -59.282 -98.992 -45.043  0.00  0.00     0.024 A 
ENDROOT
BRANCH   3  10
ATOM     10  S   UNL d   1     -56.207 -99.203 -44.667  0.00  0.00    -0.041 SA
BRANCH  10  11
ATOM     11  C   UNL d   1     -55.613 -99.675 -44.372  0.00  0.00     0.101 C 
BRANCH  11  12
ATOM     12  C   UNL d   1     -55.185-100.158 -44.873  0.00  0.00     0.286 C 
ATOM     13  O   UNL d   1     -55.197-100.042 -45.691  0.00  0.00    -0.265 OA
ATOM     14  N   UNL d   1     -54.730-100.774 -44.567  0.00  0.00    -0.206 NA
BRANCH  14  15
ATOM     15  C   UNL d   1     -54.713-100.897 -43.750  0.00  0.00     0.102 C 
BRANCH  15  16
ATOM     16  C   UNL d   1     -55.410-101.089 -43.348  0.00  0.00     0.021 C 
BRANCH  16  17
ATOM     17  C   UNL d   1     -55.374-101.525 -42.643  0.00  0.00     0.002 A 
ATOM     18  C   UNL d   1     -55.968-102.075 -42.460  0.00  0.00     0.002 A 
ATOM     19  C   UNL d   1     -55.932-102.511 -41.754  0.00  0.00     0.024 A 
ATOM     20  C   UNL d   1     -55.306-102.396 -41.240  0.00  0.00     0.094 A 
ATOM     21  C   UNL d   1     -54.711-101.851 -41.414  0.00  0.00     0.024 A 
ATOM     22  C   UNL d   1     -54.745-101.417 -42.114  0.00  0.00     0.002 A 
BRANCH  20  23
ATOM     23  O   UNL d   1     -55.251-102.823 -40.526  0.00  0.00    -0.328 OA
ATOM     24  C   UNL d   1     -55.363-102.442 -39.810  0.00  0.00     0.181 C 
ENDBRANCH  20  23
ENDBRANCH  16  17
ENDBRANCH  15  16
ENDBRANCH  14  15
ENDBRANCH  11  12
ENDBRANCH  10  11
ENDBRANCH   3  10
BRANCH   7  25
ATOM     25  C   UNL d   1     -58.937 -98.930 -46.429  0.00  0.00     0.022 A 
ATOM     26  C   UNL d   1     -59.723 -98.837 -46.617  0.00  0.00     0.022 A 
ATOM     27  C   UNL d   1     -59.956 -98.776 -47.396  0.00  0.00     0.099 A 
ATOM     28  N   UNL d   1     -59.394 -98.807 -47.999  0.00  0.00    -0.242 NA
ATOM     29  C   UNL d   1     -58.605 -98.900 -47.807  0.00  0.00     0.099 A 
ATOM     30  C   UNL d   1     -58.376 -98.962 -47.016  0.00  0.00     0.022 A 
ENDBRANCH   7  25
TORSDOF 8
ENDMDL
