MODEL 1
REMARK VINA RESULT:      42.7      0.000      0.000
REMARK  3 active torsions:
REMARK  status: ('A' for Active; 'I' for Inactive)
REMARK    1  A    between atoms: C_9  and  C_3 
REMARK    2  A    between atoms: N_10  and  C_9 
REMARK    3  A    between atoms: C_11  and  C_9 
ROOT
ATOM      1  C   UNL d   1      14.274  13.190  -1.940  0.00  0.00     0.075 C 
ENDROOT
BRANCH   1   2
ATOM      2  C   UNL d   1      14.439  13.997  -1.923  0.00  0.00     0.106 A 
ATOM      3  C   UNL d   1      14.555  14.459  -1.240  0.00  0.00     0.289 A 
ATOM      4  N   UNL d   1      14.706  15.231  -1.477  0.00  0.00    -0.169 N 
ATOM      5  O   UNL d   1      14.524  14.185  -0.462  0.00  0.00    -0.265 OA
ATOM      6  C   UNL d   1      14.685  15.252  -2.302  0.00  0.00     0.200 A 
ATOM      7  N   UNL d   1      14.870  15.989  -1.211  0.00  0.00    -0.141 NA
ATOM      8  S   UNL d   1      14.521  14.496  -2.577  0.00  0.00    -0.042 SA
ATOM      9  N   UNL d   1      14.836  16.026  -2.540  0.00  0.00    -0.200 NA
ATOM     10  C   UNL d   1      14.950  16.482  -1.865  0.00  0.00     0.184 A 
ATOM     11  C   UNL d   1      15.116  17.290  -1.840  0.00  0.00     0.044 C 
ENDBRANCH   1   2
BRANCH   1  12
ATOM     12  N   UNL d   1      14.487  12.721  -1.299  0.00  0.00    -0.300 N 
ATOM     13  C   UNL d   1      13.922  12.479  -0.762  0.00  0.00     0.107 A 
ATOM     14  C   UNL d   1      14.146  12.005  -0.116  0.00  0.00     0.142 A 
ATOM     15  O   UNL d   1      14.932  11.779  -0.016  0.00  0.00    -0.300 OA
ATOM     16  C   UNL d   1      15.490  12.033  -0.569  0.00  0.00     0.142 A 
ATOM     17  C   UNL d   1      15.272  12.502  -1.210  0.00  0.00     0.107 A 
ENDBRANCH   1  12
BRANCH   1  18
ATOM     18  C   UNL d   1      13.900  12.861  -2.591  0.00  0.00     0.017 A 
ATOM     19  C   UNL d   1      13.827  13.299  -3.286  0.00  0.00     0.002 A 
ATOM     20  C   UNL d   1      13.448  12.968  -3.947  0.00  0.00     0.000 A 
ATOM     21  C   UNL d   1      13.154  12.213  -3.900  0.00  0.00     0.000 A 
ATOM     22  C   UNL d   1      13.232  11.780  -3.198  0.00  0.00     0.000 A 
ATOM     23  C   UNL d   1      12.769  11.865  -4.561  0.00  0.00     0.000 C 
ATOM     24  C   UNL d   1      13.601  12.104  -2.555  0.00  0.00     0.002 A 
ENDBRANCH   1  18
TORSDOF 3
ENDMDL
MODEL 2
REMARK VINA RESULT:      42.8      1.344      3.387
REMARK  3 active torsions:
REMARK  status: ('A' for Active; 'I' for Inactive)
REMARK    1  A    between atoms: C_9  and  C_3 
REMARK    2  A    between atoms: N_10  and  C_9 
REMARK    3  A    between atoms: C_11  and  C_9 
ROOT
ATOM      1  C   UNL d   1      14.612  13.359  -1.751  0.00  0.00     0.075 C 
ENDROOT
BRANCH   1   2
ATOM      2  C   UNL d   1      14.248  13.066  -2.430  0.00  0.00     0.106 A 
ATOM      3  C   UNL d   1      14.472  12.383  -2.850  0.00  0.00     0.289 A 
ATOM      4  N   UNL d   1      13.961  12.297  -3.488  0.00  0.00    -0.169 N 
ATOM      5  O   UNL d   1      15.099  11.881  -2.656  0.00  0.00    -0.265 OA
ATOM      6  C   UNL d   1      13.422  12.921  -3.467  0.00  0.00     0.200 A 
ATOM      7  N   UNL d   1      13.780  11.831  -4.137  0.00  0.00    -0.141 NA
ATOM      8  S   UNL d   1      13.597  13.394  -2.818  0.00  0.00    -0.042 SA
ATOM      9  N   UNL d   1      12.910  12.835  -4.106  0.00  0.00    -0.200 NA
ATOM     10  C   UNL d   1      13.132  12.161  -4.521  0.00  0.00     0.184 A 
ATOM     11  C   UNL d   1      12.772  11.861  -5.201  0.00  0.00     0.044 C 
ENDBRANCH   1   2
BRANCH   1  12
ATOM     12  N   UNL d   1      14.868  12.833  -1.172  0.00  0.00    -0.300 N 
ATOM     13  C   UNL d   1      14.327  12.475  -0.676  0.00  0.00     0.107 A 
ATOM     14  C   UNL d   1      14.593  11.945  -0.093  0.00  0.00     0.142 A 
ATOM     15  O   UNL d   1      15.397  11.779  -0.014  0.00  0.00    -0.300 OA
ATOM     16  C   UNL d   1      15.929  12.150  -0.524  0.00  0.00     0.142 A 
ATOM     17  C   UNL d   1      15.670  12.677  -1.103  0.00  0.00     0.107 A 
ENDBRANCH   1  12
BRANCH   1  18
ATOM     18  C   UNL d   1      14.717  14.165  -1.656  0.00  0.00     0.017 A 
ATOM     19  C   UNL d   1      15.058  14.456  -0.963  0.00  0.00     0.002 A 
ATOM     20  C   UNL d   1      15.165  15.274  -0.866  0.00  0.00     0.000 A 
ATOM     21  C   UNL d   1      14.932  15.780  -1.456  0.00  0.00     0.000 A 
ATOM     22  C   UNL d   1      14.591  15.479  -2.149  0.00  0.00     0.000 A 
ATOM     23  C   UNL d   1      15.035  16.609  -1.371  0.00  0.00     0.000 C 
ATOM     24  C   UNL d   1      14.487  14.682  -2.243  0.00  0.00     0.002 A 
ENDBRANCH   1  18
TORSDOF 3
ENDMDL
