MODEL 1
REMARK VINA RESULT:      -9.6      0.000      0.000
REMARK  4 active torsions:
REMARK  status: ('A' for Active; 'I' for Inactive)
REMARK    1  A    between atoms: C_5  and  C_1 
REMARK    2  A    between atoms: O_9  and  C_5 
REMARK    3  A    between atoms: C_18  and  O_9 
REMARK       I    between atoms: C_11  and  N_14 
REMARK    4  A    between atoms: N_14  and  C_20 
ROOT
ATOM      1  C   UNL d   1      51.808  33.717  52.874  0.00  0.00     0.127 A 
ATOM      2  C   UNL d   1      52.399  34.125  53.271  0.00  0.00     0.305 A 
ATOM      3  O   UNL d   1      53.040  33.710  53.581  0.00  0.00    -0.272 OA
ATOM      4  C   UNL d   1      51.848  32.891  52.782  0.00  0.00     0.013 A 
ATOM      5  C   UNL d   1      52.493  32.480  53.096  0.00  0.00     0.024 A 
ATOM      6  C   UNL d   1      53.092  32.884  53.496  0.00  0.00     0.110 A 
ATOM      7  C   UNL d   1      53.737  32.478  53.810  0.00  0.00     0.058 A 
ATOM      8  C   UNL d   1      53.785  31.659  53.723  0.00  0.00     0.015 A 
ATOM      9  C   UNL d   1      52.547  31.656  53.011  0.00  0.00     0.009 A 
ATOM     10  O   UNL d   1      52.348  34.942  53.356  0.00  0.00    -0.259 OA
ATOM     11  C   UNL d   1      53.188  31.247  53.322  0.00  0.00     0.035 A 
ATOM     12 BR   UNL d   1      54.330  32.887  54.208  0.00  0.00    -0.047 Br
ATOM     13 BR   UNL d   1      53.236  30.430  53.236  0.00  0.00    -0.049 Br
ENDROOT
BRANCH   1  14
ATOM     14  C   UNL d   1      51.161  34.122  52.560  0.00  0.00     0.305 C 
ATOM     15  O   UNL d   1      51.253  34.546  51.861  0.00  0.00    -0.259 OA
BRANCH  14  16
ATOM     16  O   UNL d   1      50.426  34.106  52.938  0.00  0.00    -0.273 OA
BRANCH  16  17
ATOM     17  C   UNL d   1      49.785  34.508  52.617  0.00  0.00     0.103 A 
ATOM     18  C   UNL d   1      49.440  35.133  53.027  0.00  0.00     0.026 A 
ATOM     19  C   UNL d   1      48.803  35.537  52.713  0.00  0.00     0.021 A 
ATOM     20  C   UNL d   1      48.497  35.319  51.978  0.00  0.00     0.085 A 
ATOM     21  C   UNL d   1      48.836  34.691  51.556  0.00  0.00     0.021 A 
ATOM     22  C   UNL d   1      49.487  34.282  51.881  0.00  0.00     0.026 A 
BRANCH  20  23
ATOM     23  N   UNL d   1      47.853  35.721  51.652  0.00  0.00    -0.208 NA
ATOM     24  C   UNL d   1      47.126  35.711  52.048  0.00  0.00     0.279 C 
ATOM     25  O   UNL d   1      47.043  35.302  52.764  0.00  0.00    -0.265 OA
ATOM     26  C   UNL d   1      46.473  36.112  51.727  0.00  0.00     0.068 C 
ENDBRANCH  20  23
ENDBRANCH  16  17
ENDBRANCH  14  16
ENDBRANCH   1  14
TORSDOF 4
ENDMDL
MODEL 2
REMARK VINA RESULT:      -9.1      2.821      5.634
REMARK  4 active torsions:
REMARK  status: ('A' for Active; 'I' for Inactive)
REMARK    1  A    between atoms: C_5  and  C_1 
REMARK    2  A    between atoms: O_9  and  C_5 
REMARK    3  A    between atoms: C_18  and  O_9 
REMARK       I    between atoms: C_11  and  N_14 
REMARK    4  A    between atoms: N_14  and  C_20 
ROOT
ATOM      1  C   UNL d   1      49.391  34.812  52.302  0.00  0.00     0.127 A 
ATOM      2  C   UNL d   1      48.949  34.796  51.611  0.00  0.00     0.305 A 
ATOM      3  O   UNL d   1      48.213  35.167  51.592  0.00  0.00    -0.272 OA
ATOM      4  C   UNL d   1      49.106  35.197  52.981  0.00  0.00     0.013 A 
ATOM      5  C   UNL d   1      48.368  35.568  52.956  0.00  0.00     0.024 A 
ATOM      6  C   UNL d   1      47.917  35.556  52.265  0.00  0.00     0.110 A 
ATOM      7  C   UNL d   1      47.180  35.925  52.236  0.00  0.00     0.058 A 
ATOM      8  C   UNL d   1      46.890  36.309  52.906  0.00  0.00     0.015 A 
ATOM      9  C   UNL d   1      48.070  35.957  53.627  0.00  0.00     0.009 A 
ATOM     10  O   UNL d   1      49.241  34.411  50.944  0.00  0.00    -0.259 OA
ATOM     11  C   UNL d   1      47.336  36.326  53.604  0.00  0.00     0.035 A 
ATOM     12 BR   UNL d   1      46.736  35.909  51.543  0.00  0.00    -0.047 Br
ATOM     13 BR   UNL d   1      47.047  36.709  54.272  0.00  0.00    -0.049 Br
ENDROOT
BRANCH   1  14
ATOM     14  C   UNL d   1      50.129  34.443  52.332  0.00  0.00     0.305 C 
ATOM     15  O   UNL d   1      50.602  34.433  51.660  0.00  0.00    -0.259 OA
BRANCH  14  16
ATOM     16  O   UNL d   1      50.396  34.086  53.029  0.00  0.00    -0.273 OA
BRANCH  16  17
ATOM     17  C   UNL d   1      51.188  33.883  53.114  0.00  0.00     0.103 A 
ATOM     18  C   UNL d   1      51.752  34.467  53.252  0.00  0.00     0.026 A 
ATOM     19  C   UNL d   1      52.542  34.272  53.338  0.00  0.00     0.021 A 
ATOM     20  C   UNL d   1      52.781  33.484  53.286  0.00  0.00     0.085 A 
ATOM     21  C   UNL d   1      52.221  32.888  53.148  0.00  0.00     0.021 A 
ATOM     22  C   UNL d   1      51.416  33.092  53.061  0.00  0.00     0.026 A 
BRANCH  20  23
ATOM     23  N   UNL d   1      53.575  33.277  53.372  0.00  0.00    -0.208 NA
ATOM     24  C   UNL d   1      53.894  33.190  54.131  0.00  0.00     0.279 C 
ATOM     25  O   UNL d   1      53.420  33.309  54.801  0.00  0.00    -0.265 OA
ATOM     26  C   UNL d   1      54.692  32.982  54.225  0.00  0.00     0.068 C 
ENDBRANCH  20  23
ENDBRANCH  16  17
ENDBRANCH  14  16
ENDBRANCH   1  14
TORSDOF 4
ENDMDL
MODEL 3
REMARK VINA RESULT:      -7.4      3.009      5.923
REMARK  4 active torsions:
REMARK  status: ('A' for Active; 'I' for Inactive)
REMARK    1  A    between atoms: C_5  and  C_1 
REMARK    2  A    between atoms: O_9  and  C_5 
REMARK    3  A    between atoms: C_18  and  O_9 
REMARK       I    between atoms: C_11  and  N_14 
REMARK    4  A    between atoms: N_14  and  C_20 
ROOT
ATOM      1  C   UNL d   1      48.327  35.169  52.116  0.00  0.00     0.127 A 
ATOM      2  C   UNL d   1      47.880  35.257  51.433  0.00  0.00     0.305 A 
ATOM      3  O   UNL d   1      47.141  35.619  51.476  0.00  0.00    -0.272 OA
ATOM      4  C   UNL d   1      48.043  35.440  52.848  0.00  0.00     0.013 A 
ATOM      5  C   UNL d   1      47.301  35.802  52.886  0.00  0.00     0.024 A 
ATOM      6  C   UNL d   1      46.846  35.894  52.204  0.00  0.00     0.110 A 
ATOM      7  C   UNL d   1      46.104  36.255  52.236  0.00  0.00     0.058 A 
ATOM      8  C   UNL d   1      45.815  36.527  52.960  0.00  0.00     0.015 A 
ATOM      9  C   UNL d   1      47.004  36.078  53.611  0.00  0.00     0.009 A 
ATOM     10  O   UNL d   1      48.171  34.985  50.713  0.00  0.00    -0.259 OA
ATOM     11  C   UNL d   1      46.267  36.438  53.649  0.00  0.00     0.035 A 
ATOM     12 BR   UNL d   1      45.656  36.344  51.552  0.00  0.00    -0.047 Br
ATOM     13 BR   UNL d   1      45.978  36.709  54.371  0.00  0.00    -0.049 Br
ENDROOT
BRANCH   1  14
ATOM     14  C   UNL d   1      49.069  34.808  52.084  0.00  0.00     0.305 C 
ATOM     15  O   UNL d   1      49.303  34.429  51.393  0.00  0.00    -0.259 OA
BRANCH  14  16
ATOM     16  O   UNL d   1      49.576  34.824  52.737  0.00  0.00    -0.273 OA
BRANCH  16  17
ATOM     17  C   UNL d   1      50.257  34.364  52.744  0.00  0.00     0.103 A 
ATOM     18  C   UNL d   1      50.260  33.633  53.123  0.00  0.00     0.026 A 
ATOM     19  C   UNL d   1      50.934  33.171  53.134  0.00  0.00     0.021 A 
ATOM     20  C   UNL d   1      51.622  33.436  52.763  0.00  0.00     0.085 A 
ATOM     21  C   UNL d   1      51.631  34.170  52.378  0.00  0.00     0.021 A 
ATOM     22  C   UNL d   1      50.940  34.638  52.370  0.00  0.00     0.026 A 
BRANCH  20  23
ATOM     23  N   UNL d   1      52.308  32.976  52.769  0.00  0.00    -0.208 NA
ATOM     24  C   UNL d   1      52.760  32.929  53.461  0.00  0.00     0.279 C 
ATOM     25  O   UNL d   1      52.528  33.339  54.143  0.00  0.00    -0.265 OA
ATOM     26  C   UNL d   1      53.452  32.470  53.474  0.00  0.00     0.068 C 
ENDBRANCH  20  23
ENDBRANCH  16  17
ENDBRANCH  14  16
ENDBRANCH   1  14
TORSDOF 4
ENDMDL
MODEL 4
REMARK VINA RESULT:      -6.7      2.729      5.427
REMARK  4 active torsions:
REMARK  status: ('A' for Active; 'I' for Inactive)
REMARK    1  A    between atoms: C_5  and  C_1 
REMARK    2  A    between atoms: O_9  and  C_5 
REMARK    3  A    between atoms: C_18  and  O_9 
REMARK       I    between atoms: C_11  and  N_14 
REMARK    4  A    between atoms: N_14  and  C_20 
ROOT
ATOM      1  C   UNL d   1      51.744  33.516  52.973  0.00  0.00     0.127 A 
ATOM      2  C   UNL d   1      51.467  33.938  53.620  0.00  0.00     0.305 A 
ATOM      3  O   UNL d   1      50.774  34.379  53.550  0.00  0.00    -0.272 OA
ATOM      4  C   UNL d   1      51.334  33.528  52.249  0.00  0.00     0.013 A 
ATOM      5  C   UNL d   1      50.639  33.972  52.185  0.00  0.00     0.024 A 
ATOM      6  C   UNL d   1      50.355  34.399  52.832  0.00  0.00     0.110 A 
ATOM      7  C   UNL d   1      49.662  34.843  52.772  0.00  0.00     0.058 A 
ATOM      8  C   UNL d   1      49.249  34.860  52.058  0.00  0.00     0.015 A 
ATOM      9  C   UNL d   1      50.219  33.993  51.469  0.00  0.00     0.009 A 
ATOM     10  O   UNL d   1      51.881  33.919  54.331  0.00  0.00    -0.259 OA
ATOM     11  C   UNL d   1      49.528  34.434  51.404  0.00  0.00     0.035 A 
ATOM     12 BR   UNL d   1      49.385  35.266  53.421  0.00  0.00    -0.047 Br
ATOM     13 BR   UNL d   1      49.117  34.451  50.692  0.00  0.00    -0.049 Br
ENDROOT
BRANCH   1  14
ATOM     14  C   UNL d   1      52.437  33.072  53.031  0.00  0.00     0.305 C 
ATOM     15  O   UNL d   1      53.012  33.293  53.575  0.00  0.00    -0.259 OA
BRANCH  14  16
ATOM     16  O   UNL d   1      52.557  32.409  52.551  0.00  0.00    -0.273 OA
BRANCH  16  17
ATOM     17  C   UNL d   1      52.843  31.710  52.873  0.00  0.00     0.103 A 
ATOM     18  C   UNL d   1      52.437  31.003  52.757  0.00  0.00     0.026 A 
ATOM     19  C   UNL d   1      52.717  30.304  53.075  0.00  0.00     0.021 A 
ATOM     20  C   UNL d   1      53.413  30.300  53.518  0.00  0.00     0.085 A 
ATOM     21  C   UNL d   1      53.830  31.006  53.642  0.00  0.00     0.021 A 
ATOM     22  C   UNL d   1      53.540  31.717  53.315  0.00  0.00     0.026 A 
BRANCH  20  23
ATOM     23  N   UNL d   1      53.703  29.599  53.843  0.00  0.00    -0.208 NA
ATOM     24  C   UNL d   1      53.303  29.248  54.477  0.00  0.00     0.279 C 
ATOM     25  O   UNL d   1      52.616  29.596  54.784  0.00  0.00    -0.265 OA
ATOM     26  C   UNL d   1      53.589  28.543  54.810  0.00  0.00     0.068 C 
ENDBRANCH  20  23
ENDBRANCH  16  17
ENDBRANCH  14  16
ENDBRANCH   1  14
TORSDOF 4
ENDMDL
