MODEL 1
REMARK VINA RESULT:      -3.5      0.000      0.000
REMARK  5 active torsions:
REMARK  status: ('A' for Active; 'I' for Inactive)
REMARK    1  A    between atoms: C_5  and  C_18 
REMARK       I    between atoms: N_9  and  C_5 
REMARK    2  A    between atoms: S_12  and  C_6 
REMARK    3  A    between atoms: C_15  and  C_7 
REMARK    4  A    between atoms: C_10  and  N_9 
REMARK    5  A    between atoms: C_18  and  S_12 
ROOT
ATOM      1  C   UNL d   1      33.115  18.880 -22.617  0.00  0.00     0.099 C 
ENDROOT
BRANCH   1   2
ATOM      2  C   UNL d   1      32.799  18.298 -23.125  0.00  0.00     0.286 C 
ATOM      3  N   UNL d   1      32.273  17.746 -22.834  0.00  0.00    -0.207 NA
ATOM      4  O   UNL d   1      33.020  18.284 -23.910  0.00  0.00    -0.265 OA
BRANCH   3   5
ATOM      5  C   UNL d   1      31.968  17.180 -23.330  0.00  0.00     0.087 A 
ATOM      6  C   UNL d   1      31.184  17.235 -23.582  0.00  0.00     0.046 A 
ATOM      7  C   UNL d   1      30.871  16.663 -24.084  0.00  0.00     0.124 A 
ATOM      8  O   UNL d   1      30.093  16.706 -24.341  0.00  0.00    -0.301 OA
ATOM      9  C   UNL d   1      31.355  16.029 -24.336  0.00  0.00     0.123 A 
ATOM     10  C   UNL d   1      29.790  16.123 -24.848  0.00  0.00     0.149 A 
ATOM     11  C   UNL d   1      30.273  15.496 -25.095  0.00  0.00     0.149 A 
ATOM     12  O   UNL d   1      31.055  15.453 -24.837  0.00  0.00    -0.301 OA
ATOM     13  C   UNL d   1      32.136  15.992 -24.073  0.00  0.00     0.028 A 
ATOM     14  C   UNL d   1      32.434  16.558 -23.580  0.00  0.00     0.021 A 
ENDBRANCH   3   5
ENDBRANCH   1   2
BRANCH   1  15
ATOM     15  S   UNL d   1      33.240  19.646 -22.892  0.00  0.00    -0.061 SA
BRANCH  15  16
ATOM     16  C   UNL d   1      33.123  20.283 -22.396  0.00  0.00     0.133 A 
ATOM     17  N   UNL d   1      32.940  20.161 -21.603  0.00  0.00    -0.141 NA
ATOM     18  N   UNL d   1      32.822  20.802 -21.099  0.00  0.00    -0.148 NA
ATOM     19  C   UNL d   1      32.888  21.572 -21.393  0.00  0.00     0.103 A 
ATOM     20  C   UNL d   1      33.071  21.701 -22.181  0.00  0.00     0.023 A 
ATOM     21  C   UNL d   1      33.189  21.065 -22.687  0.00  0.00     0.029 A 
BRANCH  19  22
ATOM     22  C   UNL d   1      32.770  22.214 -20.889  0.00  0.00     0.019 A 
ATOM     23  C   UNL d   1      33.238  22.300 -20.208  0.00  0.00     0.002 A 
ATOM     24  C   UNL d   1      33.119  22.945 -19.701  0.00  0.00     0.000 A 
ATOM     25  C   UNL d   1      32.532  23.507 -19.872  0.00  0.00     0.000 A 
ATOM     26  C   UNL d   1      32.072  23.421 -20.541  0.00  0.00     0.000 A 
ATOM     27  C   UNL d   1      32.182  22.780 -21.055  0.00  0.00     0.002 A 
ENDBRANCH  19  22
ENDBRANCH  15  16
ENDBRANCH   1  15
TORSDOF 5
ENDMDL
MODEL 2
REMARK VINA RESULT:      -2.4      2.055      6.571
REMARK  5 active torsions:
REMARK  status: ('A' for Active; 'I' for Inactive)
REMARK    1  A    between atoms: C_5  and  C_18 
REMARK       I    between atoms: N_9  and  C_5 
REMARK    2  A    between atoms: S_12  and  C_6 
REMARK    3  A    between atoms: C_15  and  C_7 
REMARK    4  A    between atoms: C_10  and  N_9 
REMARK    5  A    between atoms: C_18  and  S_12 
ROOT
ATOM      1  C   UNL d   1      32.371  20.195 -22.710  0.00  0.00     0.099 C 
ENDROOT
BRANCH   1   2
ATOM      2  C   UNL d   1      32.621  20.864 -22.279  0.00  0.00     0.286 C 
ATOM      3  N   UNL d   1      32.245  21.063 -21.583  0.00  0.00    -0.207 NA
ATOM      4  O   UNL d   1      33.241  21.315 -22.557  0.00  0.00    -0.265 OA
BRANCH   3   5
ATOM      5  C   UNL d   1      32.490  21.714 -21.165  0.00  0.00     0.087 A 
ATOM      6  C   UNL d   1      32.482  21.699 -20.340  0.00  0.00     0.046 A 
ATOM      7  C   UNL d   1      32.730  22.358 -19.913  0.00  0.00     0.124 A 
ATOM      8  O   UNL d   1      32.728  22.355 -19.093  0.00  0.00    -0.301 OA
ATOM      9  C   UNL d   1      32.989  23.040 -20.323  0.00  0.00     0.123 A 
ATOM     10  C   UNL d   1      32.980  23.026 -18.674  0.00  0.00     0.149 A 
ATOM     11  C   UNL d   1      33.235  23.700 -19.085  0.00  0.00     0.149 A 
ATOM     12  O   UNL d   1      33.238  23.702 -19.910  0.00  0.00    -0.301 OA
ATOM     13  C   UNL d   1      32.989  23.035 -21.148  0.00  0.00     0.028 A 
ATOM     14  C   UNL d   1      32.743  22.384 -21.558  0.00  0.00     0.021 A 
ENDBRANCH   3   5
ENDBRANCH   1   2
BRANCH   1  15
ATOM     15  S   UNL d   1      32.899  19.585 -22.872  0.00  0.00    -0.061 SA
BRANCH  15  16
ATOM     16  C   UNL d   1      32.638  18.903 -23.237  0.00  0.00     0.133 A 
ATOM     17  N   UNL d   1      32.232  18.946 -23.951  0.00  0.00    -0.141 NA
ATOM     18  N   UNL d   1      31.967  18.260 -24.322  0.00  0.00    -0.148 NA
ATOM     19  C   UNL d   1      32.111  17.524 -23.974  0.00  0.00     0.103 A 
ATOM     20  C   UNL d   1      32.514  17.473 -23.262  0.00  0.00     0.023 A 
ATOM     21  C   UNL d   1      32.780  18.155 -22.890  0.00  0.00     0.029 A 
BRANCH  19  22
ATOM     22  C   UNL d   1      31.845  16.837 -24.345  0.00  0.00     0.019 A 
ATOM     23  C   UNL d   1      31.036  16.650 -24.346  0.00  0.00     0.002 A 
ATOM     24  C   UNL d   1      30.770  15.959 -24.719  0.00  0.00     0.000 A 
ATOM     25  C   UNL d   1      31.311  15.453 -25.094  0.00  0.00     0.000 A 
ATOM     26  C   UNL d   1      32.106  15.637 -25.093  0.00  0.00     0.000 A 
ATOM     27  C   UNL d   1      32.384  16.325 -24.723  0.00  0.00     0.002 A 
ENDBRANCH  19  22
ENDBRANCH  15  16
ENDBRANCH   1  15
TORSDOF 5
ENDMDL
