MODEL 1
REMARK VINA RESULT:      -2.9      0.000      0.000
REMARK  4 active torsions:
REMARK  status: ('A' for Active; 'I' for Inactive)
REMARK    1  A    between atoms: C_9  and  C_3 
REMARK    2  A    between atoms: C_6  and  C_10 
REMARK    3  A    between atoms: S_7  and  C_9 
REMARK    4  A    between atoms: C_10  and  S_7 
ROOT
ATOM      1  N   UNL d   1      32.474  20.851 -21.233  0.00  0.00    -0.218 NA
ATOM      2  N   UNL d   1      33.227  21.372 -22.186  0.00  0.00    -0.218 NA
ATOM      3  C   UNL d   1      32.939  20.659 -21.883  0.00  0.00     0.206 A 
ATOM      4  C   UNL d   1      32.473  21.653 -21.137  0.00  0.00     0.101 A 
ATOM      5  C   UNL d   1      32.943  21.978 -21.732  0.00  0.00     0.101 A 
ATOM      6  C   UNL d   1      32.124  22.156 -20.607  0.00  0.00     0.021 A 
ATOM      7  C   UNL d   1      33.047  22.794 -21.775  0.00  0.00     0.021 A 
ATOM      8  C   UNL d   1      32.211  22.963 -20.629  0.00  0.00     0.002 A 
ATOM      9  C   UNL d   1      32.682  23.288 -21.224  0.00  0.00     0.002 A 
ENDROOT
BRANCH   3  10
ATOM     10  C   UNL d   1      33.090  19.903 -22.177  0.00  0.00    -0.027 C 
BRANCH  10  11
ATOM     11  S   UNL d   1      33.241  19.147 -22.470  0.00  0.00    -0.041 SA
BRANCH  11  12
ATOM     12  C   UNL d   1      32.671  18.758 -22.923  0.00  0.00     0.043 C 
BRANCH  12  13
ATOM     13  C   UNL d   1      32.854  18.043 -23.293  0.00  0.00     0.007 C 
ATOM     14  C   UNL d   1      32.669  17.934 -24.093  0.00  0.00     0.001 C 
ATOM     15  C   UNL d   1      33.220  17.440 -22.864  0.00  0.00     0.001 C 
ENDBRANCH  12  13
ENDBRANCH  11  12
ENDBRANCH  10  11
ENDBRANCH   3  10
TORSDOF 4
ENDMDL
MODEL 2
REMARK VINA RESULT:      -2.7      1.261      4.383
REMARK  4 active torsions:
REMARK  status: ('A' for Active; 'I' for Inactive)
REMARK    1  A    between atoms: C_9  and  C_3 
REMARK    2  A    between atoms: C_6  and  C_10 
REMARK    3  A    between atoms: S_7  and  C_9 
REMARK    4  A    between atoms: C_10  and  S_7 
ROOT
ATOM      1  N   UNL d   1      33.059  18.463 -22.468  0.00  0.00    -0.218 NA
ATOM      2  N   UNL d   1      32.786  19.225 -23.512  0.00  0.00    -0.218 NA
ATOM      3  C   UNL d   1      32.984  19.245 -22.710  0.00  0.00     0.206 A 
ATOM      4  C   UNL d   1      32.914  17.977 -23.096  0.00  0.00     0.101 A 
ATOM      5  C   UNL d   1      32.743  18.452 -23.748  0.00  0.00     0.101 A 
ATOM      6  C   UNL d   1      32.905  17.173 -23.195  0.00  0.00     0.021 A 
ATOM      7  C   UNL d   1      32.570  18.107 -24.476  0.00  0.00     0.021 A 
ATOM      8  C   UNL d   1      32.738  16.810 -23.901  0.00  0.00     0.002 A 
ATOM      9  C   UNL d   1      32.568  17.285 -24.553  0.00  0.00     0.002 A 
ENDROOT
BRANCH   3  10
ATOM     10  C   UNL d   1      33.085  19.919 -22.245  0.00  0.00    -0.027 C 
BRANCH  10  11
ATOM     11  S   UNL d   1      33.186  20.592 -21.779  0.00  0.00    -0.041 SA
BRANCH  11  12
ATOM     12  C   UNL d   1      32.623  20.789 -21.208  0.00  0.00     0.043 C 
BRANCH  12  13
ATOM     13  C   UNL d   1      32.686  21.499 -20.794  0.00  0.00     0.007 C 
ATOM     14  C   UNL d   1      32.192  22.136 -20.990  0.00  0.00     0.001 C 
ATOM     15  C   UNL d   1      33.239  21.574 -20.186  0.00  0.00     0.001 C 
ENDBRANCH  12  13
ENDBRANCH  11  12
ENDBRANCH  10  11
ENDBRANCH   3  10
TORSDOF 4
ENDMDL
MODEL 3
REMARK VINA RESULT:      -2.6      1.083      4.288
REMARK  4 active torsions:
REMARK  status: ('A' for Active; 'I' for Inactive)
REMARK    1  A    between atoms: C_9  and  C_3 
REMARK    2  A    between atoms: C_6  and  C_10 
REMARK    3  A    between atoms: S_7  and  C_9 
REMARK    4  A    between atoms: C_10  and  S_7 
ROOT
ATOM      1  N   UNL d   1      33.210  20.000 -23.017  0.00  0.00    -0.218 NA
ATOM      2  N   UNL d   1      33.229  19.270 -21.916  0.00  0.00    -0.218 NA
ATOM      3  C   UNL d   1      33.216  20.047 -22.196  0.00  0.00     0.206 A 
ATOM      4  C   UNL d   1      33.219  19.223 -23.237  0.00  0.00     0.101 A 
ATOM      5  C   UNL d   1      33.230  18.767 -22.549  0.00  0.00     0.101 A 
ATOM      6  C   UNL d   1      33.218  18.840 -23.950  0.00  0.00     0.021 A 
ATOM      7  C   UNL d   1      33.241  17.944 -22.600  0.00  0.00     0.021 A 
ATOM      8  C   UNL d   1      33.229  18.032 -24.027  0.00  0.00     0.002 A 
ATOM      9  C   UNL d   1      33.240  17.576 -23.339  0.00  0.00     0.002 A 
ENDROOT
BRANCH   3  10
ATOM     10  C   UNL d   1      33.210  20.734 -21.740  0.00  0.00    -0.027 C 
BRANCH  10  11
ATOM     11  S   UNL d   1      33.205  21.422 -21.284  0.00  0.00    -0.041 SA
BRANCH  11  12
ATOM     12  C   UNL d   1      32.497  21.696 -20.959  0.00  0.00     0.043 C 
BRANCH  12  13
ATOM     13  C   UNL d   1      32.468  22.438 -20.598  0.00  0.00     0.007 C 
ATOM     14  C   UNL d   1      32.826  22.550 -19.859  0.00  0.00     0.001 C 
ATOM     15  C   UNL d   1      32.085  23.064 -20.974  0.00  0.00     0.001 C 
ENDBRANCH  12  13
ENDBRANCH  11  12
ENDBRANCH  10  11
ENDBRANCH   3  10
TORSDOF 4
ENDMDL
MODEL 4
REMARK VINA RESULT:      -2.5      2.568      4.817
REMARK  4 active torsions:
REMARK  status: ('A' for Active; 'I' for Inactive)
REMARK    1  A    between atoms: C_9  and  C_3 
REMARK    2  A    between atoms: C_6  and  C_10 
REMARK    3  A    between atoms: S_7  and  C_9 
REMARK    4  A    between atoms: C_10  and  S_7 
ROOT
ATOM      1  N   UNL d   1      32.997  21.451 -19.894  0.00  0.00    -0.218 NA
ATOM      2  N   UNL d   1      33.149  22.524 -20.649  0.00  0.00    -0.218 NA
ATOM      3  C   UNL d   1      33.052  22.271 -19.868  0.00  0.00     0.206 A 
ATOM      4  C   UNL d   1      33.058  21.206 -20.661  0.00  0.00     0.101 A 
ATOM      5  C   UNL d   1      33.152  21.876 -21.132  0.00  0.00     0.101 A 
ATOM      6  C   UNL d   1      33.043  20.481 -21.024  0.00  0.00     0.021 A 
ATOM      7  C   UNL d   1      33.230  21.798 -21.949  0.00  0.00     0.021 A 
ATOM      8  C   UNL d   1      33.118  20.379 -21.825  0.00  0.00     0.002 A 
ATOM      9  C   UNL d   1      33.212  21.049 -22.296  0.00  0.00     0.002 A 
ENDROOT
BRANCH   3  10
ATOM     10  C   UNL d   1      33.017  22.748 -19.196  0.00  0.00    -0.027 C 
BRANCH  10  11
ATOM     11  S   UNL d   1      32.983  23.226 -18.525  0.00  0.00    -0.041 SA
BRANCH  11  12
ATOM     12  C   UNL d   1      33.201  22.920 -17.789  0.00  0.00     0.043 C 
BRANCH  12  13
ATOM     13  C   UNL d   1      32.862  23.221 -17.100  0.00  0.00     0.007 C 
ATOM     14  C   UNL d   1      32.141  23.627 -17.139  0.00  0.00     0.001 C 
ATOM     15  C   UNL d   1      33.241  23.116 -16.375  0.00  0.00     0.001 C 
ENDBRANCH  12  13
ENDBRANCH  11  12
ENDBRANCH  10  11
ENDBRANCH   3  10
TORSDOF 4
ENDMDL
MODEL 5
REMARK VINA RESULT:      -2.2      3.578      5.709
REMARK  4 active torsions:
REMARK  status: ('A' for Active; 'I' for Inactive)
REMARK    1  A    between atoms: C_9  and  C_3 
REMARK    2  A    between atoms: C_6  and  C_10 
REMARK    3  A    between atoms: S_7  and  C_9 
REMARK    4  A    between atoms: C_10  and  S_7 
ROOT
ATOM      1  N   UNL d   1      30.527  16.286 -23.695  0.00  0.00    -0.218 NA
ATOM      2  N   UNL d   1      29.819  17.203 -24.329  0.00  0.00    -0.218 NA
ATOM      3  C   UNL d   1      30.590  16.968 -24.149  0.00  0.00     0.206 A 
ATOM      4  C   UNL d   1      29.746  16.106 -23.596  0.00  0.00     0.101 A 
ATOM      5  C   UNL d   1      29.304  16.679 -23.992  0.00  0.00     0.101 A 
ATOM      6  C   UNL d   1      29.349  15.514 -23.211  0.00  0.00     0.021 A 
ATOM      7  C   UNL d   1      28.481  16.639 -23.988  0.00  0.00     0.021 A 
ATOM      8  C   UNL d   1      28.540  15.454 -23.193  0.00  0.00     0.002 A 
ATOM      9  C   UNL d   1      28.098  16.026 -23.589  0.00  0.00     0.002 A 
ENDROOT
BRANCH   3  10
ATOM     10  C   UNL d   1      31.287  17.345 -24.382  0.00  0.00    -0.027 C 
BRANCH  10  11
ATOM     11  S   UNL d   1      31.983  17.721 -24.615  0.00  0.00    -0.041 SA
BRANCH  11  12
ATOM     12  C   UNL d   1      32.479  18.060 -24.048  0.00  0.00     0.043 C 
BRANCH  12  13
ATOM     13  C   UNL d   1      32.984  18.677 -24.258  0.00  0.00     0.007 C 
ATOM     14  C   UNL d   1      33.235  18.754 -25.044  0.00  0.00     0.001 C 
ATOM     15  C   UNL d   1      33.239  19.214 -23.685  0.00  0.00     0.001 C 
ENDBRANCH  12  13
ENDBRANCH  11  12
ENDBRANCH  10  11
ENDBRANCH   3  10
TORSDOF 4
ENDMDL
MODEL 6
REMARK VINA RESULT:      -2.0      2.978      4.280
REMARK  4 active torsions:
REMARK  status: ('A' for Active; 'I' for Inactive)
REMARK    1  A    between atoms: C_9  and  C_3 
REMARK    2  A    between atoms: C_6  and  C_10 
REMARK    3  A    between atoms: S_7  and  C_9 
REMARK    4  A    between atoms: C_10  and  S_7 
ROOT
ATOM      1  N   UNL d   1      32.329  23.578 -18.882  0.00  0.00    -0.218 NA
ATOM      2  N   UNL d   1      33.241  22.645 -18.676  0.00  0.00    -0.218 NA
ATOM      3  C   UNL d   1      32.883  23.104 -19.262  0.00  0.00     0.206 A 
ATOM      4  C   UNL d   1      32.343  23.419 -18.090  0.00  0.00     0.101 A 
ATOM      5  C   UNL d   1      32.913  22.836 -17.962  0.00  0.00     0.101 A 
ATOM      6  C   UNL d   1      31.935  23.702 -17.451  0.00  0.00     0.021 A 
ATOM      7  C   UNL d   1      33.053  22.558 -17.198  0.00  0.00     0.021 A 
ATOM      8  C   UNL d   1      32.055  23.445 -16.691  0.00  0.00     0.002 A 
ATOM      9  C   UNL d   1      32.624  22.862 -16.562  0.00  0.00     0.002 A 
ENDROOT
BRANCH   3  10
ATOM     10  C   UNL d   1      33.049  23.089 -20.070  0.00  0.00    -0.027 C 
BRANCH  10  11
ATOM     11  S   UNL d   1      33.216  23.074 -20.878  0.00  0.00    -0.041 SA
BRANCH  11  12
ATOM     12  C   UNL d   1      32.611  22.934 -21.422  0.00  0.00     0.043 C 
BRANCH  12  13
ATOM     13  C   UNL d   1      32.776  22.924 -22.230  0.00  0.00     0.007 C 
ATOM     14  C   UNL d   1      33.182  22.281 -22.559  0.00  0.00     0.001 C 
ATOM     15  C   UNL d   1      32.537  23.553 -22.707  0.00  0.00     0.001 C 
ENDBRANCH  12  13
ENDBRANCH  11  12
ENDBRANCH  10  11
ENDBRANCH   3  10
TORSDOF 4
ENDMDL
MODEL 7
REMARK VINA RESULT:      -2.0      3.082      5.586
REMARK  4 active torsions:
REMARK  status: ('A' for Active; 'I' for Inactive)
REMARK    1  A    between atoms: C_9  and  C_3 
REMARK    2  A    between atoms: C_6  and  C_10 
REMARK    3  A    between atoms: S_7  and  C_9 
REMARK    4  A    between atoms: C_10  and  S_7 
ROOT
ATOM      1  N   UNL d   1      30.404  17.608 -24.346  0.00  0.00    -0.218 NA
ATOM      2  N   UNL d   1      31.146  16.525 -24.196  0.00  0.00    -0.218 NA
ATOM      3  C   UNL d   1      31.168  17.351 -24.181  0.00  0.00     0.206 A 
ATOM      4  C   UNL d   1      29.928  16.966 -24.459  0.00  0.00     0.101 A 
ATOM      5  C   UNL d   1      30.391  16.289 -24.365  0.00  0.00     0.101 A 
ATOM      6  C   UNL d   1      29.143  16.871 -24.634  0.00  0.00     0.021 A 
ATOM      7  C   UNL d   1      30.052  15.543 -24.450  0.00  0.00     0.021 A 
ATOM      8  C   UNL d   1      28.786  16.147 -24.721  0.00  0.00     0.002 A 
ATOM      9  C   UNL d   1      29.250  15.471 -24.628  0.00  0.00     0.002 A 
ENDROOT
BRANCH   3  10
ATOM     10  C   UNL d   1      31.827  17.823 -24.029  0.00  0.00    -0.027 C 
BRANCH  10  11
ATOM     11  S   UNL d   1      32.486  18.295 -23.878  0.00  0.00    -0.041 SA
BRANCH  11  12
ATOM     12  C   UNL d   1      32.726  18.433 -23.099  0.00  0.00     0.043 C 
BRANCH  12  13
ATOM     13  C   UNL d   1      33.069  19.155 -22.895  0.00  0.00     0.007 C 
ATOM     14  C   UNL d   1      33.239  19.319 -22.101  0.00  0.00     0.001 C 
ATOM     15  C   UNL d   1      33.241  19.710 -23.480  0.00  0.00     0.001 C 
ENDBRANCH  12  13
ENDBRANCH  11  12
ENDBRANCH  10  11
ENDBRANCH   3  10
TORSDOF 4
ENDMDL
MODEL 8
REMARK VINA RESULT:      -1.7      3.870      5.087
REMARK  4 active torsions:
REMARK  status: ('A' for Active; 'I' for Inactive)
REMARK    1  A    between atoms: C_9  and  C_3 
REMARK    2  A    between atoms: C_6  and  C_10 
REMARK    3  A    between atoms: S_7  and  C_9 
REMARK    4  A    between atoms: C_10  and  S_7 
ROOT
ATOM      1  N   UNL d   1      31.120  17.686 -24.596  0.00  0.00    -0.218 NA
ATOM      2  N   UNL d   1      31.561  16.956 -23.588  0.00  0.00    -0.218 NA
ATOM      3  C   UNL d   1      30.944  17.031 -24.132  0.00  0.00     0.206 A 
ATOM      4  C   UNL d   1      31.819  18.006 -24.349  0.00  0.00     0.101 A 
ATOM      5  C   UNL d   1      32.095  17.550 -23.719  0.00  0.00     0.101 A 
ATOM      6  C   UNL d   1      32.263  18.640 -24.586  0.00  0.00     0.021 A 
ATOM      7  C   UNL d   1      32.805  17.745 -23.350  0.00  0.00     0.021 A 
ATOM      8  C   UNL d   1      32.965  18.852 -24.238  0.00  0.00     0.002 A 
ATOM      9  C   UNL d   1      33.241  18.396 -23.609  0.00  0.00     0.002 A 
ENDROOT
BRANCH   3  10
ATOM     10  C   UNL d   1      30.283  16.542 -24.196  0.00  0.00    -0.027 C 
BRANCH  10  11
ATOM     11  S   UNL d   1      29.621  16.053 -24.260  0.00  0.00    -0.041 SA
BRANCH  11  12
ATOM     12  C   UNL d   1      29.160  15.893 -23.593  0.00  0.00     0.043 C 
BRANCH  12  13
ATOM     13  C   UNL d   1      28.338  15.860 -23.658  0.00  0.00     0.007 C 
ATOM     14  C   UNL d   1      27.991  15.453 -24.290  0.00  0.00     0.001 C 
ATOM     15  C   UNL d   1      27.866  16.233 -23.094  0.00  0.00     0.001 C 
ENDBRANCH  12  13
ENDBRANCH  11  12
ENDBRANCH  10  11
ENDBRANCH   3  10
TORSDOF 4
ENDMDL
MODEL 9
REMARK VINA RESULT:      -0.8      1.814      2.247
REMARK  4 active torsions:
REMARK  status: ('A' for Active; 'I' for Inactive)
REMARK    1  A    between atoms: C_9  and  C_3 
REMARK    2  A    between atoms: C_6  and  C_10 
REMARK    3  A    between atoms: S_7  and  C_9 
REMARK    4  A    between atoms: C_10  and  S_7 
ROOT
ATOM      1  N   UNL d   1      33.199  21.240 -23.400  0.00  0.00    -0.218 NA
ATOM      2  N   UNL d   1      33.164  21.548 -24.684  0.00  0.00    -0.218 NA
ATOM      3  C   UNL d   1      33.195  20.914 -24.155  0.00  0.00     0.206 A 
ATOM      4  C   UNL d   1      33.171  22.045 -23.460  0.00  0.00     0.101 A 
ATOM      5  C   UNL d   1      33.149  22.237 -24.262  0.00  0.00     0.101 A 
ATOM      6  C   UNL d   1      33.161  22.650 -22.921  0.00  0.00     0.021 A 
ATOM      7  C   UNL d   1      33.118  23.027 -24.496  0.00  0.00     0.021 A 
ATOM      8  C   UNL d   1      33.131  23.434 -23.126  0.00  0.00     0.002 A 
ATOM      9  C   UNL d   1      33.109  23.626 -23.928  0.00  0.00     0.002 A 
ENDROOT
BRANCH   3  10
ATOM     10  C   UNL d   1      33.218  20.112 -24.347  0.00  0.00    -0.027 C 
BRANCH  10  11
ATOM     11  S   UNL d   1      33.241  19.310 -24.540  0.00  0.00    -0.041 SA
BRANCH  11  12
ATOM     12  C   UNL d   1      32.692  18.790 -24.208  0.00  0.00     0.043 C 
BRANCH  12  13
ATOM     13  C   UNL d   1      32.794  17.976 -24.289  0.00  0.00     0.007 C 
ATOM     14  C   UNL d   1      33.189  17.548 -23.699  0.00  0.00     0.001 C 
ATOM     15  C   UNL d   1      32.503  17.589 -24.958  0.00  0.00     0.001 C 
ENDBRANCH  12  13
ENDBRANCH  11  12
ENDBRANCH  10  11
ENDBRANCH   3  10
TORSDOF 4
ENDMDL
