MODEL 1
REMARK VINA RESULT:      -8.0      0.000      0.000
REMARK  6 active torsions:
REMARK  status: ('A' for Active; 'I' for Inactive)
REMARK    1  A    between atoms: C_11  and  C_2 
REMARK    2  A    between atoms: S_9  and  C_7 
REMARK    3  A    between atoms: C_13  and  S_9 
REMARK    4  A    between atoms: C_10  and  C_13 
REMARK    5  A    between atoms: O_18  and  C_10 
REMARK    6  A    between atoms: C_23  and  O_18 
ROOT
ATOM      1  N   UNL d   1     -48.134  13.946  22.836  0.00  0.00    -0.191 N 
ATOM      2  C   UNL d   1     -48.939  13.947  22.681  0.00  0.00     0.187 A 
ATOM      3  N   UNL d   1     -49.126  14.664  22.329  0.00  0.00    -0.127 NA
ATOM      4  C   UNL d   1     -47.811  14.656  22.586  0.00  0.00     0.187 A 
ATOM      5  N   UNL d   1     -47.636  13.369  23.186  0.00  0.00    -0.156 NA
ATOM      6  N   UNL d   1     -48.433  15.109  22.267  0.00  0.00    -0.127 NA
ATOM      7  C   UNL d   1     -46.829  13.518  23.276  0.00  0.00     0.131 A 
ATOM      8  C   UNL d   1     -47.005  14.805  22.676  0.00  0.00     0.043 A 
ATOM      9  C   UNL d   1     -46.514  14.237  23.021  0.00  0.00     0.031 A 
ENDROOT
BRANCH   7  10
ATOM     10  S   UNL d   1     -46.338  12.950  23.621  0.00  0.00    -0.061 SA
BRANCH  10  11
ATOM     11  C   UNL d   1     -45.912  12.433  23.143  0.00  0.00     0.094 C 
ATOM     12  C   UNL d   1     -45.653  12.677  22.407  0.00  0.00     0.013 C 
BRANCH  11  13
ATOM     13  C   UNL d   1     -45.749  11.678  23.405  0.00  0.00     0.306 C 
ATOM     14  O   UNL d   1     -46.356  11.199  23.695  0.00  0.00    -0.258 OA
BRANCH  13  15
ATOM     15  O   UNL d   1     -44.978  11.380  23.385  0.00  0.00    -0.271 OA
BRANCH  15  16
ATOM     16  C   UNL d   1     -44.836  10.601  23.557  0.00  0.00     0.126 C 
ATOM     17  C   UNL d   1     -44.071  10.326  23.526  0.00  0.00     0.029 C 
ENDBRANCH  15  16
ENDBRANCH  13  15
ENDBRANCH  11  13
ENDBRANCH  10  11
ENDBRANCH   7  10
BRANCH   2  18
ATOM     18  C   UNL d   1     -49.469  13.343  22.844  0.00  0.00     0.038 A 
ATOM     19  C   UNL d   1     -49.499  12.683  22.347  0.00  0.00     0.005 A 
ATOM     20  C   UNL d   1     -50.033  12.070  22.508  0.00  0.00     0.030 A 
ATOM     21  C   UNL d   1     -50.532  12.124  23.163  0.00  0.00     0.140 A 
ATOM     22  C   UNL d   1     -50.502  12.785  23.660  0.00  0.00     0.030 A 
ATOM     23  F   UNL d   1     -51.064  11.517  23.325  0.00  0.00    -0.204 F 
ATOM     24  C   UNL d   1     -49.966  13.392  23.493  0.00  0.00     0.005 A 
ENDBRANCH   2  18
TORSDOF 6
ENDMDL
MODEL 2
REMARK VINA RESULT:      -7.6      1.784      2.442
REMARK  6 active torsions:
REMARK  status: ('A' for Active; 'I' for Inactive)
REMARK    1  A    between atoms: C_11  and  C_2 
REMARK    2  A    between atoms: S_9  and  C_7 
REMARK    3  A    between atoms: C_13  and  S_9 
REMARK    4  A    between atoms: C_10  and  C_13 
REMARK    5  A    between atoms: O_18  and  C_10 
REMARK    6  A    between atoms: C_23  and  O_18 
ROOT
ATOM      1  N   UNL d   1     -48.606  12.208  23.285  0.00  0.00    -0.191 N 
ATOM      2  C   UNL d   1     -49.418  12.280  23.207  0.00  0.00     0.187 A 
ATOM      3  N   UNL d   1     -49.756  11.570  23.440  0.00  0.00    -0.127 NA
ATOM      4  C   UNL d   1     -48.428  11.459  23.566  0.00  0.00     0.187 A 
ATOM      5  N   UNL d   1     -47.982  12.748  23.132  0.00  0.00    -0.156 NA
ATOM      6  N   UNL d   1     -49.150  11.056  23.664  0.00  0.00    -0.127 NA
ATOM      7  C   UNL d   1     -47.199  12.524  23.263  0.00  0.00     0.131 A 
ATOM      8  C   UNL d   1     -47.644  11.235  23.698  0.00  0.00     0.043 A 
ATOM      9  C   UNL d   1     -47.031  11.767  23.546  0.00  0.00     0.031 A 
ENDROOT
BRANCH   7  10
ATOM     10  S   UNL d   1     -46.585  13.055  23.112  0.00  0.00    -0.061 SA
BRANCH  10  11
ATOM     11  C   UNL d   1     -46.196  13.037  22.386  0.00  0.00     0.094 C 
ATOM     12  C   UNL d   1     -46.591  12.775  21.719  0.00  0.00     0.013 C 
BRANCH  11  13
ATOM     13  C   UNL d   1     -45.419  13.279  22.334  0.00  0.00     0.306 C 
ATOM     14  O   UNL d   1     -45.183  13.993  22.676  0.00  0.00    -0.258 OA
BRANCH  13  15
ATOM     15  O   UNL d   1     -44.857  12.818  21.941  0.00  0.00    -0.271 OA
BRANCH  15  16
ATOM     16  C   UNL d   1     -44.101  13.091  21.841  0.00  0.00     0.126 C 
ATOM     17  C   UNL d   1     -43.554  12.610  21.478  0.00  0.00     0.029 C 
ENDBRANCH  15  16
ENDBRANCH  13  15
ENDBRANCH  11  13
ENDBRANCH  10  11
ENDBRANCH   7  10
BRANCH   2  18
ATOM     18  C   UNL d   1     -49.828  12.939  22.943  0.00  0.00     0.038 A 
ATOM     19  C   UNL d   1     -50.062  13.517  23.488  0.00  0.00     0.005 A 
ATOM     20  C   UNL d   1     -50.476  14.185  23.226  0.00  0.00     0.030 A 
ATOM     21  C   UNL d   1     -50.653  14.269  22.425  0.00  0.00     0.140 A 
ATOM     22  C   UNL d   1     -50.419  13.691  21.880  0.00  0.00     0.030 A 
ATOM     23  F   UNL d   1     -51.064  14.932  22.162  0.00  0.00    -0.204 F 
ATOM     24  C   UNL d   1     -50.005  13.027  22.149  0.00  0.00     0.005 A 
ENDBRANCH   2  18
TORSDOF 6
ENDMDL
MODEL 3
REMARK VINA RESULT:      -7.2      1.008      1.199
REMARK  6 active torsions:
REMARK  status: ('A' for Active; 'I' for Inactive)
REMARK    1  A    between atoms: C_11  and  C_2 
REMARK    2  A    between atoms: S_9  and  C_7 
REMARK    3  A    between atoms: C_13  and  S_9 
REMARK    4  A    between atoms: C_10  and  C_13 
REMARK    5  A    between atoms: O_18  and  C_10 
REMARK    6  A    between atoms: C_23  and  O_18 
ROOT
ATOM      1  N   UNL d   1     -48.395  14.262  22.703  0.00  0.00    -0.191 N 
ATOM      2  C   UNL d   1     -49.204  14.132  22.678  0.00  0.00     0.187 A 
ATOM      3  N   UNL d   1     -49.567  14.846  22.499  0.00  0.00    -0.127 NA
ATOM      4  C   UNL d   1     -48.244  15.050  22.542  0.00  0.00     0.187 A 
ATOM      5  N   UNL d   1     -47.754  13.743  22.857  0.00  0.00    -0.156 NA
ATOM      6  N   UNL d   1     -48.979  15.420  22.414  0.00  0.00    -0.127 NA
ATOM      7  C   UNL d   1     -46.979  14.029  22.847  0.00  0.00     0.131 A 
ATOM      8  C   UNL d   1     -47.470  15.335  22.532  0.00  0.00     0.043 A 
ATOM      9  C   UNL d   1     -46.838  14.825  22.684  0.00  0.00     0.031 A 
ENDROOT
BRANCH   7  10
ATOM     10  S   UNL d   1     -46.348  13.518  22.999  0.00  0.00    -0.061 SA
BRANCH  10  11
ATOM     11  C   UNL d   1     -46.000  13.101  22.380  0.00  0.00     0.094 C 
ATOM     12  C   UNL d   1     -46.395  13.023  21.668  0.00  0.00     0.013 C 
BRANCH  11  13
ATOM     13  C   UNL d   1     -45.263  12.765  22.479  0.00  0.00     0.306 C 
ATOM     14  O   UNL d   1     -45.150  12.170  23.040  0.00  0.00    -0.258 OA
BRANCH  13  15
ATOM     15  O   UNL d   1     -44.621  13.014  22.022  0.00  0.00    -0.271 OA
BRANCH  15  16
ATOM     16  C   UNL d   1     -43.997  12.514  21.888  0.00  0.00     0.126 C 
ATOM     17  C   UNL d   1     -43.333  12.806  21.518  0.00  0.00     0.029 C 
ENDBRANCH  15  16
ENDBRANCH  13  15
ENDBRANCH  11  13
ENDBRANCH  10  11
ENDBRANCH   7  10
BRANCH   2  18
ATOM     18  C   UNL d   1     -49.590  13.420  22.806  0.00  0.00     0.038 A 
ATOM     19  C   UNL d   1     -49.777  12.937  22.161  0.00  0.00     0.005 A 
ATOM     20  C   UNL d   1     -50.167  12.217  22.285  0.00  0.00     0.030 A 
ATOM     21  C   UNL d   1     -50.366  11.987  23.052  0.00  0.00     0.140 A 
ATOM     22  C   UNL d   1     -50.179  12.470  23.698  0.00  0.00     0.030 A 
ATOM     23  F   UNL d   1     -50.754  11.271  23.179  0.00  0.00    -0.204 F 
ATOM     24  C   UNL d   1     -49.790  13.187  23.566  0.00  0.00     0.005 A 
ENDBRANCH   2  18
TORSDOF 6
ENDMDL
MODEL 4
REMARK VINA RESULT:      -7.1      2.742      4.725
REMARK  6 active torsions:
REMARK  status: ('A' for Active; 'I' for Inactive)
REMARK    1  A    between atoms: C_11  and  C_2 
REMARK    2  A    between atoms: S_9  and  C_7 
REMARK    3  A    between atoms: C_13  and  S_9 
REMARK    4  A    between atoms: C_10  and  C_13 
REMARK    5  A    between atoms: O_18  and  C_10 
REMARK    6  A    between atoms: C_23  and  O_18 
ROOT
ATOM      1  N   UNL d   1     -48.123  12.100  23.343  0.00  0.00    -0.191 N 
ATOM      2  C   UNL d   1     -47.309  12.113  23.246  0.00  0.00     0.187 A 
ATOM      3  N   UNL d   1     -47.026  11.360  23.408  0.00  0.00    -0.127 NA
ATOM      4  C   UNL d   1     -48.356  11.346  23.563  0.00  0.00     0.187 A 
ATOM      5  N   UNL d   1     -48.702  12.700  23.254  0.00  0.00    -0.156 NA
ATOM      6  N   UNL d   1     -47.668  10.879  23.605  0.00  0.00    -0.127 NA
ATOM      7  C   UNL d   1     -49.498  12.530  23.389  0.00  0.00     0.131 A 
ATOM      8  C   UNL d   1     -49.152  11.176  23.698  0.00  0.00     0.043 A 
ATOM      9  C   UNL d   1     -49.723  11.767  23.611  0.00  0.00     0.031 A 
ENDROOT
BRANCH   7  10
ATOM     10  S   UNL d   1     -50.069  13.120  23.302  0.00  0.00    -0.061 SA
BRANCH  10  11
ATOM     11  C   UNL d   1     -50.289  13.371  22.549  0.00  0.00     0.094 C 
ATOM     12  C   UNL d   1     -50.341  12.829  21.939  0.00  0.00     0.013 C 
BRANCH  11  13
ATOM     13  C   UNL d   1     -50.453  14.158  22.414  0.00  0.00     0.306 C 
ATOM     14  O   UNL d   1     -50.209  14.518  21.712  0.00  0.00    -0.258 OA
BRANCH  13  15
ATOM     15  O   UNL d   1     -50.864  14.607  22.973  0.00  0.00    -0.271 OA
BRANCH  15  16
ATOM     16  C   UNL d   1     -50.846  15.416  22.942  0.00  0.00     0.126 C 
ATOM     17  C   UNL d   1     -51.058  15.840  23.604  0.00  0.00     0.029 C 
ENDBRANCH  15  16
ENDBRANCH  13  15
ENDBRANCH  11  13
ENDBRANCH  10  11
ENDBRANCH   7  10
BRANCH   2  18
ATOM     18  C   UNL d   1     -46.852  12.757  23.028  0.00  0.00     0.038 A 
ATOM     19  C   UNL d   1     -46.483  12.761  22.287  0.00  0.00     0.005 A 
ATOM     20  C   UNL d   1     -46.020  13.411  22.062  0.00  0.00     0.030 A 
ATOM     21  C   UNL d   1     -45.930  14.048  22.579  0.00  0.00     0.140 A 
ATOM     22  C   UNL d   1     -46.298  14.043  23.320  0.00  0.00     0.030 A 
ATOM     23  F   UNL d   1     -45.470  14.694  22.358  0.00  0.00    -0.204 F 
ATOM     24  C   UNL d   1     -46.759  13.391  23.538  0.00  0.00     0.005 A 
ENDBRANCH   2  18
TORSDOF 6
ENDMDL
MODEL 5
REMARK VINA RESULT:      -5.3      8.733      9.793
REMARK  6 active torsions:
REMARK  status: ('A' for Active; 'I' for Inactive)
REMARK    1  A    between atoms: C_11  and  C_2 
REMARK    2  A    between atoms: S_9  and  C_7 
REMARK    3  A    between atoms: C_13  and  S_9 
REMARK    4  A    between atoms: C_10  and  C_13 
REMARK    5  A    between atoms: O_18  and  C_10 
REMARK    6  A    between atoms: C_23  and  O_18 
ROOT
ATOM      1  N   UNL d   1     -40.101  15.205  18.551  0.00  0.00    -0.191 N 
ATOM      2  C   UNL d   1     -40.125  15.027  17.751  0.00  0.00     0.187 A 
ATOM      3  N   UNL d   1     -40.797  15.376  17.437  0.00  0.00    -0.127 NA
ATOM      4  C   UNL d   1     -40.752  15.662  18.744  0.00  0.00     0.187 A 
ATOM      5  N   UNL d   1     -39.550  15.001  19.150  0.00  0.00    -0.156 NA
ATOM      6  N   UNL d   1     -41.191  15.772  18.045  0.00  0.00    -0.127 NA
ATOM      7  C   UNL d   1     -39.665  15.260  19.925  0.00  0.00     0.131 A 
ATOM      8  C   UNL d   1     -40.868  15.922  19.519  0.00  0.00     0.043 A 
ATOM      9  C   UNL d   1     -40.325  15.721  20.109  0.00  0.00     0.031 A 
ENDROOT
BRANCH   7  10
ATOM     10  S   UNL d   1     -39.123  15.059  20.514  0.00  0.00    -0.061 SA
BRANCH  10  11
ATOM     11  C   UNL d   1     -39.263  14.406  20.995  0.00  0.00     0.094 C 
ATOM     12  C   UNL d   1     -40.026  14.126  21.089  0.00  0.00     0.013 C 
BRANCH  11  13
ATOM     13  C   UNL d   1     -38.642  14.041  21.377  0.00  0.00     0.306 C 
ATOM     14  O   UNL d   1     -38.012  13.731  20.943  0.00  0.00    -0.258 OA
BRANCH  13  15
ATOM     15  O   UNL d   1     -38.632  13.974  22.201  0.00  0.00    -0.271 OA
BRANCH  15  16
ATOM     16  C   UNL d   1     -38.150  13.432  22.562  0.00  0.00     0.126 C 
ATOM     17  C   UNL d   1     -38.191  13.347  23.370  0.00  0.00     0.029 C 
ENDBRANCH  15  16
ENDBRANCH  13  15
ENDBRANCH  11  13
ENDBRANCH  10  11
ENDBRANCH   7  10
BRANCH   2  18
ATOM     18  C   UNL d   1     -39.579  14.582  17.332  0.00  0.00     0.038 A 
ATOM     19  C   UNL d   1     -39.654  13.757  17.316  0.00  0.00     0.005 A 
ATOM     20  C   UNL d   1     -39.104  13.303  16.894  0.00  0.00     0.030 A 
ATOM     21  C   UNL d   1     -38.487  13.675  16.493  0.00  0.00     0.140 A 
ATOM     22  C   UNL d   1     -38.413  14.499  16.509  0.00  0.00     0.030 A 
ATOM     23  F   UNL d   1     -37.940  13.226  16.073  0.00  0.00    -0.204 F 
ATOM     24  C   UNL d   1     -38.964  14.947  16.933  0.00  0.00     0.005 A 
ENDBRANCH   2  18
TORSDOF 6
ENDMDL
