MODEL 1
REMARK VINA RESULT:      42.8      0.000      0.000
REMARK  7 active torsions:
REMARK  status: ('A' for Active; 'I' for Inactive)
REMARK    1  A    between atoms: C_6  and  C_1 
REMARK    2  A    between atoms: C_8  and  N_3 
REMARK    3  A    between atoms: O_7  and  C_6 
REMARK    4  A    between atoms: C_9  and  O_7 
REMARK    5  A    between atoms: C_19  and  C_8 
REMARK    6  A    between atoms: O_16  and  C_10 
REMARK    7  A    between atoms: O_18  and  C_19 
ROOT
ATOM      1  C   UNL d   1     -54.791-101.516 -42.488  0.00  0.00     0.173 A 
ATOM      2  N   UNL d   1     -54.721-100.695 -42.365  0.00  0.00    -0.225 NA
ATOM      3  N   UNL d   1     -54.915-101.647 -43.307  0.00  0.00    -0.286 N 
ATOM      4  C   UNL d   1     -54.920-100.900 -43.690  0.00  0.00     0.083 A 
ATOM      5  C   UNL d   1     -54.800-100.318 -43.103  0.00  0.00     0.099 A 
ATOM      6  C   UNL d   1     -55.015-100.668 -44.475  0.00  0.00     0.019 A 
ATOM      7  C   UNL d   1     -54.777 -99.517 -43.313  0.00  0.00     0.021 A 
ATOM      8  C   UNL d   1     -54.992 -99.870 -44.683  0.00  0.00     0.002 A 
ATOM      9  C   UNL d   1     -54.873 -99.294 -44.101  0.00  0.00     0.002 A 
ENDROOT
BRANCH   1  10
ATOM     10  C   UNL d   1     -54.720-101.934 -41.785  0.00  0.00     0.160 C 
BRANCH  10  11
ATOM     11  O   UNL d   1     -55.353-102.389 -41.505  0.00  0.00    -0.302 OA
BRANCH  11  12
ATOM     12  C   UNL d   1     -55.452-102.512 -40.696  0.00  0.00     0.100 A 
ATOM     13  C   UNL d   1     -54.809-102.756 -40.244  0.00  0.00     0.027 A 
ATOM     14  C   UNL d   1     -54.907-102.879 -39.434  0.00  0.00     0.026 A 
ATOM     15  C   UNL d   1     -55.646-102.757 -39.080  0.00  0.00     0.094 A 
ATOM     16  C   UNL d   1     -56.283-102.513 -39.537  0.00  0.00     0.026 A 
ATOM     17  C   UNL d   1     -56.185-102.390 -40.347  0.00  0.00     0.027 A 
BRANCH  15  18
ATOM     18  O   UNL d   1     -55.742-102.879 -38.273  0.00  0.00    -0.328 OA
ATOM     19  C   UNL d   1     -55.229-102.523 -37.732  0.00  0.00     0.181 C 
ENDBRANCH  15  18
ENDBRANCH  11  12
ENDBRANCH  10  11
ENDBRANCH   1  10
BRANCH   3  20
ATOM     20  C   UNL d   1     -55.013-102.375 -43.675  0.00  0.00     0.108 C 
BRANCH  20  21
ATOM     21  C   UNL d   1     -55.074-102.422 -44.500  0.00  0.00     0.135 C 
BRANCH  21  22
ATOM     22  O   UNL d   1     -55.706-102.816 -44.842  0.00  0.00    -0.325 OA
ATOM     23  C   UNL d   1     -56.395-102.406 -45.025  0.00  0.00     0.182 C 
ENDBRANCH  21  22
ENDBRANCH  20  21
ENDBRANCH   3  20
TORSDOF 7
ENDMDL
