MODEL 1
REMARK VINA RESULT:      -4.6      0.000      0.000
REMARK  4 active torsions:
REMARK  status: ('A' for Active; 'I' for Inactive)
REMARK    1  A    between atoms: N_4  and  C_1 
REMARK    2  A    between atoms: N_2  and  N_4 
REMARK    3  A    between atoms: C_6  and  N_2 
REMARK    4  A    between atoms: C_8  and  C_6 
ROOT
ATOM      1  C   UNL d   1      56.255   0.430  32.784  0.00  0.00     0.008 A 
ATOM      2  C   UNL d   1      56.742  -0.021  32.297  0.00  0.00     0.021 A 
ATOM      3  C   UNL d   1      55.628   0.060  33.208  0.00  0.00     0.035 A 
ATOM      4 BR   UNL d   1      55.132   0.520  33.704  0.00  0.00    -0.049 Br
ATOM      5  C   UNL d   1      55.996  -1.203  32.645  0.00  0.00     0.001 A 
ATOM      6  C   UNL d   1      55.508  -0.752  33.131  0.00  0.00     0.007 A 
ATOM      7  C   UNL d   1      56.616  -0.827  32.228  0.00  0.00     0.002 A 
ENDROOT
BRANCH   2   8
ATOM      8  C   UNL d   1      57.374   0.338  31.868  0.00  0.00     0.122 C 
BRANCH   8   9
ATOM      9  N   UNL d   1      57.526   0.123  31.067  0.00  0.00    -0.144 NA
BRANCH   9  10
ATOM     10  N   UNL d   1      58.174   0.450  30.661  0.00  0.00    -0.115 NA
BRANCH  10  11
ATOM     11  C   UNL d   1      58.260   0.329  29.864  0.00  0.00     0.260 C 
ATOM     12  S   UNL d   1      58.877  -0.166  29.568  0.00  0.00    -0.034 SA
ATOM     13  N   UNL d   1      57.756   0.682  29.337  0.00  0.00    -0.113 N 
ENDBRANCH  10  11
ENDBRANCH   9  10
ENDBRANCH   8   9
ENDBRANCH   2   8
TORSDOF 4
ENDMDL
MODEL 2
REMARK VINA RESULT:      -4.2      1.164      1.484
REMARK  4 active torsions:
REMARK  status: ('A' for Active; 'I' for Inactive)
REMARK    1  A    between atoms: N_4  and  C_1 
REMARK    2  A    between atoms: N_2  and  N_4 
REMARK    3  A    between atoms: C_6  and  N_2 
REMARK    4  A    between atoms: C_8  and  C_6 
ROOT
ATOM      1  C   UNL d   1      56.619  -0.520  31.873  0.00  0.00     0.008 A 
ATOM      2  C   UNL d   1      57.131   0.076  31.628  0.00  0.00     0.021 A 
ATOM      3  C   UNL d   1      56.413  -0.587  32.686  0.00  0.00     0.035 A 
ATOM      4 BR   UNL d   1      55.891  -1.194  32.936  0.00  0.00    -0.049 Br
ATOM      5  C   UNL d   1      57.238   0.543  32.986  0.00  0.00     0.001 A 
ATOM      6  C   UNL d   1      56.726  -0.053  33.231  0.00  0.00     0.007 A 
ATOM      7  C   UNL d   1      57.438   0.602  32.176  0.00  0.00     0.002 A 
ENDROOT
BRANCH   2   8
ATOM      8  C   UNL d   1      57.345   0.153  30.815  0.00  0.00     0.122 C 
BRANCH   8   9
ATOM      9  N   UNL d   1      57.933  -0.347  30.476  0.00  0.00    -0.144 NA
BRANCH   9  10
ATOM     10  N   UNL d   1      58.096  -0.310  29.661  0.00  0.00    -0.115 NA
BRANCH  10  11
ATOM     11  C   UNL d   1      58.728  -0.713  29.352  0.00  0.00     0.260 C 
ATOM     12  S   UNL d   1      59.413  -0.299  29.083  0.00  0.00    -0.034 SA
ATOM     13  N   UNL d   1      58.714  -1.521  29.296  0.00  0.00    -0.113 N 
ENDBRANCH  10  11
ENDBRANCH   9  10
ENDBRANCH   8   9
ENDBRANCH   2   8
TORSDOF 4
ENDMDL
MODEL 3
REMARK VINA RESULT:      -3.2      2.460      3.903
REMARK  4 active torsions:
REMARK  status: ('A' for Active; 'I' for Inactive)
REMARK    1  A    between atoms: N_4  and  C_1 
REMARK    2  A    between atoms: N_2  and  N_4 
REMARK    3  A    between atoms: C_6  and  N_2 
REMARK    4  A    between atoms: C_8  and  C_6 
ROOT
ATOM      1  C   UNL d   1      58.175  -0.214  29.881  0.00  0.00     0.008 A 
ATOM      2  C   UNL d   1      58.123   0.282  30.535  0.00  0.00     0.021 A 
ATOM      3  C   UNL d   1      58.911  -0.308  29.484  0.00  0.00     0.035 A 
ATOM      4 BR   UNL d   1      58.964  -0.814  28.816  0.00  0.00    -0.049 Br
ATOM      5  C   UNL d   1      59.523   0.594  30.410  0.00  0.00     0.001 A 
ATOM      6  C   UNL d   1      59.575   0.098  29.755  0.00  0.00     0.007 A 
ATOM      7  C   UNL d   1      58.788   0.682  30.798  0.00  0.00     0.002 A 
ENDROOT
BRANCH   2   8
ATOM      8  C   UNL d   1      57.390   0.385  30.941  0.00  0.00     0.122 C 
BRANCH   8   9
ATOM      9  N   UNL d   1      57.182  -0.116  31.587  0.00  0.00    -0.144 NA
BRANCH   9  10
ATOM     10  N   UNL d   1      56.435  -0.049  31.945  0.00  0.00    -0.115 NA
BRANCH  10  11
ATOM     11  C   UNL d   1      56.250  -0.501  32.592  0.00  0.00     0.260 C 
ATOM     12  S   UNL d   1      56.110  -0.142  33.344  0.00  0.00    -0.034 SA
ATOM     13  N   UNL d   1      56.196  -1.307  32.529  0.00  0.00    -0.113 N 
ENDBRANCH  10  11
ENDBRANCH   9  10
ENDBRANCH   8   9
ENDBRANCH   2   8
TORSDOF 4
ENDMDL
MODEL 4
REMARK VINA RESULT:      -3.1      9.197      9.874
REMARK  4 active torsions:
REMARK  status: ('A' for Active; 'I' for Inactive)
REMARK    1  A    between atoms: N_4  and  C_1 
REMARK    2  A    between atoms: N_2  and  N_4 
REMARK    3  A    between atoms: C_6  and  N_2 
REMARK    4  A    between atoms: C_8  and  C_6 
ROOT
ATOM      1  C   UNL d   1      59.225  -9.231  34.000  0.00  0.00     0.008 A 
ATOM      2  C   UNL d   1      59.918  -9.049  34.406  0.00  0.00     0.021 A 
ATOM      3  C   UNL d   1      59.266  -9.620  33.255  0.00  0.00     0.035 A 
ATOM      4 BR   UNL d   1      58.560  -9.806  32.841  0.00  0.00    -0.049 Br
ATOM      5  C   UNL d   1      60.694  -9.634  33.343  0.00  0.00     0.001 A 
ATOM      6  C   UNL d   1      60.002  -9.816  32.938  0.00  0.00     0.007 A 
ATOM      7  C   UNL d   1      60.644  -9.247  34.083  0.00  0.00     0.002 A 
ENDROOT
BRANCH   2   8
ATOM      8  C   UNL d   1      59.889  -8.658  35.154  0.00  0.00     0.122 C 
BRANCH   8   9
ATOM      9  N   UNL d   1      60.249  -7.903  35.259  0.00  0.00    -0.144 NA
BRANCH   9  10
ATOM     10  N   UNL d   1      60.199  -7.514  35.992  0.00  0.00    -0.115 NA
BRANCH  10  11
ATOM     11  C   UNL d   1      60.218  -6.704  36.026  0.00  0.00     0.260 C 
ATOM     12  S   UNL d   1      60.950  -6.294  36.123  0.00  0.00    -0.034 SA
ATOM     13  N   UNL d   1      59.534  -6.273  35.968  0.00  0.00    -0.113 N 
ENDBRANCH  10  11
ENDBRANCH   9  10
ENDBRANCH   8   9
ENDBRANCH   2   8
TORSDOF 4
ENDMDL
MODEL 5
REMARK VINA RESULT:      -2.9      0.880      1.180
REMARK  4 active torsions:
REMARK  status: ('A' for Active; 'I' for Inactive)
REMARK    1  A    between atoms: N_4  and  C_1 
REMARK    2  A    between atoms: N_2  and  N_4 
REMARK    3  A    between atoms: C_6  and  N_2 
REMARK    4  A    between atoms: C_8  and  C_6 
ROOT
ATOM      1  C   UNL d   1      56.453  -0.610  32.385  0.00  0.00     0.008 A 
ATOM      2  C   UNL d   1      56.660   0.185  32.436  0.00  0.00     0.021 A 
ATOM      3  C   UNL d   1      55.854  -0.920  32.887  0.00  0.00     0.035 A 
ATOM      4 BR   UNL d   1      55.643  -1.730  32.835  0.00  0.00    -0.049 Br
ATOM      5  C   UNL d   1      55.686   0.371  33.480  0.00  0.00     0.001 A 
ATOM      6  C   UNL d   1      55.478  -0.424  33.428  0.00  0.00     0.007 A 
ATOM      7  C   UNL d   1      56.282   0.671  32.977  0.00  0.00     0.002 A 
ENDROOT
BRANCH   2   8
ATOM      8  C   UNL d   1      57.260   0.508  31.937  0.00  0.00     0.122 C 
BRANCH   8   9
ATOM      9  N   UNL d   1      57.604   0.044  31.323  0.00  0.00    -0.144 NA
BRANCH   9  10
ATOM     10  N   UNL d   1      58.297   0.300  30.943  0.00  0.00    -0.115 NA
BRANCH  10  11
ATOM     11  C   UNL d   1      58.440   0.095  30.172  0.00  0.00     0.260 C 
ATOM     12  S   UNL d   1      58.868   0.612  29.659  0.00  0.00    -0.034 SA
ATOM     13  N   UNL d   1      58.175  -0.613  29.878  0.00  0.00    -0.113 N 
ENDBRANCH  10  11
ENDBRANCH   9  10
ENDBRANCH   8   9
ENDBRANCH   2   8
TORSDOF 4
ENDMDL
MODEL 6
REMARK VINA RESULT:      -2.7      3.220      4.638
REMARK  4 active torsions:
REMARK  status: ('A' for Active; 'I' for Inactive)
REMARK    1  A    between atoms: N_4  and  C_1 
REMARK    2  A    between atoms: N_2  and  N_4 
REMARK    3  A    between atoms: C_6  and  N_2 
REMARK    4  A    between atoms: C_8  and  C_6 
ROOT
ATOM      1  C   UNL d   1      58.780  -2.398  28.829  0.00  0.00     0.008 A 
ATOM      2  C   UNL d   1      59.102  -1.673  29.047  0.00  0.00     0.021 A 
ATOM      3  C   UNL d   1      59.286  -3.053  28.678  0.00  0.00     0.035 A 
ATOM      4 BR   UNL d   1      58.958  -3.793  28.456  0.00  0.00    -0.049 Br
ATOM      5  C   UNL d   1      60.424  -2.237  28.970  0.00  0.00     0.001 A 
ATOM      6  C   UNL d   1      60.102  -2.962  28.752  0.00  0.00     0.007 A 
ATOM      7  C   UNL d   1      59.913  -1.592  29.118  0.00  0.00     0.002 A 
ENDROOT
BRANCH   2   8
ATOM      8  C   UNL d   1      58.603  -1.009  29.200  0.00  0.00     0.122 C 
BRANCH   8   9
ATOM      9  N   UNL d   1      58.397  -0.798  29.990  0.00  0.00    -0.144 NA
BRANCH   9  10
ATOM     10  N   UNL d   1      57.776  -0.264  30.133  0.00  0.00    -0.115 NA
BRANCH  10  11
ATOM     11  C   UNL d   1      57.604  -0.031  30.891  0.00  0.00     0.260 C 
ATOM     12  S   UNL d   1      57.930   0.680  31.208  0.00  0.00    -0.034 SA
ATOM     13  N   UNL d   1      57.114  -0.478  31.358  0.00  0.00    -0.113 N 
ENDBRANCH  10  11
ENDBRANCH   9  10
ENDBRANCH   8   9
ENDBRANCH   2   8
TORSDOF 4
ENDMDL
MODEL 7
REMARK VINA RESULT:      -2.4      2.208      2.924
REMARK  4 active torsions:
REMARK  status: ('A' for Active; 'I' for Inactive)
REMARK    1  A    between atoms: N_4  and  C_1 
REMARK    2  A    between atoms: N_2  and  N_4 
REMARK    3  A    between atoms: C_6  and  N_2 
REMARK    4  A    between atoms: C_8  and  C_6 
ROOT
ATOM      1  C   UNL d   1      57.546  -0.960  30.775  0.00  0.00     0.008 A 
ATOM      2  C   UNL d   1      58.019  -0.611  30.199  0.00  0.00     0.021 A 
ATOM      3  C   UNL d   1      57.212  -0.487  31.386  0.00  0.00     0.035 A 
ATOM      4 BR   UNL d   1      56.730  -0.843  31.974  0.00  0.00    -0.049 Br
ATOM      5  C   UNL d   1      57.835   0.672  30.826  0.00  0.00     0.001 A 
ATOM      6  C   UNL d   1      57.362   0.323  31.402  0.00  0.00     0.007 A 
ATOM      7  C   UNL d   1      58.163   0.195  30.222  0.00  0.00     0.002 A 
ENDROOT
BRANCH   2   8
ATOM      8  C   UNL d   1      58.359  -1.076  29.581  0.00  0.00     0.122 C 
BRANCH   8   9
ATOM      9  N   UNL d   1      59.178  -1.275  29.594  0.00  0.00    -0.144 NA
BRANCH   9  10
ATOM     10  N   UNL d   1      59.508  -1.731  28.982  0.00  0.00    -0.115 NA
BRANCH  10  11
ATOM     11  C   UNL d   1      60.285  -1.959  29.016  0.00  0.00     0.260 C 
ATOM     12  S   UNL d   1      60.493  -2.775  29.077  0.00  0.00    -0.034 SA
ATOM     13  N   UNL d   1      60.878  -1.406  28.992  0.00  0.00    -0.113 N 
ENDBRANCH  10  11
ENDBRANCH   9  10
ENDBRANCH   8   9
ENDBRANCH   2   8
TORSDOF 4
ENDMDL
