MODEL 1
REMARK VINA RESULT:      -0.8      0.000      0.000
REMARK  5 active torsions:
REMARK  status: ('A' for Active; 'I' for Inactive)
REMARK    1  A    between atoms: N_2  and  S_1 
REMARK    2  A    between atoms: C_14  and  S_1 
REMARK    3  A    between atoms: C_4  and  N_2 
REMARK    4  A    between atoms: S_6  and  C_3 
REMARK    5  A    between atoms: C_10  and  S_6 
ROOT
ATOM      1  C   UNL d   1      59.690  -2.183  28.955  0.00  0.00     0.070 A 
ATOM      2  C   UNL d   1      58.981  -0.969  29.188  0.00  0.00     0.095 A 
ATOM      3  C   UNL d   1      60.403  -1.769  28.965  0.00  0.00     0.202 A 
ATOM      4  C   UNL d   1      58.978  -1.783  29.067  0.00  0.00     0.030 A 
ATOM      5  C   UNL d   1      60.405  -0.955  29.086  0.00  0.00     0.041 A 
ATOM      6  C   UNL d   1      59.695  -0.555  29.197  0.00  0.00     0.022 A 
ATOM      7  O   UNL d   1      61.131  -2.174  28.852  0.00  0.00    -0.286 OA
ATOM      8  C   UNL d   1      61.126  -0.536  29.096  0.00  0.00     0.003 A 
ATOM      9  C   UNL d   1      59.695   0.263  29.319  0.00  0.00     0.002 A 
ATOM     10  C   UNL d   1      61.129   0.278  29.217  0.00  0.00     0.000 A 
ATOM     11  C   UNL d   1      60.416   0.682  29.329  0.00  0.00     0.000 A 
ENDROOT
BRANCH   1  12
ATOM     12  S   UNL d   1      59.686  -2.998  28.834  0.00  0.00    -0.082 SA
BRANCH  12  13
ATOM     13  C   UNL d   1      59.680  -3.815  28.714  0.00  0.00     0.047 A 
ATOM     14  C   UNL d   1      58.965  -4.220  28.645  0.00  0.00     0.087 A 
ATOM     15  N   UNL d   1      58.254  -3.805  28.697  0.00  0.00    -0.244 NA
ATOM     16  C   UNL d   1      58.963  -5.034  28.525  0.00  0.00     0.018 A 
ATOM     17  C   UNL d   1      57.539  -4.211  28.628  0.00  0.00     0.099 A 
ATOM     18  C   UNL d   1      57.539  -5.029  28.507  0.00  0.00     0.021 A 
ATOM     19  C   UNL d   1      58.241  -5.443  28.455  0.00  0.00     0.003 A 
ATOM     20  C   UNL d   1      59.668  -5.448  28.473  0.00  0.00     0.002 A 
ATOM     21  C   UNL d   1      60.389  -5.052  28.540  0.00  0.00     0.001 A 
ATOM     22  C   UNL d   1      60.398  -4.231  28.662  0.00  0.00     0.008 A 
ENDBRANCH  12  13
ENDBRANCH   1  12
BRANCH   2  23
ATOM     23  N   UNL d   1      58.253  -0.564  29.301  0.00  0.00    -0.158 NA
BRANCH  23  24
ATOM     24  S   UNL d   1      57.908  -0.545  30.052  0.00  0.00     0.285 S 
ATOM     25  O   UNL d   1      57.932  -1.378  30.089  0.00  0.00    -0.198 OA
ATOM     26  O   UNL d   1      57.882   0.280  30.019  0.00  0.00    -0.198 OA
BRANCH  24  27
ATOM     27  C   UNL d   1      57.560  -0.523  30.807  0.00  0.00     0.105 A 
ATOM     28  C   UNL d   1      57.074  -1.140  31.054  0.00  0.00     0.013 A 
ATOM     29  C   UNL d   1      56.724  -1.124  31.809  0.00  0.00     0.001 A 
ATOM     30  C   UNL d   1      56.866  -0.482  32.314  0.00  0.00     0.000 A 
ATOM     31  C   UNL d   1      57.359   0.139  32.057  0.00  0.00     0.001 A 
ATOM     32  C   UNL d   1      57.702   0.115  31.309  0.00  0.00     0.013 A 
ENDBRANCH  24  27
ENDBRANCH  23  24
ENDBRANCH   2  23
TORSDOF 5
ENDMDL
MODEL 2
REMARK VINA RESULT:       0.9      1.563      4.880
REMARK  5 active torsions:
REMARK  status: ('A' for Active; 'I' for Inactive)
REMARK    1  A    between atoms: N_2  and  S_1 
REMARK    2  A    between atoms: C_14  and  S_1 
REMARK    3  A    between atoms: C_4  and  N_2 
REMARK    4  A    between atoms: S_6  and  C_3 
REMARK    5  A    between atoms: C_10  and  S_6 
ROOT
ATOM      1  C   UNL d   1      58.320   0.126  31.210  0.00  0.00     0.070 A 
ATOM      2  C   UNL d   1      58.946  -0.141  29.958  0.00  0.00     0.095 A 
ATOM      3  C   UNL d   1      59.038   0.397  31.512  0.00  0.00     0.202 A 
ATOM      4  C   UNL d   1      58.273  -0.143  30.433  0.00  0.00     0.030 A 
ATOM      5  C   UNL d   1      59.710   0.399  31.036  0.00  0.00     0.041 A 
ATOM      6  C   UNL d   1      59.664   0.131  30.260  0.00  0.00     0.022 A 
ATOM      7  O   UNL d   1      59.090   0.672  32.304  0.00  0.00    -0.286 OA
ATOM      8  C   UNL d   1      60.436   0.674  31.341  0.00  0.00     0.003 A 
ATOM      9  C   UNL d   1      60.338   0.132  29.781  0.00  0.00     0.002 A 
ATOM     10  C   UNL d   1      61.108   0.676  30.866  0.00  0.00     0.000 A 
ATOM     11  C   UNL d   1      61.064   0.406  30.085  0.00  0.00     0.000 A 
ENDROOT
BRANCH   1  12
ATOM     12  S   UNL d   1      57.647   0.123  31.685  0.00  0.00    -0.082 SA
BRANCH  12  13
ATOM     13  C   UNL d   1      56.972   0.117  32.161  0.00  0.00     0.047 A 
ATOM     14  C   UNL d   1      57.027   0.303  32.963  0.00  0.00     0.087 A 
ATOM     15  N   UNL d   1      57.760   0.495  33.288  0.00  0.00    -0.244 NA
ATOM     16  C   UNL d   1      56.353   0.296  33.434  0.00  0.00     0.018 A 
ATOM     17  C   UNL d   1      57.815   0.681  34.090  0.00  0.00     0.099 A 
ATOM     18  C   UNL d   1      57.135   0.674  34.562  0.00  0.00     0.021 A 
ATOM     19  C   UNL d   1      56.408   0.484  34.244  0.00  0.00     0.003 A 
ATOM     20  C   UNL d   1      55.623   0.106  33.112  0.00  0.00     0.002 A 
ATOM     21  C   UNL d   1      55.557  -0.082  32.312  0.00  0.00     0.001 A 
ATOM     22  C   UNL d   1      56.235  -0.077  31.831  0.00  0.00     0.008 A 
ENDBRANCH  12  13
ENDBRANCH   1  12
BRANCH   2  23
ATOM     23  N   UNL d   1      58.894  -0.416  29.166  0.00  0.00    -0.158 NA
BRANCH  23  24
ATOM     24  S   UNL d   1      58.899  -1.229  29.013  0.00  0.00     0.285 S 
ATOM     25  O   UNL d   1      58.134  -1.297  29.340  0.00  0.00    -0.198 OA
ATOM     26  O   UNL d   1      59.656  -1.164  28.689  0.00  0.00    -0.198 OA
BRANCH  24  27
ATOM     27  C   UNL d   1      58.904  -2.045  28.859  0.00  0.00     0.105 A 
ATOM     28  C   UNL d   1      58.210  -2.483  28.928  0.00  0.00     0.013 A 
ATOM     29  C   UNL d   1      58.210  -3.300  28.775  0.00  0.00     0.001 A 
ATOM     30  C   UNL d   1      58.915  -3.677  28.551  0.00  0.00     0.000 A 
ATOM     31  C   UNL d   1      59.614  -3.227  28.483  0.00  0.00     0.001 A 
ATOM     32  C   UNL d   1      59.605  -2.419  28.636  0.00  0.00     0.013 A 
ENDBRANCH  24  27
ENDBRANCH  23  24
ENDBRANCH   2  23
TORSDOF 5
ENDMDL
