MODEL 1
REMARK VINA RESULT:      41.4      0.000      0.000
REMARK  5 active torsions:
REMARK  status: ('A' for Active; 'I' for Inactive)
REMARK    1  A    between atoms: C_11  and  C_1 
REMARK    2  A    between atoms: C_14  and  N_4 
REMARK    3  A    between atoms: C_5  and  S_12 
REMARK    4  A    between atoms: C_16  and  C_11 
REMARK    5  A    between atoms: S_12  and  C_16 
ROOT
ATOM      1  C   UNL d   1     -56.521 -99.013 -44.105  0.00  0.00     0.057 A 
ATOM      2  C   UNL d   1     -57.021 -98.975 -44.771  0.00  0.00     0.067 A 
ATOM      3  N   UNL d   1     -57.790 -98.923 -44.505  0.00  0.00    -0.306 N 
ATOM      4  C   UNL d   1     -57.787 -98.928 -43.670  0.00  0.00     0.064 A 
ATOM      5  C   UNL d   1     -56.990 -98.984 -43.435  0.00  0.00     0.022 A 
ATOM      6  C   UNL d   1     -56.774 -98.987 -45.591  0.00  0.00     0.019 C 
ATOM      7  C   UNL d   1     -58.451 -98.884 -43.169  0.00  0.00     0.019 C 
ENDROOT
BRANCH   1   8
ATOM      8  C   UNL d   1     -55.709 -99.069 -44.218  0.00  0.00     0.204 C 
ATOM      9  O   UNL d   1     -55.214 -98.917 -43.586  0.00  0.00    -0.286 OA
BRANCH   8  10
ATOM     10  C   UNL d   1     -55.398 -99.275 -44.958  0.00  0.00     0.080 C 
BRANCH  10  11
ATOM     11  S   UNL d   1     -54.717 -99.726 -45.011  0.00  0.00    -0.044 SA
BRANCH  11  12
ATOM     12  C   UNL d   1     -54.731-100.534 -44.827  0.00  0.00     0.201 A 
ATOM     13  N   UNL d   1     -54.730-100.885 -44.090  0.00  0.00    -0.268 N 
ATOM     14  C   UNL d   1     -54.747-101.710 -44.194  0.00  0.00     0.171 A 
ATOM     15  C   UNL d   1     -54.714-100.565 -43.313  0.00  0.00     0.084 A 
ATOM     16  C   UNL d   1     -54.750-102.213 -43.525  0.00  0.00     0.039 A 
ATOM     17  N   UNL d   1     -54.759-101.852 -44.996  0.00  0.00    -0.128 NA
ATOM     18  C   UNL d   1     -54.735-101.899 -42.763  0.00  0.00     0.005 A 
ATOM     19  C   UNL d   1     -54.717-101.083 -42.668  0.00  0.00     0.019 A 
ATOM     20  N   UNL d   1     -54.749-101.142 -45.377  0.00  0.00    -0.121 NA
ENDBRANCH  11  12
ENDBRANCH  10  11
ENDBRANCH   8  10
ENDBRANCH   1   8
BRANCH   3  21
ATOM     21  C   UNL d   1     -58.515 -98.870 -44.914  0.00  0.00     0.064 A 
ATOM     22  C   UNL d   1     -58.524 -98.864 -45.740  0.00  0.00     0.018 A 
ATOM     23  C   UNL d   1     -59.239 -98.812 -46.142  0.00  0.00     0.002 A 
ATOM     24  C   UNL d   1     -59.940 -98.766 -45.729  0.00  0.00     0.000 A 
ATOM     25  C   UNL d   1     -59.935 -98.772 -44.896  0.00  0.00     0.002 A 
ATOM     26  C   UNL d   1     -59.220 -98.824 -44.501  0.00  0.00     0.018 A 
ENDBRANCH   3  21
TORSDOF 5
ENDMDL
