MODEL 1
REMARK VINA RESULT:      -0.2      0.000      0.000
REMARK  5 active torsions:
REMARK  status: ('A' for Active; 'I' for Inactive)
REMARK    1  A    between atoms: C_12  and  C_1 
REMARK    2  A    between atoms: N_7  and  C_2 
REMARK    3  A    between atoms: C_3  and  C_6 
REMARK       I    between atoms: C_6  and  N_7 
REMARK    4  A    between atoms: O_18  and  C_12 
REMARK    5  A    between atoms: C_23  and  O_18 
ROOT
ATOM      1  C   UNL d   1      30.837  17.410 -24.658  0.00  0.00     0.111 A 
ATOM      2  C   UNL d   1      31.605  17.599 -24.597  0.00  0.00     0.096 A 
ATOM      3  S   UNL d   1      30.798  16.590 -24.853  0.00  0.00    -0.080 SA
ATOM      4  C   UNL d   1      32.073  16.944 -24.743  0.00  0.00     0.024 A 
ATOM      5  C   UNL d   1      31.567  16.313 -24.902  0.00  0.00     0.031 A 
ATOM      6  C   UNL d   1      32.894  16.836 -24.751  0.00  0.00     0.002 A 
ATOM      7  C   UNL d   1      31.870  15.566 -25.073  0.00  0.00     0.006 A 
ATOM      8  C   UNL d   1      33.201  16.086 -24.922  0.00  0.00     0.000 A 
ATOM      9  C   UNL d   1      32.695  15.456 -25.082  0.00  0.00     0.001 A 
ENDROOT
BRANCH   2  10
ATOM     10  N   UNL d   1      31.869  18.377 -24.408  0.00  0.00    -0.207 NA
ATOM     11  C   UNL d   1      32.275  18.508 -23.702  0.00  0.00     0.284 C 
ATOM     12  O   UNL d   1      32.409  17.818 -23.184  0.00  0.00    -0.265 OA
BRANCH  11  13
ATOM     13  C   UNL d   1      32.511  19.280 -23.561  0.00  0.00     0.121 A 
ATOM     14  C   UNL d   1      32.539  19.542 -22.781  0.00  0.00     0.204 A 
ATOM     15  C   UNL d   1      32.773  20.317 -22.597  0.00  0.00     0.062 A 
ATOM     16  O   UNL d   1      32.323  19.006 -22.157  0.00  0.00    -0.286 OA
ATOM     17  C   UNL d   1      32.795  20.562 -21.817  0.00  0.00     0.005 A 
ATOM     18  C   UNL d   1      32.982  20.835 -23.212  0.00  0.00     0.103 A 
ATOM     19  C   UNL d   1      33.031  21.338 -21.653  0.00  0.00     0.000 A 
ATOM     20  C   UNL d   1      33.241  21.861 -22.251  0.00  0.00     0.002 A 
ATOM     21  C   UNL d   1      33.215  21.609 -23.020  0.00  0.00     0.025 A 
ATOM     22  O   UNL d   1      32.958  20.583 -23.994  0.00  0.00    -0.305 OA
ATOM     23  C   UNL d   1      32.723  19.806 -24.176  0.00  0.00     0.131 A 
ENDBRANCH  11  13
ENDBRANCH   2  10
BRANCH   1  24
ATOM     24  C   UNL d   1      30.208  17.938 -24.546  0.00  0.00     0.308 C 
ATOM     25  O   UNL d   1      30.104  18.581 -25.035  0.00  0.00    -0.258 OA
BRANCH  24  26
ATOM     26  O   UNL d   1      29.722  17.775 -23.939  0.00  0.00    -0.271 OA
BRANCH  26  27
ATOM     27  C   UNL d   1      28.829  17.821 -23.965  0.00  0.00     0.126 C 
ATOM     28  C   UNL d   1      28.383  17.183 -23.771  0.00  0.00     0.029 C 
ENDBRANCH  26  27
ENDBRANCH  24  26
ENDBRANCH   1  24
TORSDOF 5
ENDMDL
MODEL 2
REMARK VINA RESULT:       2.3      1.890      4.644
REMARK  5 active torsions:
REMARK  status: ('A' for Active; 'I' for Inactive)
REMARK    1  A    between atoms: C_12  and  C_1 
REMARK    2  A    between atoms: N_7  and  C_2 
REMARK    3  A    between atoms: C_3  and  C_6 
REMARK       I    between atoms: C_6  and  N_7 
REMARK    4  A    between atoms: O_18  and  C_12 
REMARK    5  A    between atoms: C_23  and  O_18 
ROOT
ATOM      1  C   UNL d   1      32.700  17.429 -24.281  0.00  0.00     0.111 A 
ATOM      2  C   UNL d   1      31.996  17.702 -24.521  0.00  0.00     0.096 A 
ATOM      3  S   UNL d   1      33.238  18.080 -24.302  0.00  0.00    -0.080 SA
ATOM      4  C   UNL d   1      32.043  18.499 -24.698  0.00  0.00     0.024 A 
ATOM      5  C   UNL d   1      32.821  18.734 -24.561  0.00  0.00     0.031 A 
ATOM      6  C   UNL d   1      31.481  19.044 -24.967  0.00  0.00     0.002 A 
ATOM      7  C   UNL d   1      33.051  19.515 -24.689  0.00  0.00     0.006 A 
ATOM      8  C   UNL d   1      31.709  19.830 -25.097  0.00  0.00     0.000 A 
ATOM      9  C   UNL d   1      32.487  20.065 -24.959  0.00  0.00     0.001 A 
ENDROOT
BRANCH   2  10
ATOM     10  N   UNL d   1      31.312  17.211 -24.574  0.00  0.00    -0.207 NA
ATOM     11  C   UNL d   1      30.613  17.446 -24.205  0.00  0.00     0.284 C 
ATOM     12  O   UNL d   1      30.625  18.204 -23.772  0.00  0.00    -0.265 OA
BRANCH  11  13
ATOM     13  C   UNL d   1      29.976  16.937 -24.285  0.00  0.00     0.121 A 
ATOM     14  C   UNL d   1      29.301  17.086 -23.837  0.00  0.00     0.204 A 
ATOM     15  C   UNL d   1      28.634  16.593 -23.889  0.00  0.00     0.062 A 
ATOM     16  O   UNL d   1      29.292  17.756 -23.314  0.00  0.00    -0.286 OA
ATOM     17  C   UNL d   1      27.972  16.755 -23.438  0.00  0.00     0.005 A 
ATOM     18  C   UNL d   1      28.652  15.940 -24.402  0.00  0.00     0.103 A 
ATOM     19  C   UNL d   1      27.317  16.253 -23.503  0.00  0.00     0.000 A 
ATOM     20  C   UNL d   1      27.320  15.604 -24.006  0.00  0.00     0.002 A 
ATOM     21  C   UNL d   1      27.980  15.453 -24.449  0.00  0.00     0.025 A 
ATOM     22  O   UNL d   1      29.321  15.783 -24.853  0.00  0.00    -0.305 OA
ATOM     23  C   UNL d   1      29.986  16.278 -24.799  0.00  0.00     0.131 A 
ENDBRANCH  11  13
ENDBRANCH   2  10
BRANCH   1  24
ATOM     24  C   UNL d   1      32.856  16.646 -24.056  0.00  0.00     0.308 C 
ATOM     25  O   UNL d   1      32.858  16.043 -24.603  0.00  0.00    -0.258 OA
BRANCH  24  26
ATOM     26  O   UNL d   1      33.001  16.529 -23.285  0.00  0.00    -0.271 OA
BRANCH  26  27
ATOM     27  C   UNL d   1      33.189  15.740 -22.908  0.00  0.00     0.126 C 
ATOM     28  C   UNL d   1      33.055  15.621 -22.125  0.00  0.00     0.029 C 
ENDBRANCH  26  27
ENDBRANCH  24  26
ENDBRANCH   1  24
TORSDOF 5
ENDMDL
