MODEL 1
REMARK VINA RESULT:      95.7      0.000      0.000
REMARK  4 active torsions:
REMARK  status: ('A' for Active; 'I' for Inactive)
REMARK    1  A    between atoms: C_16  and  N_3 
REMARK    2  A    between atoms: S_12  and  C_6 
REMARK    3  A    between atoms: C_10  and  C_14 
REMARK       I    between atoms: N_11  and  C_10 
REMARK    4  A    between atoms: C_14  and  S_12 
ROOT
ATOM      1  C   UNL d   1      60.357  49.667  51.608  0.00  0.00     0.155 A 
ATOM      2  C   UNL d   1      59.793  49.670  50.998  0.00  0.00     0.107 A 
ATOM      3  N   UNL d   1      59.317  49.682  52.575  0.00  0.00    -0.252 N 
ATOM      4  C   UNL d   1      60.117  49.673  52.385  0.00  0.00     0.285 A 
ATOM      5  N   UNL d   1      58.992  49.679  51.189  0.00  0.00    -0.220 NA
ATOM      6  C   UNL d   1      58.754  49.685  51.977  0.00  0.00     0.182 A 
ATOM      7  N   UNL d   1      61.100  49.658  51.254  0.00  0.00    -0.239 NA
ATOM      8  C   UNL d   1      60.192  49.663  50.285  0.00  0.00     0.037 A 
ATOM      9  C   UNL d   1      60.999  49.656  50.437  0.00  0.00     0.083 A 
ATOM     10  O   UNL d   1      60.687  49.670  52.988  0.00  0.00    -0.265 OA
ATOM     11  C   UNL d   1      59.920  49.662  49.511  0.00  0.00     0.003 A 
ATOM     12  C   UNL d   1      61.533  49.647  49.816  0.00  0.00     0.019 A 
ATOM     13  C   UNL d   1      60.454  49.654  48.889  0.00  0.00     0.000 A 
ATOM     14  C   UNL d   1      61.264  49.647  49.050  0.00  0.00     0.002 A 
ENDROOT
BRANCH   6  15
ATOM     15  S   UNL d   1      56.643  49.699  50.247  0.00  0.00    -0.044 SA
BRANCH  15  16
ATOM     16  C   UNL d   1      56.046  48.986  50.231  0.00  0.00     0.099 C 
BRANCH  16  17
ATOM     17  C   UNL d   1      56.256  48.222  49.743  0.00  0.00     0.272 C 
ATOM     18  N   UNL d   1      56.278  47.398  50.157  0.00  0.00    -0.267 N 
ATOM     19  C   UNL d   1      56.482  46.653  49.682  0.00  0.00     0.110 A 
ATOM     20  C   UNL d   1      56.091  47.346  51.054  0.00  0.00     0.110 A 
ATOM     21  C   UNL d   1      56.506  45.819  50.095  0.00  0.00     0.142 A 
ATOM     22  O   UNL d   1      56.320  45.755  50.991  0.00  0.00    -0.300 OA
ATOM     23  C   UNL d   1      56.110  46.520  51.479  0.00  0.00     0.142 A 
ATOM     24  O   UNL d   1      56.443  48.279  48.841  0.00  0.00    -0.266 OA
ENDBRANCH  16  17
ENDBRANCH  15  16
ENDBRANCH   6  15
BRANCH   3  25
ATOM     25  C   UNL d   1      59.049  49.689  53.466  0.00  0.00     0.085 C 
ATOM     26  C   UNL d   1      58.171  49.504  53.684  0.00  0.00     0.021 C 
ENDBRANCH   3  25
TORSDOF 4
ENDMDL
