MODEL 1
REMARK VINA RESULT:      -7.8      0.000      0.000
REMARK  4 active torsions:
REMARK  status: ('A' for Active; 'I' for Inactive)
REMARK    1  A    between atoms: S_4  and  C_8 
REMARK    2  A    between atoms: N_9  and  S_4 
REMARK    3  A    between atoms: C_16  and  N_9 
REMARK    4  A    between atoms: C_12  and  C_16 
ROOT
ATOM      1  C   UNL d   1      53.388  34.762  54.353  0.00  0.00     0.339 A 
ATOM      2  N   UNL d   1      53.634  34.015  54.582  0.00  0.00    -0.256 N 
ATOM      3  N   UNL d   1      52.910  34.688  53.683  0.00  0.00    -0.256 N 
ATOM      4  C   UNL d   1      53.303  33.469  54.045  0.00  0.00     0.085 A 
ATOM      5  C   UNL d   1      52.858  33.888  53.492  0.00  0.00     0.085 A 
ATOM      6  C   UNL d   1      53.356  32.637  53.995  0.00  0.00     0.033 A 
ATOM      7  C   UNL d   1      52.963  32.233  53.393  0.00  0.00     0.118 A 
ATOM      8  C   UNL d   1      52.466  33.476  52.890  0.00  0.00     0.020 A 
ATOM      9  O   UNL d   1      53.587  35.481  54.734  0.00  0.00    -0.245 OA
ATOM     10  C   UNL d   1      52.518  32.653  52.841  0.00  0.00     0.016 A 
ATOM     11  C   UNL d   1      54.124  33.851  55.235  0.00  0.00     0.104 C 
ATOM     12  C   UNL d   1      52.551  35.314  53.281  0.00  0.00     0.104 C 
ENDROOT
BRANCH   7  13
ATOM     13  S   UNL d   1      53.016  31.410  53.343  0.00  0.00     0.327 S 
ATOM     14  O   UNL d   1      53.841  31.462  53.352  0.00  0.00    -0.186 OA
ATOM     15  O   UNL d   1      52.191  31.358  53.335  0.00  0.00    -0.186 OA
BRANCH  13  16
ATOM     16  N   UNL d   1      53.068  30.587  53.294  0.00  0.00    -0.312 NA
BRANCH  16  17
ATOM     17  C   UNL d   1      53.120  29.764  53.244  0.00  0.00     0.200 C 
BRANCH  17  18
ATOM     18  C   UNL d   1      53.206  29.313  53.930  0.00  0.00     0.133 A 
ATOM     19  O   UNL d   1      52.629  29.194  54.514  0.00  0.00    -0.302 OA
ATOM     20  C   UNL d   1      52.936  28.713  55.099  0.00  0.00     0.123 A 
ATOM     21  C   UNL d   1      53.717  28.525  54.884  0.00  0.00     0.029 A 
ATOM     22  C   UNL d   1      53.876  28.896  54.165  0.00  0.00     0.029 A 
ENDBRANCH  17  18
ENDBRANCH  16  17
ENDBRANCH  13  16
ENDBRANCH   7  13
TORSDOF 4
ENDMDL
MODEL 2
REMARK VINA RESULT:      -7.5      2.737      4.918
REMARK  4 active torsions:
REMARK  status: ('A' for Active; 'I' for Inactive)
REMARK    1  A    between atoms: S_4  and  C_8 
REMARK    2  A    between atoms: N_9  and  S_4 
REMARK    3  A    between atoms: C_16  and  N_9 
REMARK    4  A    between atoms: C_12  and  C_16 
ROOT
ATOM      1  C   UNL d   1      53.692  32.356  53.575  0.00  0.00     0.339 A 
ATOM      2  N   UNL d   1      52.971  32.208  53.214  0.00  0.00    -0.256 N 
ATOM      3  N   UNL d   1      53.722  33.155  53.784  0.00  0.00    -0.256 N 
ATOM      4  C   UNL d   1      52.548  32.926  53.198  0.00  0.00     0.085 A 
ATOM      5  C   UNL d   1      53.014  33.508  53.551  0.00  0.00     0.085 A 
ATOM      6  C   UNL d   1      51.791  33.119  52.904  0.00  0.00     0.033 A 
ATOM      7  C   UNL d   1      51.508  33.891  52.965  0.00  0.00     0.118 A 
ATOM      8  C   UNL d   1      52.723  34.281  53.609  0.00  0.00     0.020 A 
ATOM      9  O   UNL d   1      54.297  31.793  53.710  0.00  0.00    -0.245 OA
ATOM     10  C   UNL d   1      51.974  34.472  53.318  0.00  0.00     0.016 A 
ATOM     11  C   UNL d   1      52.725  31.468  52.922  0.00  0.00     0.104 C 
ATOM     12  C   UNL d   1      54.355  33.526  54.161  0.00  0.00     0.104 C 
ENDROOT
BRANCH   7  13
ATOM     13  S   UNL d   1      50.758  34.082  52.673  0.00  0.00     0.327 S 
ATOM     14  O   UNL d   1      50.410  33.710  53.325  0.00  0.00    -0.186 OA
ATOM     15  O   UNL d   1      51.106  34.454  52.023  0.00  0.00    -0.186 OA
BRANCH  13  16
ATOM     16  N   UNL d   1      50.009  34.273  52.382  0.00  0.00    -0.312 NA
BRANCH  16  17
ATOM     17  C   UNL d   1      49.260  34.464  52.091  0.00  0.00     0.200 C 
BRANCH  17  18
ATOM     18  C   UNL d   1      48.839  35.096  52.413  0.00  0.00     0.133 A 
ATOM     19  O   UNL d   1      48.800  35.299  53.217  0.00  0.00    -0.302 OA
ATOM     20  C   UNL d   1      48.325  35.960  53.302  0.00  0.00     0.123 A 
ATOM     21  C   UNL d   1      48.062  36.178  52.544  0.00  0.00     0.029 A 
ATOM     22  C   UNL d   1      48.381  35.644  52.003  0.00  0.00     0.029 A 
ENDBRANCH  17  18
ENDBRANCH  16  17
ENDBRANCH  13  16
ENDBRANCH   7  13
TORSDOF 4
ENDMDL
MODEL 3
REMARK VINA RESULT:      -7.3      3.033      4.205
REMARK  4 active torsions:
REMARK  status: ('A' for Active; 'I' for Inactive)
REMARK    1  A    between atoms: S_4  and  C_8 
REMARK    2  A    between atoms: N_9  and  S_4 
REMARK    3  A    between atoms: C_16  and  N_9 
REMARK    4  A    between atoms: C_12  and  C_16 
ROOT
ATOM      1  C   UNL d   1      48.436  35.229  52.004  0.00  0.00     0.339 A 
ATOM      2  N   UNL d   1      48.869  35.251  52.700  0.00  0.00    -0.256 N 
ATOM      3  N   UNL d   1      48.861  34.793  51.445  0.00  0.00    -0.256 N 
ATOM      4  C   UNL d   1      49.572  34.822  52.571  0.00  0.00     0.085 A 
ATOM      5  C   UNL d   1      49.564  34.542  51.795  0.00  0.00     0.085 A 
ATOM      6  C   UNL d   1      50.221  34.654  53.069  0.00  0.00     0.033 A 
ATOM      7  C   UNL d   1      50.854  34.208  52.787  0.00  0.00     0.118 A 
ATOM      8  C   UNL d   1      50.204  34.094  51.519  0.00  0.00     0.020 A 
ATOM      9  O   UNL d   1      47.690  35.587  51.880  0.00  0.00    -0.245 OA
ATOM     10  C   UNL d   1      50.845  33.928  52.012  0.00  0.00     0.016 A 
ATOM     11  C   UNL d   1      48.631  35.636  53.399  0.00  0.00     0.104 C 
ATOM     12  C   UNL d   1      48.616  34.642  50.672  0.00  0.00     0.104 C 
ENDROOT
BRANCH   7  13
ATOM     13  S   UNL d   1      51.496  34.042  53.280  0.00  0.00     0.327 S 
ATOM     14  O   UNL d   1      51.092  33.388  53.586  0.00  0.00    -0.186 OA
ATOM     15  O   UNL d   1      51.900  34.695  52.976  0.00  0.00    -0.186 OA
BRANCH  13  16
ATOM     16  N   UNL d   1      52.138  33.876  53.773  0.00  0.00    -0.312 NA
BRANCH  16  17
ATOM     17  C   UNL d   1      52.779  33.710  54.266  0.00  0.00     0.200 C 
BRANCH  17  18
ATOM     18  C   UNL d   1      53.357  33.170  54.027  0.00  0.00     0.133 A 
ATOM     19  O   UNL d   1      53.281  32.344  54.018  0.00  0.00    -0.302 OA
ATOM     20  C   UNL d   1      53.979  32.016  53.744  0.00  0.00     0.123 A 
ATOM     21  C   UNL d   1      54.501  32.641  53.578  0.00  0.00     0.029 A 
ATOM     22  C   UNL d   1      54.113  33.347  53.754  0.00  0.00     0.029 A 
ENDBRANCH  17  18
ENDBRANCH  16  17
ENDBRANCH  13  16
ENDBRANCH   7  13
TORSDOF 4
ENDMDL
MODEL 4
REMARK VINA RESULT:      -6.3      1.783      4.696
REMARK  4 active torsions:
REMARK  status: ('A' for Active; 'I' for Inactive)
REMARK    1  A    between atoms: S_4  and  C_8 
REMARK    2  A    between atoms: N_9  and  S_4 
REMARK    3  A    between atoms: C_16  and  N_9 
REMARK    4  A    between atoms: C_12  and  C_16 
ROOT
ATOM      1  C   UNL d   1      52.974  29.604  53.595  0.00  0.00     0.339 A 
ATOM      2  N   UNL d   1      52.345  30.107  53.440  0.00  0.00    -0.256 N 
ATOM      3  N   UNL d   1      53.668  30.052  53.618  0.00  0.00    -0.256 N 
ATOM      4  C   UNL d   1      52.655  30.878  53.366  0.00  0.00     0.085 A 
ATOM      5  C   UNL d   1      53.472  30.839  53.476  0.00  0.00     0.085 A 
ATOM      6  C   UNL d   1      52.289  31.612  53.210  0.00  0.00     0.033 A 
ATOM      7  C   UNL d   1      52.742  32.299  53.167  0.00  0.00     0.118 A 
ATOM      8  C   UNL d   1      53.921  31.534  53.431  0.00  0.00     0.020 A 
ATOM      9  O   UNL d   1      52.922  28.777  53.710  0.00  0.00    -0.245 OA
ATOM     10  C   UNL d   1      53.558  32.260  53.277  0.00  0.00     0.016 A 
ATOM     11  C   UNL d   1      51.550  29.872  53.373  0.00  0.00     0.104 C 
ATOM     12  C   UNL d   1      54.425  29.752  53.759  0.00  0.00     0.104 C 
ENDROOT
BRANCH   7  13
ATOM     13  S   UNL d   1      52.379  33.026  53.013  0.00  0.00     0.327 S 
ATOM     14  O   UNL d   1      52.484  32.906  52.201  0.00  0.00    -0.186 OA
ATOM     15  O   UNL d   1      52.275  33.146  53.823  0.00  0.00    -0.186 OA
BRANCH  13  16
ATOM     16  N   UNL d   1      52.017  33.752  52.859  0.00  0.00    -0.312 NA
BRANCH  16  17
ATOM     17  C   UNL d   1      51.654  34.478  52.705  0.00  0.00     0.200 C 
BRANCH  17  18
ATOM     18  C   UNL d   1      50.843  34.513  52.557  0.00  0.00     0.133 A 
ATOM     19  O   UNL d   1      50.473  34.382  51.825  0.00  0.00    -0.302 OA
ATOM     20  C   UNL d   1      49.664  34.469  51.916  0.00  0.00     0.123 A 
ATOM     21  C   UNL d   1      49.521  34.656  52.714  0.00  0.00     0.029 A 
ATOM     22  C   UNL d   1      50.248  34.681  53.101  0.00  0.00     0.029 A 
ENDBRANCH  17  18
ENDBRANCH  16  17
ENDBRANCH  13  16
ENDBRANCH   7  13
TORSDOF 4
ENDMDL
MODEL 5
REMARK VINA RESULT:      -6.2      3.844      5.162
REMARK  4 active torsions:
REMARK  status: ('A' for Active; 'I' for Inactive)
REMARK    1  A    between atoms: S_4  and  C_8 
REMARK    2  A    between atoms: N_9  and  S_4 
REMARK    3  A    between atoms: C_16  and  N_9 
REMARK    4  A    between atoms: C_12  and  C_16 
ROOT
ATOM      1  C   UNL d   1      47.497  36.183  52.650  0.00  0.00     0.339 A 
ATOM      2  N   UNL d   1      48.151  36.035  53.121  0.00  0.00    -0.256 N 
ATOM      3  N   UNL d   1      47.562  35.733  51.960  0.00  0.00    -0.256 N 
ATOM      4  C   UNL d   1      48.629  35.484  52.717  0.00  0.00     0.085 A 
ATOM      5  C   UNL d   1      48.263  35.300  52.002  0.00  0.00     0.085 A 
ATOM      6  C   UNL d   1      49.357  35.128  52.917  0.00  0.00     0.033 A 
ATOM      7  C   UNL d   1      49.711  34.591  52.400  0.00  0.00     0.118 A 
ATOM      8  C   UNL d   1      48.624  34.760  51.487  0.00  0.00     0.020 A 
ATOM      9  O   UNL d   1      46.868  36.704  52.835  0.00  0.00    -0.245 OA
ATOM     10  C   UNL d   1      49.344  34.407  51.686  0.00  0.00     0.016 A 
ATOM     11  C   UNL d   1      48.294  36.382  53.864  0.00  0.00     0.104 C 
ATOM     12  C   UNL d   1      47.015  35.724  51.342  0.00  0.00     0.104 C 
ENDROOT
BRANCH   7  13
ATOM     13  S   UNL d   1      50.432  34.238  52.599  0.00  0.00     0.327 S 
ATOM     14  O   UNL d   1      50.802  34.650  51.985  0.00  0.00    -0.186 OA
ATOM     15  O   UNL d   1      50.062  33.827  53.212  0.00  0.00    -0.186 OA
BRANCH  13  16
ATOM     16  N   UNL d   1      51.152  33.886  52.797  0.00  0.00    -0.312 NA
BRANCH  16  17
ATOM     17  C   UNL d   1      51.872  33.533  52.995  0.00  0.00     0.200 C 
BRANCH  17  18
ATOM     18  C   UNL d   1      52.391  33.913  53.513  0.00  0.00     0.133 A 
ATOM     19  O   UNL d   1      52.464  33.768  54.327  0.00  0.00    -0.302 OA
ATOM     20  C   UNL d   1      53.040  34.262  54.634  0.00  0.00     0.123 A 
ATOM     21  C   UNL d   1      53.333  34.724  54.008  0.00  0.00     0.029 A 
ATOM     22  C   UNL d   1      52.931  34.505  53.323  0.00  0.00     0.029 A 
ENDBRANCH  17  18
ENDBRANCH  16  17
ENDBRANCH  13  16
ENDBRANCH   7  13
TORSDOF 4
ENDMDL
MODEL 6
REMARK VINA RESULT:      -5.6      1.056      4.496
REMARK  4 active torsions:
REMARK  status: ('A' for Active; 'I' for Inactive)
REMARK    1  A    between atoms: S_4  and  C_8 
REMARK    2  A    between atoms: N_9  and  S_4 
REMARK    3  A    between atoms: C_16  and  N_9 
REMARK    4  A    between atoms: C_12  and  C_16 
ROOT
ATOM      1  C   UNL d   1      53.165  29.289  54.351  0.00  0.00     0.339 A 
ATOM      2  N   UNL d   1      53.322  30.035  54.655  0.00  0.00    -0.256 N 
ATOM      3  N   UNL d   1      52.956  29.369  53.556  0.00  0.00    -0.256 N 
ATOM      4  C   UNL d   1      53.207  30.584  54.039  0.00  0.00     0.085 A 
ATOM      5  C   UNL d   1      52.981  30.170  53.362  0.00  0.00     0.085 A 
ATOM      6  C   UNL d   1      53.282  31.416  54.014  0.00  0.00     0.033 A 
ATOM      7  C   UNL d   1      53.130  31.823  53.314  0.00  0.00     0.118 A 
ATOM      8  C   UNL d   1      52.830  30.587  52.662  0.00  0.00     0.020 A 
ATOM      9  O   UNL d   1      53.211  28.569  54.774  0.00  0.00    -0.245 OA
ATOM     10  C   UNL d   1      52.904  31.409  52.638  0.00  0.00     0.016 A 
ATOM     11  C   UNL d   1      53.552  30.193  55.439  0.00  0.00     0.104 C 
ATOM     12  C   UNL d   1      52.756  28.747  53.050  0.00  0.00     0.104 C 
ENDROOT
BRANCH   7  13
ATOM     13  S   UNL d   1      53.204  32.647  53.289  0.00  0.00     0.327 S 
ATOM     14  O   UNL d   1      54.027  32.573  53.295  0.00  0.00    -0.186 OA
ATOM     15  O   UNL d   1      52.381  32.720  53.283  0.00  0.00    -0.186 OA
BRANCH  13  16
ATOM     16  N   UNL d   1      53.278  33.469  53.265  0.00  0.00    -0.312 NA
BRANCH  16  17
ATOM     17  C   UNL d   1      53.352  34.291  53.241  0.00  0.00     0.200 C 
BRANCH  17  18
ATOM     18  C   UNL d   1      53.218  34.739  53.921  0.00  0.00     0.133 A 
ATOM     19  O   UNL d   1      53.700  34.759  54.597  0.00  0.00    -0.302 OA
ATOM     20  C   UNL d   1      53.371  35.272  55.143  0.00  0.00     0.123 A 
ATOM     21  C   UNL d   1      52.674  35.580  54.809  0.00  0.00     0.029 A 
ATOM     22  C   UNL d   1      52.586  35.249  54.060  0.00  0.00     0.029 A 
ENDBRANCH  17  18
ENDBRANCH  16  17
ENDBRANCH  13  16
ENDBRANCH   7  13
TORSDOF 4
ENDMDL
MODEL 7
REMARK VINA RESULT:      -5.1      9.948     10.903
REMARK  4 active torsions:
REMARK  status: ('A' for Active; 'I' for Inactive)
REMARK    1  A    between atoms: S_4  and  C_8 
REMARK    2  A    between atoms: N_9  and  S_4 
REMARK    3  A    between atoms: C_16  and  N_9 
REMARK    4  A    between atoms: C_12  and  C_16 
ROOT
ATOM      1  C   UNL d   1      44.419  29.949  62.445  0.00  0.00     0.339 A 
ATOM      2  N   UNL d   1      44.531  29.366  61.879  0.00  0.00    -0.256 N 
ATOM      3  N   UNL d   1      44.418  30.684  62.067  0.00  0.00    -0.256 N 
ATOM      4  C   UNL d   1      44.601  29.745  61.140  0.00  0.00     0.085 A 
ATOM      5  C   UNL d   1      44.531  30.558  61.260  0.00  0.00     0.085 A 
ATOM      6  C   UNL d   1      44.721  29.445  60.371  0.00  0.00     0.033 A 
ATOM      7  C   UNL d   1      44.769  29.961  59.729  0.00  0.00     0.118 A 
ATOM      8  C   UNL d   1      44.581  31.070  60.611  0.00  0.00     0.020 A 
ATOM      9  O   UNL d   1      44.321  29.822  63.266  0.00  0.00    -0.245 OA
ATOM     10  C   UNL d   1      44.699  30.773  59.849  0.00  0.00     0.016 A 
ATOM     11  C   UNL d   1      44.565  28.549  62.035  0.00  0.00     0.104 C 
ATOM     12  C   UNL d   1      44.321  31.413  62.442  0.00  0.00     0.104 C 
ENDROOT
BRANCH   7  13
ATOM     13  S   UNL d   1      44.888  29.663  58.966  0.00  0.00     0.327 S 
ATOM     14  O   UNL d   1      45.462  30.243  58.830  0.00  0.00    -0.186 OA
ATOM     15  O   UNL d   1      44.314  29.085  59.103  0.00  0.00    -0.186 OA
BRANCH  13  16
ATOM     16  N   UNL d   1      45.006  29.366  58.205  0.00  0.00    -0.312 NA
BRANCH  16  17
ATOM     17  C   UNL d   1      45.124  29.069  57.443  0.00  0.00     0.200 C 
BRANCH  17  18
ATOM     18  C   UNL d   1      45.202  28.256  57.323  0.00  0.00     0.133 A 
ATOM     19  O   UNL d   1      45.811  27.774  57.616  0.00  0.00    -0.302 OA
ATOM     20  C   UNL d   1      45.682  27.004  57.371  0.00  0.00     0.123 A 
ATOM     21  C   UNL d   1      44.984  26.999  56.919  0.00  0.00     0.029 A 
ATOM     22  C   UNL d   1      44.695  27.770  56.894  0.00  0.00     0.029 A 
ENDBRANCH  17  18
ENDBRANCH  16  17
ENDBRANCH  13  16
ENDBRANCH   7  13
TORSDOF 4
ENDMDL
