MODEL 1
REMARK VINA RESULT:      70.8      0.000      0.000
REMARK  7 active torsions:
REMARK  status: ('A' for Active; 'I' for Inactive)
REMARK    1  A    between atoms: C_12  and  N_3 
REMARK    2  A    between atoms: C_10  and  C_4 
REMARK    3  A    between atoms: C_15  and  C_12 
REMARK    4  A    between atoms: N_14  and  C_21 
REMARK    5  A    between atoms: C_22  and  N_14 
REMARK    6  A    between atoms: C_21  and  C_15 
REMARK    7  A    between atoms: C_20  and  C_22 
ROOT
ATOM      1  C   UNL d   1      59.671  49.683  51.498  0.00  0.00     0.137 A 
ATOM      2  N   UNL d   1      60.324  49.686  50.974  0.00  0.00    -0.259 N 
ATOM      3  N   UNL d   1      59.799  49.682  52.318  0.00  0.00    -0.287 N 
ATOM      4  C   UNL d   1      58.900  49.681  51.196  0.00  0.00     0.054 A 
ATOM      5  C   UNL d   1      60.207  49.688  50.149  0.00  0.00     0.266 A 
ATOM      6  C   UNL d   1      61.221  49.687  52.107  0.00  0.00     0.084 A 
ATOM      7  C   UNL d   1      60.569  49.684  52.619  0.00  0.00     0.082 A 
ATOM      8  C   UNL d   1      58.772  49.682  50.370  0.00  0.00     0.009 A 
ATOM      9  C   UNL d   1      59.426  49.686  49.846  0.00  0.00     0.061 A 
ATOM     10  O   UNL d   1      60.851  49.691  49.633  0.00  0.00    -0.267 OA
ATOM     11  C   UNL d   1      61.988  49.689  52.406  0.00  0.00     0.019 A 
ATOM     12  C   UNL d   1      58.005  49.680  50.072  0.00  0.00     0.000 C 
ATOM     13  C   UNL d   1      60.698  49.683  53.440  0.00  0.00     0.019 A 
ATOM     14  C   UNL d   1      62.112  49.688  53.219  0.00  0.00     0.002 A 
ATOM     15  C   UNL d   1      61.465  49.685  53.737  0.00  0.00     0.002 A 
ENDROOT
BRANCH   3  16
ATOM     16  C   UNL d   1      59.150  49.679  52.827  0.00  0.00     0.126 C 
BRANCH  16  17
ATOM     17  C   UNL d   1      59.265  49.529  53.629  0.00  0.00     0.232 C 
ATOM     18  O   UNL d   1      60.018  49.362  53.922  0.00  0.00    -0.283 OA
BRANCH  17  19
ATOM     19  C   UNL d   1      58.624  49.543  54.148  0.00  0.00     0.142 C 
BRANCH  19  20
ATOM     20  N   UNL d   1      58.743  49.405  54.954  0.00  0.00    -0.239 NA
BRANCH  20  21
ATOM     21  C   UNL d   1      58.194  49.674  55.504  0.00  0.00     0.099 C 
BRANCH  21  22
ATOM     22  C   UNL d   1      57.481  49.274  55.603  0.00  0.00     0.019 A 
ATOM     23  C   UNL d   1      57.472  48.462  55.753  0.00  0.00     0.002 A 
ATOM     24  C   UNL d   1      56.759  48.066  55.850  0.00  0.00     0.000 A 
ATOM     25  C   UNL d   1      56.044  48.484  55.797  0.00  0.00     0.000 A 
ATOM     26  C   UNL d   1      56.057  49.295  55.647  0.00  0.00     0.000 A 
ATOM     27  C   UNL d   1      56.770  49.688  55.550  0.00  0.00     0.002 A 
ENDBRANCH  21  22
ENDBRANCH  20  21
ENDBRANCH  19  20
ENDBRANCH  17  19
ENDBRANCH  16  17
ENDBRANCH   3  16
BRANCH   4  28
ATOM     28  C   UNL d   1      58.257  49.678  51.712  0.00  0.00     0.125 C 
ATOM     29  N   UNL d   1      57.484  49.704  51.408  0.00  0.00    -0.146 N 
ENDBRANCH   4  28
TORSDOF 7
ENDMDL
