MODEL 1
REMARK VINA RESULT:       0.1      0.000      0.000
REMARK  5 active torsions:
REMARK  status: ('A' for Active; 'I' for Inactive)
REMARK    1  A    between atoms: O_8  and  C_1 
REMARK    2  A    between atoms: C_10  and  C_5 
REMARK    3  A    between atoms: C_12  and  O_8 
REMARK    4  A    between atoms: N_9  and  C_10 
REMARK    5  A    between atoms: O_24  and  C_17 
ROOT
ATOM      1  C   UNL d   1      33.192  20.550 -22.252  0.00  0.00     0.161 A 
ATOM      2  C   UNL d   1      33.094  19.228 -23.254  0.00  0.00     0.108 A 
ATOM      3  C   UNL d   1      33.094  20.001 -23.577  0.00  0.00     0.064 A 
ATOM      4  C   UNL d   1      33.143  20.654 -23.082  0.00  0.00     0.222 A 
ATOM      5  C   UNL d   1      33.045  18.567 -23.755  0.00  0.00     0.079 A 
ATOM      6  O   UNL d   1      33.143  19.115 -22.433  0.00  0.00    -0.305 OA
ATOM      7  C   UNL d   1      33.192  19.784 -21.931  0.00  0.00     0.126 A 
ATOM      8  C   UNL d   1      33.045  20.094 -24.402  0.00  0.00     0.009 A 
ATOM      9  C   UNL d   1      32.996  18.678 -24.574  0.00  0.00     0.199 A 
ATOM     10  O   UNL d   1      33.143  21.417 -23.396  0.00  0.00    -0.284 OA
ATOM     11  C   UNL d   1      32.996  19.437 -24.896  0.00  0.00     0.042 A 
ATOM     12  O   UNL d   1      32.948  18.020 -25.067  0.00  0.00    -0.286 OA
ATOM     13  C   UNL d   1      33.241  19.682 -21.117  0.00  0.00     0.029 C 
ENDROOT
BRANCH   1  14
ATOM     14  O   UNL d   1      33.241  21.206 -21.759  0.00  0.00    -0.300 OA
BRANCH  14  15
ATOM     15  C   UNL d   1      32.576  21.457 -21.342  0.00  0.00     0.122 A 
ATOM     16  C   UNL d   1      32.558  22.222 -21.028  0.00  0.00     0.117 A 
ATOM     17  C   UNL d   1      31.897  22.475 -20.612  0.00  0.00     0.026 A 
ATOM     18  C   UNL d   1      31.252  21.971 -20.508  0.00  0.00     0.002 A 
ATOM     19  C   UNL d   1      31.277  21.202 -20.827  0.00  0.00     0.002 A 
ATOM     20  C   UNL d   1      31.942  20.953 -21.243  0.00  0.00     0.027 A 
BRANCH  16  21
ATOM     21  O   UNL d   1      33.195  22.724 -21.130  0.00  0.00    -0.326 OA
ATOM     22  C   UNL d   1      33.212  23.459 -20.751  0.00  0.00     0.181 C 
ENDBRANCH  16  21
ENDBRANCH  14  15
ENDBRANCH   1  14
BRANCH   5  23
ATOM     23  C   UNL d   1      33.045  17.820 -23.438  0.00  0.00     0.086 C 
BRANCH  23  24
ATOM     24  N   UNL d   1      32.365  17.351 -23.486  0.00  0.00    -0.300 N 
ATOM     25  C   UNL d   1      32.432  16.530 -23.436  0.00  0.00     0.100 A 
ATOM     26  C   UNL d   1      31.755  16.063 -23.483  0.00  0.00     0.100 A 
ATOM     27  N   UNL d   1      31.014  16.415 -23.579  0.00  0.00    -0.299 N 
ATOM     28  C   UNL d   1      30.953  17.236 -23.628  0.00  0.00     0.100 A 
ATOM     29  C   UNL d   1      30.338  15.948 -23.626  0.00  0.00     0.100 C 
ATOM     30  C   UNL d   1      31.632  17.705 -23.581  0.00  0.00     0.100 A 
ENDBRANCH  23  24
ENDBRANCH   5  23
TORSDOF 5
ENDMDL
MODEL 2
REMARK VINA RESULT:       1.9      1.798      3.395
REMARK  5 active torsions:
REMARK  status: ('A' for Active; 'I' for Inactive)
REMARK    1  A    between atoms: O_8  and  C_1 
REMARK    2  A    between atoms: C_10  and  C_5 
REMARK    3  A    between atoms: C_12  and  O_8 
REMARK    4  A    between atoms: N_9  and  C_10 
REMARK    5  A    between atoms: O_24  and  C_17 
ROOT
ATOM      1  C   UNL d   1      32.145  18.682 -24.412  0.00  0.00     0.161 A 
ATOM      2  C   UNL d   1      31.059  17.424 -24.389  0.00  0.00     0.108 A 
ATOM      3  C   UNL d   1      31.818  17.329 -24.048  0.00  0.00     0.064 A 
ATOM      4  C   UNL d   1      32.355  17.951 -24.060  0.00  0.00     0.222 A 
ATOM      5  C   UNL d   1      30.516  16.796 -24.378  0.00  0.00     0.079 A 
ATOM      6  O   UNL d   1      30.842  18.144 -24.740  0.00  0.00    -0.305 OA
ATOM      7  C   UNL d   1      31.392  18.776 -24.749  0.00  0.00     0.126 A 
ATOM      8  C   UNL d   1      32.017  16.600 -23.701  0.00  0.00     0.009 A 
ATOM      9  C   UNL d   1      30.730  16.077 -24.028  0.00  0.00     0.199 A 
ATOM     10  O   UNL d   1      33.104  17.861 -23.725  0.00  0.00    -0.284 OA
ATOM     11  C   UNL d   1      31.477  15.980 -23.692  0.00  0.00     0.042 A 
ATOM     12  O   UNL d   1      30.189  15.456 -24.019  0.00  0.00    -0.286 OA
ATOM     13  C   UNL d   1      31.186  19.494 -25.095  0.00  0.00     0.029 C 
ENDROOT
BRANCH   1  14
ATOM     14  O   UNL d   1      32.685  19.302 -24.421  0.00  0.00    -0.300 OA
BRANCH  14  15
ATOM     15  C   UNL d   1      32.828  19.733 -23.734  0.00  0.00     0.122 A 
ATOM     16  C   UNL d   1      33.082  20.518 -23.792  0.00  0.00     0.117 A 
ATOM     17  C   UNL d   1      33.225  20.950 -23.108  0.00  0.00     0.026 A 
ATOM     18  C   UNL d   1      33.117  20.605 -22.366  0.00  0.00     0.002 A 
ATOM     19  C   UNL d   1      32.861  19.814 -22.315  0.00  0.00     0.002 A 
ATOM     20  C   UNL d   1      32.718  19.385 -23.003  0.00  0.00     0.027 A 
BRANCH  16  21
ATOM     21  O   UNL d   1      33.190  20.862 -24.524  0.00  0.00    -0.326 OA
ATOM     22  C   UNL d   1      33.234  21.685 -24.596  0.00  0.00     0.181 C 
ENDBRANCH  16  21
ENDBRANCH  14  15
ENDBRANCH   1  14
BRANCH   5  23
ATOM     23  C   UNL d   1      29.781  16.891 -24.709  0.00  0.00     0.086 C 
BRANCH  23  24
ATOM     24  N   UNL d   1      29.114  16.954 -24.223  0.00  0.00    -0.300 N 
ATOM     25  C   UNL d   1      28.945  16.352 -23.684  0.00  0.00     0.100 A 
ATOM     26  C   UNL d   1      28.281  16.413 -23.201  0.00  0.00     0.100 A 
ATOM     27  N   UNL d   1      27.789  17.074 -23.255  0.00  0.00    -0.299 N 
ATOM     28  C   UNL d   1      27.962  17.673 -23.795  0.00  0.00     0.100 A 
ATOM     29  C   UNL d   1      27.125  17.135 -22.771  0.00  0.00     0.100 C 
ATOM     30  C   UNL d   1      28.628  17.611 -24.280  0.00  0.00     0.100 A 
ENDBRANCH  23  24
ENDBRANCH   5  23
TORSDOF 5
ENDMDL
MODEL 3
REMARK VINA RESULT:       1.9      1.319      2.102
REMARK  5 active torsions:
REMARK  status: ('A' for Active; 'I' for Inactive)
REMARK    1  A    between atoms: O_8  and  C_1 
REMARK    2  A    between atoms: C_10  and  C_5 
REMARK    3  A    between atoms: C_12  and  O_8 
REMARK    4  A    between atoms: N_9  and  C_10 
REMARK    5  A    between atoms: O_24  and  C_17 
ROOT
ATOM      1  C   UNL d   1      33.240  21.508 -21.458  0.00  0.00     0.161 A 
ATOM      2  C   UNL d   1      33.240  20.054 -22.263  0.00  0.00     0.108 A 
ATOM      3  C   UNL d   1      33.240  20.070 -21.426  0.00  0.00     0.064 A 
ATOM      4  C   UNL d   1      33.240  20.789 -21.028  0.00  0.00     0.222 A 
ATOM      5  C   UNL d   1      33.240  19.328 -22.666  0.00  0.00     0.079 A 
ATOM      6  O   UNL d   1      33.240  20.761 -22.698  0.00  0.00    -0.305 OA
ATOM      7  C   UNL d   1      33.240  21.492 -22.288  0.00  0.00     0.126 A 
ATOM      8  C   UNL d   1      33.240  19.351 -21.008  0.00  0.00     0.009 A 
ATOM      9  C   UNL d   1      33.240  18.622 -22.235  0.00  0.00     0.199 A 
ATOM     10  O   UNL d   1      33.240  20.808 -20.203  0.00  0.00    -0.284 OA
ATOM     11  C   UNL d   1      33.239  18.633 -21.410  0.00  0.00     0.042 A 
ATOM     12  O   UNL d   1      33.239  17.903 -22.638  0.00  0.00    -0.286 OA
ATOM     13  C   UNL d   1      33.241  22.198 -22.710  0.00  0.00     0.029 C 
ENDROOT
BRANCH   1  14
ATOM     14  O   UNL d   1      33.240  22.225 -21.056  0.00  0.00    -0.300 OA
BRANCH  14  15
ATOM     15  C   UNL d   1      32.564  22.694 -21.053  0.00  0.00     0.122 A 
ATOM     16  C   UNL d   1      32.358  23.106 -20.366  0.00  0.00     0.117 A 
ATOM     17  C   UNL d   1      31.684  23.575 -20.359  0.00  0.00     0.026 A 
ATOM     18  C   UNL d   1      31.212  23.636 -21.033  0.00  0.00     0.002 A 
ATOM     19  C   UNL d   1      31.424  23.218 -21.722  0.00  0.00     0.002 A 
ATOM     20  C   UNL d   1      32.101  22.750 -21.724  0.00  0.00     0.027 A 
BRANCH  16  21
ATOM     21  O   UNL d   1      32.823  23.049 -19.697  0.00  0.00    -0.326 OA
ATOM     22  C   UNL d   1      32.542  23.322 -18.968  0.00  0.00     0.181 C 
ENDBRANCH  16  21
ENDBRANCH  14  15
ENDBRANCH   1  14
BRANCH   5  23
ATOM     23  C   UNL d   1      33.240  19.316 -23.478  0.00  0.00     0.086 C 
BRANCH  23  24
ATOM     24  N   UNL d   1      32.664  18.884 -23.885  0.00  0.00    -0.300 N 
ATOM     25  C   UNL d   1      31.875  18.930 -23.646  0.00  0.00     0.100 A 
ATOM     26  C   UNL d   1      31.301  18.500 -24.050  0.00  0.00     0.100 A 
ATOM     27  N   UNL d   1      31.515  18.026 -24.692  0.00  0.00    -0.299 N 
ATOM     28  C   UNL d   1      32.304  17.983 -24.928  0.00  0.00     0.100 A 
ATOM     29  C   UNL d   1      30.940  17.596 -25.097  0.00  0.00     0.100 C 
ATOM     30  C   UNL d   1      32.880  18.415 -24.521  0.00  0.00     0.100 A 
ENDBRANCH  23  24
ENDBRANCH   5  23
TORSDOF 5
ENDMDL
MODEL 4
REMARK VINA RESULT:       2.8      1.227      1.852
REMARK  5 active torsions:
REMARK  status: ('A' for Active; 'I' for Inactive)
REMARK    1  A    between atoms: O_8  and  C_1 
REMARK    2  A    between atoms: C_10  and  C_5 
REMARK    3  A    between atoms: C_12  and  O_8 
REMARK    4  A    between atoms: N_9  and  C_10 
REMARK    5  A    between atoms: O_24  and  C_17 
ROOT
ATOM      1  C   UNL d   1      32.818  20.203 -23.014  0.00  0.00     0.161 A 
ATOM      2  C   UNL d   1      32.510  18.657 -23.538  0.00  0.00     0.108 A 
ATOM      3  C   UNL d   1      32.801  18.787 -22.764  0.00  0.00     0.064 A 
ATOM      4  C   UNL d   1      32.953  19.551 -22.505  0.00  0.00     0.222 A 
ATOM      5  C   UNL d   1      32.356  17.884 -23.801  0.00  0.00     0.079 A 
ATOM      6  O   UNL d   1      32.373  19.296 -24.050  0.00  0.00    -0.305 OA
ATOM      7  C   UNL d   1      32.530  20.074 -23.782  0.00  0.00     0.126 A 
ATOM      8  C   UNL d   1      32.931  18.133 -22.266  0.00  0.00     0.009 A 
ATOM      9  C   UNL d   1      32.491  17.245 -23.293  0.00  0.00     0.199 A 
ATOM     10  O   UNL d   1      33.240  19.684 -21.743  0.00  0.00    -0.284 OA
ATOM     11  C   UNL d   1      32.778  17.369 -22.529  0.00  0.00     0.042 A 
ATOM     12  O   UNL d   1      32.337  16.480 -23.556  0.00  0.00    -0.286 OA
ATOM     13  C   UNL d   1      32.398  20.714 -24.282  0.00  0.00     0.029 C 
ENDROOT
BRANCH   1  14
ATOM     14  O   UNL d   1      32.972  20.967 -22.751  0.00  0.00    -0.300 OA
BRANCH  14  15
ATOM     15  C   UNL d   1      32.600  21.251 -22.074  0.00  0.00     0.122 A 
ATOM     16  C   UNL d   1      32.736  22.030 -21.832  0.00  0.00     0.117 A 
ATOM     17  C   UNL d   1      32.366  22.316 -21.156  0.00  0.00     0.026 A 
ATOM     18  C   UNL d   1      31.861  21.830 -20.720  0.00  0.00     0.002 A 
ATOM     19  C   UNL d   1      31.729  21.047 -20.970  0.00  0.00     0.002 A 
ATOM     20  C   UNL d   1      32.101  20.764 -21.647  0.00  0.00     0.027 A 
BRANCH  16  21
ATOM     21  O   UNL d   1      33.235  22.513 -22.261  0.00  0.00    -0.326 OA
ATOM     22  C   UNL d   1      33.077  23.322 -22.328  0.00  0.00     0.181 C 
ENDBRANCH  16  21
ENDBRANCH  14  15
ENDBRANCH   1  14
BRANCH   5  23
ATOM     23  C   UNL d   1      32.074  17.761 -24.552  0.00  0.00     0.086 C 
BRANCH  23  24
ATOM     24  N   UNL d   1      31.267  17.623 -24.674  0.00  0.00    -0.300 N 
ATOM     25  C   UNL d   1      30.792  18.226 -24.976  0.00  0.00     0.100 A 
ATOM     26  C   UNL d   1      29.989  18.090 -25.097  0.00  0.00     0.100 A 
ATOM     27  N   UNL d   1      29.662  17.354 -24.916  0.00  0.00    -0.299 N 
ATOM     28  C   UNL d   1      30.141  16.754 -24.614  0.00  0.00     0.100 A 
ATOM     29  C   UNL d   1      28.859  17.218 -25.037  0.00  0.00     0.100 C 
ATOM     30  C   UNL d   1      30.947  16.891 -24.493  0.00  0.00     0.100 A 
ENDBRANCH  23  24
ENDBRANCH   5  23
TORSDOF 5
ENDMDL
