MODEL 1
REMARK VINA RESULT:       3.1      0.000      0.000
REMARK  3 active torsions:
REMARK  status: ('A' for Active; 'I' for Inactive)
REMARK    1  A    between atoms: S_6  and  C_1 
REMARK    2  A    between atoms: C_9  and  S_6 
REMARK    3  A    between atoms: C_7  and  C_9 
ROOT
ATOM      1  C   UNL d   1      24.372  12.455  -2.496  0.00  0.00     0.191 A 
ATOM      2  N   UNL d   1      23.690  12.185  -2.144  0.00  0.00    -0.220 NA
ATOM      3  N   UNL d   1      24.744  12.977  -2.000  0.00  0.00    -0.220 NA
ATOM      4  C   UNL d   1      23.646  12.550  -1.418  0.00  0.00     0.101 A 
ATOM      5  C   UNL d   1      24.301  13.042  -1.328  0.00  0.00     0.101 A 
ATOM      6  C   UNL d   1      23.080  12.493  -0.819  0.00  0.00     0.021 A 
ATOM      7  C   UNL d   1      24.383  13.472  -0.640  0.00  0.00     0.021 A 
ATOM      8  C   UNL d   1      23.833  13.429  -0.035  0.00  0.00     0.002 A 
ATOM      9  C   UNL d   1      23.178  12.936  -0.125  0.00  0.00     0.002 A 
ENDROOT
BRANCH   1  10
ATOM     10  S   UNL d   1      24.641  12.233  -3.239  0.00  0.00    -0.064 SA
BRANCH  10  11
ATOM     11  C   UNL d   1      24.755  12.801  -3.826  0.00  0.00     0.162 C 
BRANCH  11  12
ATOM     12  C   UNL d   1      24.759  12.578  -4.635  0.00  0.00     0.197 C 
ATOM     13  O   UNL d   1      24.753  11.784  -4.835  0.00  0.00    -0.647 OA
ATOM     14  O   UNL d   1      24.767  13.164  -5.216  0.00  0.00    -0.647 OA
ENDBRANCH  11  12
ENDBRANCH  10  11
ENDBRANCH   1  10
TORSDOF 3
ENDMDL
