MODEL 1
REMARK VINA RESULT:      -3.3      0.000      0.000
REMARK  5 active torsions:
REMARK  status: ('A' for Active; 'I' for Inactive)
REMARK    1  A    between atoms: N_2  and  C_7 
REMARK    2  A    between atoms: N_11  and  C_3 
REMARK    3  A    between atoms: C_9  and  C_4 
REMARK    4  A    between atoms: C_18  and  N_11 
REMARK    5  A    between atoms: C_16  and  C_18 
ROOT
ATOM      1  N   UNL d   1      33.013  22.500 -19.940  0.00  0.00    -0.222 NA
ATOM      2  C   UNL d   1      32.828  23.267 -19.704  0.00  0.00     0.172 A 
ATOM      3  C   UNL d   1      32.793  22.418 -20.740  0.00  0.00     0.090 A 
ATOM      4  S   UNL d   1      32.500  23.654 -20.341  0.00  0.00    -0.048 SA
ATOM      5  C   UNL d   1      32.478  23.136 -20.974  0.00  0.00     0.057 A 
ENDROOT
BRANCH   3   6
ATOM      6  C   UNL d   1      32.893  21.714 -21.181  0.00  0.00     0.018 A 
ATOM      7  C   UNL d   1      32.739  20.988 -20.819  0.00  0.00     0.003 A 
ATOM      8  C   UNL d   1      32.838  20.294 -21.255  0.00  0.00     0.024 A 
ATOM      9  C   UNL d   1      33.088  20.345 -22.040  0.00  0.00     0.127 A 
ATOM     10  C   UNL d   1      33.241  21.058 -22.403  0.00  0.00     0.024 A 
ATOM     11  C   UNL d   1      33.141  21.761 -21.961  0.00  0.00     0.003 A 
BRANCH   9  12
ATOM     12  N   UNL d   1      33.186  19.656 -22.472  0.00  0.00    -0.114 N 
ATOM     13  O   UNL d   1      33.240  18.924 -22.087  0.00  0.00    -0.532 OA
ATOM     14  O   UNL d   1      33.232  19.676 -23.289  0.00  0.00    -0.532 OA
ENDBRANCH   9  12
ENDBRANCH   3   6
BRANCH   2  15
ATOM     15  N   UNL d   1      32.943  23.602 -18.967  0.00  0.00    -0.332 N 
ATOM     16  H   UNL d   1      33.147  24.406 -18.906  0.00  0.00     0.168 HD
BRANCH  15  17
ATOM     17  C   UNL d   1      32.859  23.143 -18.277  0.00  0.00     0.074 C 
BRANCH  17  18
ATOM     18  C   UNL d   1      33.011  23.458 -17.547  0.00  0.00     0.018 C 
ATOM     19  C   UNL d   1      32.793  23.046 -16.840  0.00  0.00     0.002 C 
ENDBRANCH  17  18
ENDBRANCH  15  17
ENDBRANCH   2  15
TORSDOF 5
ENDMDL
MODEL 2
REMARK VINA RESULT:      -3.0      2.601      4.989
REMARK  5 active torsions:
REMARK  status: ('A' for Active; 'I' for Inactive)
REMARK    1  A    between atoms: N_2  and  C_7 
REMARK    2  A    between atoms: N_11  and  C_3 
REMARK    3  A    between atoms: C_9  and  C_4 
REMARK    4  A    between atoms: C_18  and  N_11 
REMARK    5  A    between atoms: C_16  and  C_18 
ROOT
ATOM      1  N   UNL d   1      32.811  19.963 -22.900  0.00  0.00    -0.222 NA
ATOM      2  C   UNL d   1      32.980  19.178 -23.079  0.00  0.00     0.172 A 
ATOM      3  C   UNL d   1      32.973  20.083 -22.091  0.00  0.00     0.090 A 
ATOM      4  S   UNL d   1      33.241  18.815 -22.398  0.00  0.00    -0.048 SA
ATOM      5  C   UNL d   1      33.237  19.367 -21.794  0.00  0.00     0.057 A 
ENDROOT
BRANCH   3   6
ATOM      6  C   UNL d   1      32.870  20.814 -21.697  0.00  0.00     0.018 A 
ATOM      7  C   UNL d   1      32.474  20.827 -20.974  0.00  0.00     0.003 A 
ATOM      8  C   UNL d   1      32.373  21.548 -20.585  0.00  0.00     0.024 A 
ATOM      9  C   UNL d   1      32.670  22.236 -20.931  0.00  0.00     0.127 A 
ATOM     10  C   UNL d   1      33.061  22.230 -21.645  0.00  0.00     0.024 A 
ATOM     11  C   UNL d   1      33.164  21.498 -22.039  0.00  0.00     0.003 A 
BRANCH   9  12
ATOM     12  N   UNL d   1      32.569  22.952 -20.546  0.00  0.00    -0.114 N 
ATOM     13  O   UNL d   1      32.185  23.581 -20.924  0.00  0.00    -0.532 OA
ATOM     14  O   UNL d   1      32.845  23.060 -19.783  0.00  0.00    -0.532 OA
ENDBRANCH   9  12
ENDBRANCH   3   6
BRANCH   2  15
ATOM     15  N   UNL d   1      32.906  18.806 -23.804  0.00  0.00    -0.332 N 
ATOM     16  H   UNL d   1      33.491  18.914 -24.385  0.00  0.00     0.168 HD
BRANCH  15  17
ATOM     17  C   UNL d   1      32.248  18.321 -23.965  0.00  0.00     0.074 C 
BRANCH  17  18
ATOM     18  C   UNL d   1      32.142  17.994 -24.698  0.00  0.00     0.018 C 
ATOM     19  C   UNL d   1      31.379  17.729 -24.950  0.00  0.00     0.002 C 
ENDBRANCH  17  18
ENDBRANCH  15  17
ENDBRANCH   2  15
TORSDOF 5
ENDMDL
MODEL 3
REMARK VINA RESULT:      -2.7      2.828      5.292
REMARK  5 active torsions:
REMARK  status: ('A' for Active; 'I' for Inactive)
REMARK    1  A    between atoms: N_2  and  C_7 
REMARK    2  A    between atoms: N_11  and  C_3 
REMARK    3  A    between atoms: C_9  and  C_4 
REMARK    4  A    between atoms: C_18  and  N_11 
REMARK    5  A    between atoms: C_16  and  C_18 
ROOT
ATOM      1  N   UNL d   1      32.575  19.176 -23.144  0.00  0.00    -0.222 NA
ATOM      2  C   UNL d   1      32.710  18.369 -23.229  0.00  0.00     0.172 A 
ATOM      3  C   UNL d   1      32.907  19.416 -22.419  0.00  0.00     0.090 A 
ATOM      4  S   UNL d   1      33.117  18.111 -22.573  0.00  0.00    -0.048 SA
ATOM      5  C   UNL d   1      33.238  18.750 -22.077  0.00  0.00     0.057 A 
ENDROOT
BRANCH   3   6
ATOM      6  C   UNL d   1      32.884  20.202 -22.132  0.00  0.00     0.018 A 
ATOM      7  C   UNL d   1      33.241  20.801 -22.573  0.00  0.00     0.003 A 
ATOM      8  C   UNL d   1      33.218  21.576 -22.291  0.00  0.00     0.024 A 
ATOM      9  C   UNL d   1      32.838  21.731 -21.574  0.00  0.00     0.127 A 
ATOM     10  C   UNL d   1      32.484  21.145 -21.134  0.00  0.00     0.024 A 
ATOM     11  C   UNL d   1      32.507  20.359 -21.421  0.00  0.00     0.003 A 
BRANCH   9  12
ATOM     12  N   UNL d   1      32.815  22.500 -21.294  0.00  0.00    -0.114 N 
ATOM     13  O   UNL d   1      32.362  23.075 -21.683  0.00  0.00    -0.532 OA
ATOM     14  O   UNL d   1      33.238  22.716 -20.627  0.00  0.00    -0.532 OA
ENDBRANCH   9  12
ENDBRANCH   3   6
BRANCH   2  15
ATOM     15  N   UNL d   1      32.485  17.890 -23.854  0.00  0.00    -0.332 N 
ATOM     16  H   UNL d   1      32.936  17.884 -24.553  0.00  0.00     0.168 HD
BRANCH  15  17
ATOM     17  C   UNL d   1      31.807  17.410 -23.794  0.00  0.00     0.074 C 
BRANCH  17  18
ATOM     18  C   UNL d   1      31.564  16.956 -24.419  0.00  0.00     0.018 C 
ATOM     19  C   UNL d   1      30.972  16.358 -24.319  0.00  0.00     0.002 C 
ENDBRANCH  17  18
ENDBRANCH  15  17
ENDBRANCH   2  15
TORSDOF 5
ENDMDL
MODEL 4
REMARK VINA RESULT:      -2.4      4.991      6.966
REMARK  5 active torsions:
REMARK  status: ('A' for Active; 'I' for Inactive)
REMARK    1  A    between atoms: N_2  and  C_7 
REMARK    2  A    between atoms: N_11  and  C_3 
REMARK    3  A    between atoms: C_9  and  C_4 
REMARK    4  A    between atoms: C_18  and  N_11 
REMARK    5  A    between atoms: C_16  and  C_18 
ROOT
ATOM      1  N   UNL d   1      30.629  16.580 -23.861  0.00  0.00    -0.222 NA
ATOM      2  C   UNL d   1      30.420  15.840 -24.155  0.00  0.00     0.172 A 
ATOM      3  C   UNL d   1      31.412  16.738 -24.100  0.00  0.00     0.090 A 
ATOM      4  S   UNL d   1      31.057  15.543 -24.567  0.00  0.00    -0.048 SA
ATOM      5  C   UNL d   1      31.664  16.092 -24.534  0.00  0.00     0.057 A 
ENDROOT
BRANCH   3   6
ATOM      6  C   UNL d   1      31.826  17.441 -23.908  0.00  0.00     0.018 A 
ATOM      7  C   UNL d   1      31.777  18.087 -24.419  0.00  0.00     0.003 A 
ATOM      8  C   UNL d   1      32.184  18.779 -24.231  0.00  0.00     0.024 A 
ATOM      9  C   UNL d   1      32.630  18.807 -23.536  0.00  0.00     0.127 A 
ATOM     10  C   UNL d   1      32.682  18.173 -23.028  0.00  0.00     0.024 A 
ATOM     11  C   UNL d   1      32.268  17.470 -23.219  0.00  0.00     0.003 A 
BRANCH   9  12
ATOM     12  N   UNL d   1      33.034  19.494 -23.349  0.00  0.00    -0.114 N 
ATOM     13  O   UNL d   1      33.241  19.657 -22.563  0.00  0.00    -0.532 OA
ATOM     14  O   UNL d   1      33.241  20.030 -23.932  0.00  0.00    -0.532 OA
ENDBRANCH   9  12
ENDBRANCH   3   6
BRANCH   2  15
ATOM     15  N   UNL d   1      29.706  15.453 -24.062  0.00  0.00    -0.332 N 
ATOM     16  H   UNL d   1      29.648  14.643 -24.246  0.00  0.00     0.168 HD
BRANCH  15  17
ATOM     17  C   UNL d   1      29.036  15.863 -23.784  0.00  0.00     0.074 C 
BRANCH  17  18
ATOM     18  C   UNL d   1      28.318  15.494 -23.725  0.00  0.00     0.018 C 
ATOM     19  C   UNL d   1      27.649  15.892 -23.391  0.00  0.00     0.002 C 
ENDBRANCH  17  18
ENDBRANCH  15  17
ENDBRANCH   2  15
TORSDOF 5
ENDMDL
MODEL 5
REMARK VINA RESULT:      -1.9      1.559      2.379
REMARK  5 active torsions:
REMARK  status: ('A' for Active; 'I' for Inactive)
REMARK    1  A    between atoms: N_2  and  C_7 
REMARK    2  A    between atoms: N_11  and  C_3 
REMARK    3  A    between atoms: C_9  and  C_4 
REMARK    4  A    between atoms: C_18  and  N_11 
REMARK    5  A    between atoms: C_16  and  C_18 
ROOT
ATOM      1  N   UNL d   1      32.969  20.678 -21.322  0.00  0.00    -0.222 NA
ATOM      2  C   UNL d   1      33.078  21.438 -21.026  0.00  0.00     0.172 A 
ATOM      3  C   UNL d   1      33.068  20.710 -22.149  0.00  0.00     0.090 A 
ATOM      4  S   UNL d   1      33.240  21.933 -21.652  0.00  0.00    -0.048 SA
ATOM      5  C   UNL d   1      33.235  21.488 -22.339  0.00  0.00     0.057 A 
ENDROOT
BRANCH   3   6
ATOM      6  C   UNL d   1      33.001  20.045 -22.653  0.00  0.00     0.018 A 
ATOM      7  C   UNL d   1      33.043  20.154 -23.470  0.00  0.00     0.003 A 
ATOM      8  C   UNL d   1      32.977  19.498 -23.966  0.00  0.00     0.024 A 
ATOM      9  C   UNL d   1      32.869  18.751 -23.633  0.00  0.00     0.127 A 
ATOM     10  C   UNL d   1      32.826  18.636 -22.827  0.00  0.00     0.024 A 
ATOM     11  C   UNL d   1      32.894  19.301 -22.324  0.00  0.00     0.003 A 
BRANCH   9  12
ATOM     12  N   UNL d   1      32.803  18.100 -24.125  0.00  0.00    -0.114 N 
ATOM     13  O   UNL d   1      32.297  18.121 -24.781  0.00  0.00    -0.532 OA
ATOM     14  O   UNL d   1      33.234  17.420 -23.981  0.00  0.00    -0.532 OA
ENDBRANCH   9  12
ENDBRANCH   3   6
BRANCH   2  15
ATOM     15  N   UNL d   1      33.035  21.678 -20.244  0.00  0.00    -0.332 N 
ATOM     16  H   UNL d   1      33.204  21.136 -19.636  0.00  0.00     0.168 HD
BRANCH  15  17
ATOM     17  C   UNL d   1      32.823  22.461 -20.054  0.00  0.00     0.074 C 
BRANCH  17  18
ATOM     18  C   UNL d   1      32.695  22.681 -19.286  0.00  0.00     0.018 C 
ATOM     19  C   UNL d   1      32.378  23.444 -19.098  0.00  0.00     0.002 C 
ENDBRANCH  17  18
ENDBRANCH  15  17
ENDBRANCH   2  15
TORSDOF 5
ENDMDL
MODEL 6
REMARK VINA RESULT:      -0.8      1.719      2.117
REMARK  5 active torsions:
REMARK  status: ('A' for Active; 'I' for Inactive)
REMARK    1  A    between atoms: N_2  and  C_7 
REMARK    2  A    between atoms: N_11  and  C_3 
REMARK    3  A    between atoms: C_9  and  C_4 
REMARK    4  A    between atoms: C_18  and  N_11 
REMARK    5  A    between atoms: C_16  and  C_18 
ROOT
ATOM      1  N   UNL d   1      32.582  22.561 -20.409  0.00  0.00    -0.222 NA
ATOM      2  C   UNL d   1      32.751  22.865 -19.663  0.00  0.00     0.172 A 
ATOM      3  C   UNL d   1      32.890  23.088 -20.977  0.00  0.00     0.090 A 
ATOM      4  S   UNL d   1      33.155  23.566 -19.762  0.00  0.00    -0.048 SA
ATOM      5  C   UNL d   1      33.240  23.702 -20.564  0.00  0.00     0.057 A 
ENDROOT
BRANCH   3   6
ATOM      6  C   UNL d   1      32.830  22.971 -21.803  0.00  0.00     0.018 A 
ATOM      7  C   UNL d   1      32.914  22.209 -22.108  0.00  0.00     0.003 A 
ATOM      8  C   UNL d   1      32.854  22.094 -22.923  0.00  0.00     0.024 A 
ATOM      9  C   UNL d   1      32.713  22.744 -23.411  0.00  0.00     0.127 A 
ATOM     10  C   UNL d   1      32.629  23.499 -23.117  0.00  0.00     0.024 A 
ATOM     11  C   UNL d   1      32.689  23.616 -22.290  0.00  0.00     0.003 A 
BRANCH   9  12
ATOM     12  N   UNL d   1      32.654  22.630 -24.220  0.00  0.00    -0.114 N 
ATOM     13  O   UNL d   1      32.369  23.236 -24.709  0.00  0.00    -0.532 OA
ATOM     14  O   UNL d   1      32.874  21.919 -24.560  0.00  0.00    -0.532 OA
ENDBRANCH   9  12
ENDBRANCH   3   6
BRANCH   2  15
ATOM     15  N   UNL d   1      32.558  22.539 -18.938  0.00  0.00    -0.332 N 
ATOM     16  H   UNL d   1      32.448  21.717 -18.871  0.00  0.00     0.168 HD
BRANCH  15  17
ATOM     17  C   UNL d   1      32.470  23.025 -18.267  0.00  0.00     0.074 C 
BRANCH  17  18
ATOM     18  C   UNL d   1      32.390  22.703 -17.529  0.00  0.00     0.018 C 
ATOM     19  C   UNL d   1      32.011  23.131 -16.905  0.00  0.00     0.002 C 
ENDBRANCH  17  18
ENDBRANCH  15  17
ENDBRANCH   2  15
TORSDOF 5
ENDMDL
MODEL 7
REMARK VINA RESULT:      -0.3      5.939      7.607
REMARK  5 active torsions:
REMARK  status: ('A' for Active; 'I' for Inactive)
REMARK    1  A    between atoms: N_2  and  C_7 
REMARK    2  A    between atoms: N_11  and  C_3 
REMARK    3  A    between atoms: C_9  and  C_4 
REMARK    4  A    between atoms: C_18  and  N_11 
REMARK    5  A    between atoms: C_16  and  C_18 
ROOT
ATOM      1  N   UNL d   1      29.126  16.669 -23.940  0.00  0.00    -0.222 NA
ATOM      2  C   UNL d   1      28.597  16.059 -24.099  0.00  0.00     0.172 A 
ATOM      3  C   UNL d   1      29.880  16.429 -24.203  0.00  0.00     0.090 A 
ATOM      4  S   UNL d   1      29.010  15.453 -24.453  0.00  0.00    -0.048 SA
ATOM      5  C   UNL d   1      29.794  15.678 -24.517  0.00  0.00     0.057 A 
ENDROOT
BRANCH   3   6
ATOM      6  C   UNL d   1      30.568  16.901 -24.139  0.00  0.00     0.018 A 
ATOM      7  C   UNL d   1      30.614  17.604 -24.568  0.00  0.00     0.003 A 
ATOM      8  C   UNL d   1      31.293  18.069 -24.504  0.00  0.00     0.024 A 
ATOM      9  C   UNL d   1      31.907  17.818 -24.013  0.00  0.00     0.127 A 
ATOM     10  C   UNL d   1      31.868  17.125 -23.587  0.00  0.00     0.024 A 
ATOM     11  C   UNL d   1      31.179  16.654 -23.652  0.00  0.00     0.003 A 
BRANCH   9  12
ATOM     12  N   UNL d   1      32.581  18.280 -23.950  0.00  0.00    -0.114 N 
ATOM     13  O   UNL d   1      32.798  18.606 -23.220  0.00  0.00    -0.532 OA
ATOM     14  O   UNL d   1      33.051  18.427 -24.604  0.00  0.00    -0.532 OA
ENDBRANCH   9  12
ENDBRANCH   3   6
BRANCH   2  15
ATOM     15  N   UNL d   1      27.795  16.042 -23.939  0.00  0.00    -0.332 N 
ATOM     16  H   UNL d   1      27.280  16.545 -24.356  0.00  0.00     0.168 HD
BRANCH  15  17
ATOM     17  C   UNL d   1      27.490  15.525 -23.362  0.00  0.00     0.074 C 
BRANCH  17  18
ATOM     18  C   UNL d   1      26.733  15.607 -23.088  0.00  0.00     0.018 C 
ATOM     19  C   UNL d   1      26.069  15.453 -23.591  0.00  0.00     0.002 C 
ENDBRANCH  17  18
ENDBRANCH  15  17
ENDBRANCH   2  15
TORSDOF 5
ENDMDL
