MODEL 1
REMARK VINA RESULT:      -4.3      0.000      0.000
REMARK  5 active torsions:
REMARK  status: ('A' for Active; 'I' for Inactive)
REMARK    1  A    between atoms: C_2  and  N_1 
REMARK    2  A    between atoms: C_4  and  C_7 
REMARK    3  A    between atoms: N_17  and  C_10 
REMARK    4  A    between atoms: C_20  and  N_17 
REMARK    5  A    between atoms: C_21  and  C_20 
ROOT
ATOM      1  C   UNL d   1      58.277  -1.106  29.942  0.00  0.00     0.144 A 
ATOM      2  C   UNL d   1      57.725  -1.236  30.549  0.00  0.00     0.027 A 
ATOM      3  C   UNL d   1      57.498  -0.606  31.044  0.00  0.00     0.021 A 
ATOM      4  C   UNL d   1      58.597  -0.356  29.830  0.00  0.00     0.103 A 
ATOM      5  C   UNL d   1      57.824   0.148  30.927  0.00  0.00     0.003 A 
ATOM      6  C   UNL d   1      58.372   0.267  30.319  0.00  0.00     0.021 A 
ENDROOT
BRANCH   3   7
ATOM      7  C   UNL d   1      56.952  -0.732  31.647  0.00  0.00     0.103 A 
ATOM      8  N   UNL d   1      56.800  -1.499  31.915  0.00  0.00    -0.145 NA
ATOM      9  N   UNL d   1      56.254  -1.625  32.518  0.00  0.00    -0.106 NA
ATOM     10  C   UNL d   1      55.857  -0.986  32.856  0.00  0.00     0.297 A 
ATOM     11  C   UNL d   1      56.007  -0.217  32.587  0.00  0.00     0.066 A 
ATOM     12  O   UNL d   1      55.310  -1.110  33.458  0.00  0.00    -0.264 OA
ATOM     13  C   UNL d   1      56.558  -0.087  31.979  0.00  0.00     0.024 A 
ATOM     14  C   UNL d   1      56.707   0.678  31.714  0.00  0.00     0.002 C 
ENDBRANCH   3   7
BRANCH   1  15
ATOM     15  N   UNL d   1      58.498  -1.738  29.453  0.00  0.00    -0.112 N 
ATOM     16  O   UNL d   1      59.095  -2.257  29.706  0.00  0.00    -0.532 OA
ATOM     17  O   UNL d   1      58.133  -1.854  28.724  0.00  0.00    -0.532 OA
ENDBRANCH   1  15
BRANCH   4  18
ATOM     18  N   UNL d   1      59.144  -0.231  29.226  0.00  0.00    -0.239 NA
BRANCH  18  19
ATOM     19  C   UNL d   1      59.568   0.479  29.193  0.00  0.00     0.144 C 
BRANCH  19  20
ATOM     20  C   UNL d   1      60.005   0.674  28.522  0.00  0.00     0.255 C 
ATOM     21  O   UNL d   1      60.821   0.568  28.507  0.00  0.00    -0.281 OA
ENDBRANCH  19  20
ENDBRANCH  18  19
ENDBRANCH   4  18
TORSDOF 5
ENDMDL
MODEL 2
REMARK VINA RESULT:      -2.0      1.956      2.911
REMARK  5 active torsions:
REMARK  status: ('A' for Active; 'I' for Inactive)
REMARK    1  A    between atoms: C_2  and  N_1 
REMARK    2  A    between atoms: C_4  and  C_7 
REMARK    3  A    between atoms: N_17  and  C_10 
REMARK    4  A    between atoms: C_20  and  N_17 
REMARK    5  A    between atoms: C_21  and  C_20 
ROOT
ATOM      1  C   UNL d   1      56.642  -0.814  32.282  0.00  0.00     0.144 A 
ATOM      2  C   UNL d   1      56.260  -0.667  33.005  0.00  0.00     0.027 A 
ATOM      3  C   UNL d   1      56.320   0.085  33.360  0.00  0.00     0.021 A 
ATOM      4  C   UNL d   1      57.078  -0.218  31.917  0.00  0.00     0.103 A 
ATOM      5  C   UNL d   1      56.761   0.682  32.988  0.00  0.00     0.003 A 
ATOM      6  C   UNL d   1      57.137   0.525  32.268  0.00  0.00     0.021 A 
ENDROOT
BRANCH   3   7
ATOM      7  C   UNL d   1      55.944   0.233  34.076  0.00  0.00     0.103 A 
ATOM      8  N   UNL d   1      56.346   0.114  34.788  0.00  0.00    -0.145 NA
ATOM      9  N   UNL d   1      55.969   0.262  35.506  0.00  0.00    -0.106 NA
ATOM     10  C   UNL d   1      55.190   0.532  35.514  0.00  0.00     0.297 A 
ATOM     11  C   UNL d   1      54.786   0.652  34.802  0.00  0.00     0.066 A 
ATOM     12  O   UNL d   1      54.812   0.681  36.230  0.00  0.00    -0.264 OA
ATOM     13  C   UNL d   1      55.164   0.503  34.077  0.00  0.00     0.024 A 
ATOM     14  C   UNL d   1      54.760   0.623  33.369  0.00  0.00     0.002 C 
ENDBRANCH   3   7
BRANCH   1  15
ATOM     15  N   UNL d   1      56.577  -1.564  31.935  0.00  0.00    -0.112 N 
ATOM     16  O   UNL d   1      55.844  -1.953  31.942  0.00  0.00    -0.532 OA
ATOM     17  O   UNL d   1      57.232  -1.923  31.586  0.00  0.00    -0.532 OA
ENDBRANCH   1  15
BRANCH   4  18
ATOM     18  N   UNL d   1      57.455  -0.368  31.200  0.00  0.00    -0.239 NA
BRANCH  18  19
ATOM     19  C   UNL d   1      57.532   0.236  30.640  0.00  0.00     0.144 C 
BRANCH  19  20
ATOM     20  C   UNL d   1      58.029   0.142  29.989  0.00  0.00     0.255 C 
ATOM     21  O   UNL d   1      57.832   0.467  29.259  0.00  0.00    -0.281 OA
ENDBRANCH  19  20
ENDBRANCH  18  19
ENDBRANCH   4  18
TORSDOF 5
ENDMDL
