MODEL 1
REMARK VINA RESULT:      52.5      0.000      0.000
REMARK  4 active torsions:
REMARK  status: ('A' for Active; 'I' for Inactive)
REMARK    1  A    between atoms: C_2  and  C_1 
REMARK       I    between atoms: N_5  and  C_2 
REMARK    2  A    between atoms: C_10  and  N_5 
REMARK    3  A    between atoms: O_9  and  C_11 
REMARK    4  A    between atoms: C_12  and  O_9 
ROOT
ATOM      1  C   UNL d   1     -50.721  26.428  33.436  0.00  0.00     0.085 A 
ATOM      2  C   UNL d   1     -49.441  27.452  33.499  0.00  0.00     0.100 A 
ATOM      3  C   UNL d   1     -49.951  26.129  33.364  0.00  0.00     0.021 A 
ATOM      4  C   UNL d   1     -50.846  27.237  33.539  0.00  0.00     0.021 A 
ATOM      5  C   UNL d   1     -49.314  26.640  33.396  0.00  0.00     0.026 A 
ATOM      6  C   UNL d   1     -50.195  27.745  33.569  0.00  0.00     0.026 A 
ENDROOT
BRANCH   1   7
ATOM      7  N   UNL d   1     -51.365  25.915  33.404  0.00  0.00    -0.206 NA
ATOM      8  C   UNL d   1     -51.239  25.096  33.408  0.00  0.00     0.303 C 
ATOM      9  O   UNL d   1     -50.472  24.801  33.443  0.00  0.00    -0.263 OA
BRANCH   8  10
ATOM     10  C   UNL d   1     -51.882  24.582  33.376  0.00  0.00     0.176 A 
ATOM     11  C   UNL d   1     -51.841  23.758  33.329  0.00  0.00     0.110 A 
ATOM     12  N   UNL d   1     -52.609  23.463  33.310  0.00  0.00    -0.233 NA
ATOM     13  C   UNL d   1     -51.154  23.314  33.307  0.00  0.00     0.023 C 
ATOM     14  C   UNL d   1     -53.131  24.112  33.344  0.00  0.00     0.259 A 
ATOM     15  O   UNL d   1     -52.673  24.799  33.385  0.00  0.00    -0.296 OA
ENDBRANCH   8  10
ENDBRANCH   1   7
BRANCH   2  16
ATOM     16  O   UNL d   1     -48.792  27.964  33.531  0.00  0.00    -0.307 OA
BRANCH  16  17
ATOM     17  C   UNL d   1     -48.488  28.196  34.246  0.00  0.00     0.100 A 
ATOM     18  C   UNL d   1     -47.668  28.190  34.360  0.00  0.00     0.025 A 
ATOM     19  C   UNL d   1     -47.363  28.427  35.088  0.00  0.00     0.002 A 
ATOM     20  C   UNL d   1     -47.866  28.671  35.706  0.00  0.00     0.000 A 
ATOM     21  C   UNL d   1     -48.697  28.672  35.575  0.00  0.00     0.002 A 
ATOM     22  C   UNL d   1     -48.982  28.432  34.842  0.00  0.00     0.025 A 
ENDBRANCH  16  17
ENDBRANCH   2  16
TORSDOF 4
ENDMDL
