MODEL 1
REMARK VINA RESULT:       3.7      0.000      0.000
REMARK  1 active torsions:
REMARK  status: ('A' for Active; 'I' for Inactive)
REMARK    1  A    between atoms: C_2  and  C_3 
ROOT
ATOM      1  C   UNL d   1     -51.653  24.841  33.324  0.00  0.00     0.002 A 
ATOM      2  C   UNL d   1     -50.878  24.555  33.313  0.00  0.00     0.000 A 
ATOM      3  C   UNL d   1     -51.789  25.655  33.330  0.00  0.00     0.000 A 
ATOM      4  C   UNL d   1     -50.242  25.082  33.310  0.00  0.00     0.000 A 
ATOM      5  C   UNL d   1     -51.153  26.182  33.327  0.00  0.00     0.000 A 
ATOM      6  C   UNL d   1     -50.379  25.895  33.316  0.00  0.00     0.000 A 
ENDROOT
BRANCH   1   7
ATOM      7  C   UNL d   1     -52.292  24.317  33.328  0.00  0.00     0.021 A 
ATOM      8  C   UNL d   1     -53.089  24.524  33.315  0.00  0.00     0.099 A 
ATOM      9  N   UNL d   1     -53.533  23.831  33.324  0.00  0.00    -0.242 NA
ATOM     10  C   UNL d   1     -53.008  23.192  33.343  0.00  0.00     0.099 A 
ATOM     11  C   UNL d   1     -52.241  23.492  33.345  0.00  0.00     0.022 A 
ENDBRANCH   1   7
TORSDOF 1
ENDMDL
MODEL 2
REMARK VINA RESULT:       4.7      1.330      2.716
REMARK  1 active torsions:
REMARK  status: ('A' for Active; 'I' for Inactive)
REMARK    1  A    between atoms: C_2  and  C_3 
ROOT
ATOM      1  C   UNL d   1     -51.600  24.801  33.339  0.00  0.00     0.002 A 
ATOM      2  C   UNL d   1     -52.397  24.590  33.310  0.00  0.00     0.000 A 
ATOM      3  C   UNL d   1     -51.020  24.214  33.363  0.00  0.00     0.000 A 
ATOM      4  C   UNL d   1     -52.614  23.793  33.306  0.00  0.00     0.000 A 
ATOM      5  C   UNL d   1     -51.238  23.417  33.359  0.00  0.00     0.000 A 
ATOM      6  C   UNL d   1     -52.035  23.207  33.331  0.00  0.00     0.000 A 
ENDROOT
BRANCH   1   7
ATOM      7  C   UNL d   1     -51.378  25.598  33.343  0.00  0.00     0.021 A 
ATOM      8  C   UNL d   1     -50.607  25.887  33.358  0.00  0.00     0.099 A 
ATOM      9  N   UNL d   1     -50.643  26.709  33.357  0.00  0.00    -0.242 NA
ATOM     10  C   UNL d   1     -51.439  26.930  33.341  0.00  0.00     0.099 A 
ATOM     11  C   UNL d   1     -51.895  26.243  33.333  0.00  0.00     0.022 A 
ENDBRANCH   1   7
TORSDOF 1
ENDMDL
