MODEL 1
REMARK VINA RESULT:      -2.8      0.000      0.000
REMARK  3 active torsions:
REMARK  status: ('A' for Active; 'I' for Inactive)
REMARK    1  A    between atoms: C_2  and  S_1 
REMARK    2  A    between atoms: N_3  and  S_1 
REMARK    3  A    between atoms: N_4  and  C_6 
ROOT
ATOM      1  C   UNL d   1      31.415  16.532 -23.911  0.00  0.00     0.116 A 
ATOM      2  C   UNL d   1      31.702  17.222 -23.542  0.00  0.00     0.037 A 
ATOM      3  C   UNL d   1      32.479  17.446 -23.664  0.00  0.00     0.127 A 
ATOM      4  C   UNL d   1      31.914  16.076 -24.397  0.00  0.00     0.070 A 
ATOM      5  C   UNL d   1      32.989  16.978 -24.163  0.00  0.00     0.024 A 
ATOM      6  C   UNL d   1      32.697  16.310 -24.514  0.00  0.00     0.014 A 
ATOM      7 CL   UNL d   1      31.606  15.455 -24.712  0.00  0.00    -0.082 Cl
ENDROOT
BRANCH   1   8
ATOM      8  S   UNL d   1      30.609  16.302 -23.783  0.00  0.00     0.273 S 
ATOM      9  O   UNL d   1      30.373  16.745 -24.445  0.00  0.00    -0.200 OA
ATOM     10  O   UNL d   1      30.843  15.845 -23.103  0.00  0.00    -0.200 OA
BRANCH   8  11
ATOM     11  N   UNL d   1      29.837  16.073 -23.650  0.00  0.00    -0.210 N 
ATOM     12  C   UNL d   1      29.549  15.507 -23.058  0.00  0.00     0.193 A 
ATOM     13  N   UNL d   1      28.717  15.472 -23.153  0.00  0.00    -0.222 NA
ATOM     14  C   UNL d   1      28.500  15.996 -23.781  0.00  0.00     0.120 A 
ATOM     15  C   UNL d   1      29.194  16.343 -24.060  0.00  0.00     0.114 A 
ENDBRANCH   8  11
ENDBRANCH   1   8
BRANCH   3  16
ATOM     16  N   UNL d   1      32.755  18.124 -23.299  0.00  0.00    -0.114 N 
ATOM     17  O   UNL d   1      32.682  18.873 -23.581  0.00  0.00    -0.532 OA
ATOM     18  O   UNL d   1      33.152  18.114 -22.578  0.00  0.00    -0.532 OA
ENDBRANCH   3  16
TORSDOF 3
ENDMDL
MODEL 2
REMARK VINA RESULT:      -2.6      1.211      3.396
REMARK  3 active torsions:
REMARK  status: ('A' for Active; 'I' for Inactive)
REMARK    1  A    between atoms: C_2  and  S_1 
REMARK    2  A    between atoms: N_3  and  S_1 
REMARK    3  A    between atoms: N_4  and  C_6 
ROOT
ATOM      1  C   UNL d   1      31.091  16.601 -24.142  0.00  0.00     0.116 A 
ATOM      2  C   UNL d   1      30.362  16.613 -23.739  0.00  0.00     0.037 A 
ATOM      3  C   UNL d   1      29.797  16.049 -23.916  0.00  0.00     0.127 A 
ATOM      4  C   UNL d   1      31.243  16.018 -24.719  0.00  0.00     0.070 A 
ATOM      5  C   UNL d   1      29.955  15.453 -24.507  0.00  0.00     0.024 A 
ATOM      6  C   UNL d   1      30.668  15.453 -24.890  0.00  0.00     0.014 A 
ATOM      7 CL   UNL d   1      31.923  16.047 -25.060  0.00  0.00    -0.082 Cl
ENDROOT
BRANCH   1   8
ATOM      8  S   UNL d   1      31.675  17.187 -23.957  0.00  0.00     0.273 S 
ATOM      9  O   UNL d   1      32.007  16.683 -23.387  0.00  0.00    -0.200 OA
ATOM     10  O   UNL d   1      31.340  17.710 -24.541  0.00  0.00    -0.200 OA
BRANCH   8  11
ATOM     11  N   UNL d   1      32.232  17.760 -23.789  0.00  0.00    -0.210 N 
ATOM     12  C   UNL d   1      32.413  18.471 -24.252  0.00  0.00     0.193 A 
ATOM     13  N   UNL d   1      33.025  18.869 -23.839  0.00  0.00    -0.222 NA
ATOM     14  C   UNL d   1      33.212  18.420 -23.147  0.00  0.00     0.120 A 
ATOM     15  C   UNL d   1      32.719  17.760 -23.144  0.00  0.00     0.114 A 
ENDBRANCH   8  11
ENDBRANCH   1   8
BRANCH   3  16
ATOM     16  N   UNL d   1      29.085  16.067 -23.517  0.00  0.00    -0.114 N 
ATOM     17  O   UNL d   1      28.435  16.491 -23.730  0.00  0.00    -0.532 OA
ATOM     18  O   UNL d   1      28.946  15.639 -22.827  0.00  0.00    -0.532 OA
ENDBRANCH   3  16
TORSDOF 3
ENDMDL
MODEL 3
REMARK VINA RESULT:      -2.2      1.873      2.718
REMARK  3 active torsions:
REMARK  status: ('A' for Active; 'I' for Inactive)
REMARK    1  A    between atoms: C_2  and  S_1 
REMARK    2  A    between atoms: N_3  and  S_1 
REMARK    3  A    between atoms: N_4  and  C_6 
ROOT
ATOM      1  C   UNL d   1      32.720  18.366 -23.625  0.00  0.00     0.116 A 
ATOM      2  C   UNL d   1      32.785  18.788 -22.909  0.00  0.00     0.037 A 
ATOM      3  C   UNL d   1      33.042  19.564 -22.924  0.00  0.00     0.127 A 
ATOM      4  C   UNL d   1      32.915  18.732 -24.348  0.00  0.00     0.070 A 
ATOM      5  C   UNL d   1      33.241  19.937 -23.666  0.00  0.00     0.024 A 
ATOM      6  C   UNL d   1      33.173  19.516 -24.354  0.00  0.00     0.014 A 
ATOM      7 CL   UNL d   1      32.839  18.307 -24.975  0.00  0.00    -0.082 Cl
ENDROOT
BRANCH   1   8
ATOM      8  S   UNL d   1      32.454  17.562 -23.607  0.00  0.00     0.273 S 
ATOM      9  O   UNL d   1      33.241  17.296 -23.605  0.00  0.00    -0.200 OA
ATOM     10  O   UNL d   1      31.643  17.825 -23.610  0.00  0.00    -0.200 OA
BRANCH   8  11
ATOM     11  N   UNL d   1      32.185  16.791 -23.590  0.00  0.00    -0.210 N 
ATOM     12  C   UNL d   1      31.378  16.511 -23.745  0.00  0.00     0.193 A 
ATOM     13  N   UNL d   1      31.399  15.677 -23.656  0.00  0.00    -0.222 NA
ATOM     14  C   UNL d   1      32.189  15.453 -23.453  0.00  0.00     0.120 A 
ATOM     15  C   UNL d   1      32.638  16.143 -23.421  0.00  0.00     0.114 A 
ENDBRANCH   8  11
ENDBRANCH   1   8
BRANCH   3  16
ATOM     16  N   UNL d   1      33.104  19.972 -22.219  0.00  0.00    -0.114 N 
ATOM     17  O   UNL d   1      33.211  19.644 -21.493  0.00  0.00    -0.532 OA
ATOM     18  O   UNL d   1      33.061  20.793 -22.172  0.00  0.00    -0.532 OA
ENDBRANCH   3  16
TORSDOF 3
ENDMDL
MODEL 4
REMARK VINA RESULT:      -1.9      5.561      6.728
REMARK  3 active torsions:
REMARK  status: ('A' for Active; 'I' for Inactive)
REMARK    1  A    between atoms: C_2  and  S_1 
REMARK    2  A    between atoms: N_3  and  S_1 
REMARK    3  A    between atoms: N_4  and  C_6 
ROOT
ATOM      1  C   UNL d   1      32.428  22.279 -20.822  0.00  0.00     0.116 A 
ATOM      2  C   UNL d   1      32.598  22.324 -20.007  0.00  0.00     0.037 A 
ATOM      3  C   UNL d   1      32.455  23.023 -19.607  0.00  0.00     0.127 A 
ATOM      4  C   UNL d   1      32.115  22.939 -21.223  0.00  0.00     0.070 A 
ATOM      5  C   UNL d   1      32.135  23.698 -20.020  0.00  0.00     0.024 A 
ATOM      6  C   UNL d   1      31.974  23.640 -20.812  0.00  0.00     0.014 A 
ATOM      7 CL   UNL d   1      31.976  22.849 -21.967  0.00  0.00    -0.082 Cl
ENDROOT
BRANCH   1   8
ATOM      8  S   UNL d   1      32.577  21.554 -21.234  0.00  0.00     0.273 S 
ATOM      9  O   UNL d   1      31.936  21.196 -20.847  0.00  0.00    -0.200 OA
ATOM     10  O   UNL d   1      33.236  21.914 -21.637  0.00  0.00    -0.200 OA
BRANCH   8  11
ATOM     11  N   UNL d   1      32.730  20.861 -21.638  0.00  0.00    -0.210 N 
ATOM     12  C   UNL d   1      32.718  20.738 -22.498  0.00  0.00     0.193 A 
ATOM     13  N   UNL d   1      32.914  19.932 -22.622  0.00  0.00    -0.222 NA
ATOM     14  C   UNL d   1      33.043  19.573 -21.867  0.00  0.00     0.120 A 
ATOM     15  C   UNL d   1      32.925  20.155 -21.296  0.00  0.00     0.114 A 
ENDBRANCH   8  11
ENDBRANCH   1   8
BRANCH   3  16
ATOM     16  N   UNL d   1      32.624  23.060 -18.809  0.00  0.00    -0.114 N 
ATOM     17  O   UNL d   1      32.228  23.498 -18.263  0.00  0.00    -0.532 OA
ATOM     18  O   UNL d   1      33.241  22.640 -18.461  0.00  0.00    -0.532 OA
ENDBRANCH   3  16
TORSDOF 3
ENDMDL
MODEL 5
REMARK VINA RESULT:      -0.9      5.217      6.536
REMARK  3 active torsions:
REMARK  status: ('A' for Active; 'I' for Inactive)
REMARK    1  A    between atoms: C_2  and  S_1 
REMARK    2  A    between atoms: N_3  and  S_1 
REMARK    3  A    between atoms: N_4  and  C_6 
ROOT
ATOM      1  C   UNL d   1      32.831  21.675 -21.387  0.00  0.00     0.116 A 
ATOM      2  C   UNL d   1      32.839  20.852 -21.254  0.00  0.00     0.037 A 
ATOM      3  C   UNL d   1      33.027  20.349 -21.870  0.00  0.00     0.127 A 
ATOM      4  C   UNL d   1      33.013  21.981 -22.141  0.00  0.00     0.070 A 
ATOM      5  C   UNL d   1      33.213  20.664 -22.642  0.00  0.00     0.024 A 
ATOM      6  C   UNL d   1      33.201  21.465 -22.757  0.00  0.00     0.014 A 
ATOM      7 CL   UNL d   1      32.992  22.738 -22.214  0.00  0.00    -0.082 Cl
ENDROOT
BRANCH   1   8
ATOM      8  S   UNL d   1      32.636  22.195 -20.747  0.00  0.00     0.273 S 
ATOM      9  O   UNL d   1      32.044  22.550 -21.209  0.00  0.00    -0.200 OA
ATOM     10  O   UNL d   1      33.241  21.836 -20.265  0.00  0.00    -0.200 OA
BRANCH   8  11
ATOM     11  N   UNL d   1      32.457  22.690 -20.123  0.00  0.00    -0.210 N 
ATOM     12  C   UNL d   1      31.863  23.323 -20.106  0.00  0.00     0.193 A 
ATOM     13  N   UNL d   1      31.902  23.659 -19.339  0.00  0.00    -0.222 NA
ATOM     14  C   UNL d   1      32.497  23.249 -18.900  0.00  0.00     0.120 A 
ATOM     15  C   UNL d   1      32.813  22.672 -19.397  0.00  0.00     0.114 A 
ENDBRANCH   8  11
ENDBRANCH   1   8
BRANCH   3  16
ATOM     16  N   UNL d   1      33.033  19.544 -21.732  0.00  0.00    -0.114 N 
ATOM     17  O   UNL d   1      33.236  19.185 -21.042  0.00  0.00    -0.532 OA
ATOM     18  O   UNL d   1      32.825  18.990 -22.305  0.00  0.00    -0.532 OA
ENDBRANCH   3  16
TORSDOF 3
ENDMDL
MODEL 6
REMARK VINA RESULT:      -0.7      4.234      5.504
REMARK  3 active torsions:
REMARK  status: ('A' for Active; 'I' for Inactive)
REMARK    1  A    between atoms: C_2  and  S_1 
REMARK    2  A    between atoms: N_3  and  S_1 
REMARK    3  A    between atoms: N_4  and  C_6 
ROOT
ATOM      1  C   UNL d   1      32.882  21.086 -21.722  0.00  0.00     0.116 A 
ATOM      2  C   UNL d   1      32.652  21.824 -22.033  0.00  0.00     0.037 A 
ATOM      3  C   UNL d   1      32.578  22.464 -21.530  0.00  0.00     0.127 A 
ATOM      4  C   UNL d   1      33.034  21.001 -20.907  0.00  0.00     0.070 A 
ATOM      5  C   UNL d   1      32.734  22.376 -20.695  0.00  0.00     0.024 A 
ATOM      6  C   UNL d   1      32.956  21.652 -20.407  0.00  0.00     0.014 A 
ATOM      7 CL   UNL d   1      33.241  20.308 -20.670  0.00  0.00    -0.082 Cl
ENDROOT
BRANCH   1   8
ATOM      8  S   UNL d   1      32.959  20.423 -22.246  0.00  0.00     0.273 S 
ATOM      9  O   UNL d   1      33.238  20.924 -22.846  0.00  0.00    -0.200 OA
ATOM     10  O   UNL d   1      32.672  19.902 -21.635  0.00  0.00    -0.200 OA
BRANCH   8  11
ATOM     11  N   UNL d   1      33.028  19.778 -22.741  0.00  0.00    -0.210 N 
ATOM     12  C   UNL d   1      32.914  18.942 -22.536  0.00  0.00     0.193 A 
ATOM     13  N   UNL d   1      33.050  18.507 -23.240  0.00  0.00    -0.222 NA
ATOM     14  C   UNL d   1      33.241  19.055 -23.856  0.00  0.00     0.120 A 
ATOM     15  C   UNL d   1      33.219  19.810 -23.525  0.00  0.00     0.114 A 
ENDBRANCH   8  11
ENDBRANCH   1   8
BRANCH   3  16
ATOM     16  N   UNL d   1      32.352  23.185 -21.841  0.00  0.00    -0.114 N 
ATOM     17  O   UNL d   1      31.679  23.586 -21.662  0.00  0.00    -0.532 OA
ATOM     18  O   UNL d   1      32.805  23.596 -22.393  0.00  0.00    -0.532 OA
ENDBRANCH   3  16
TORSDOF 3
ENDMDL
MODEL 7
REMARK VINA RESULT:      -0.6      2.201      3.940
REMARK  3 active torsions:
REMARK  status: ('A' for Active; 'I' for Inactive)
REMARK    1  A    between atoms: C_2  and  S_1 
REMARK    2  A    between atoms: N_3  and  S_1 
REMARK    3  A    between atoms: N_4  and  C_6 
ROOT
ATOM      1  C   UNL d   1      32.689  18.309 -23.550  0.00  0.00     0.116 A 
ATOM      2  C   UNL d   1      32.370  17.588 -23.278  0.00  0.00     0.037 A 
ATOM      3  C   UNL d   1      32.214  16.993 -23.816  0.00  0.00     0.127 A 
ATOM      4  C   UNL d   1      32.845  18.421 -24.361  0.00  0.00     0.070 A 
ATOM      5  C   UNL d   1      32.374  17.109 -24.646  0.00  0.00     0.024 A 
ATOM      6  C   UNL d   1      32.683  17.814 -24.896  0.00  0.00     0.014 A 
ATOM      7 CL   UNL d   1      33.135  19.096 -24.562  0.00  0.00    -0.082 Cl
ENDROOT
BRANCH   1   8
ATOM      8  S   UNL d   1      32.851  18.926 -22.991  0.00  0.00     0.273 S 
ATOM      9  O   UNL d   1      33.154  18.367 -22.457  0.00  0.00    -0.200 OA
ATOM     10  O   UNL d   1      32.540  19.505 -23.534  0.00  0.00    -0.200 OA
BRANCH   8  11
ATOM     11  N   UNL d   1      33.002  19.528 -22.461  0.00  0.00    -0.210 N 
ATOM     12  C   UNL d   1      33.093  19.462 -21.601  0.00  0.00     0.193 A 
ATOM     13  N   UNL d   1      33.241  20.239 -21.321  0.00  0.00    -0.222 NA
ATOM     14  C   UNL d   1      33.240  20.763 -21.985  0.00  0.00     0.120 A 
ATOM     15  C   UNL d   1      33.094  20.307 -22.656  0.00  0.00     0.114 A 
ENDBRANCH   8  11
ENDBRANCH   1   8
BRANCH   3  16
ATOM     16  N   UNL d   1      31.902  16.289 -23.542  0.00  0.00    -0.114 N 
ATOM     17  O   UNL d   1      32.322  15.632 -23.344  0.00  0.00    -0.532 OA
ATOM     18  O   UNL d   1      31.094  16.168 -23.435  0.00  0.00    -0.532 OA
ENDBRANCH   3  16
TORSDOF 3
ENDMDL
MODEL 8
REMARK VINA RESULT:      -0.0      6.147      7.202
REMARK  3 active torsions:
REMARK  status: ('A' for Active; 'I' for Inactive)
REMARK    1  A    between atoms: C_2  and  S_1 
REMARK    2  A    between atoms: N_3  and  S_1 
REMARK    3  A    between atoms: N_4  and  C_6 
ROOT
ATOM      1  C   UNL d   1      32.813  22.288 -21.178  0.00  0.00     0.116 A 
ATOM      2  C   UNL d   1      32.745  22.824 -21.812  0.00  0.00     0.037 A 
ATOM      3  C   UNL d   1      32.775  22.543 -22.579  0.00  0.00     0.127 A 
ATOM      4  C   UNL d   1      32.912  21.473 -21.325  0.00  0.00     0.070 A 
ATOM      5  C   UNL d   1      32.876  21.708 -22.728  0.00  0.00     0.024 A 
ATOM      6  C   UNL d   1      32.941  21.198 -22.102  0.00  0.00     0.014 A 
ATOM      7 CL   UNL d   1      32.970  21.022 -20.714  0.00  0.00    -0.082 Cl
ENDROOT
BRANCH   1   8
ATOM      8  S   UNL d   1      32.782  22.581 -20.383  0.00  0.00     0.273 S 
ATOM      9  O   UNL d   1      32.390  21.891 -20.139  0.00  0.00    -0.200 OA
ATOM     10  O   UNL d   1      33.184  23.293 -20.626  0.00  0.00    -0.200 OA
BRANCH   8  11
ATOM     11  N   UNL d   1      32.758  22.875 -19.622  0.00  0.00    -0.210 N 
ATOM     12  C   UNL d   1      32.428  23.634 -19.361  0.00  0.00     0.193 A 
ATOM     13  N   UNL d   1      32.543  23.666 -18.530  0.00  0.00    -0.222 NA
ATOM     14  C   UNL d   1      32.929  22.953 -18.290  0.00  0.00     0.120 A 
ATOM     15  C   UNL d   1      33.045  22.498 -18.968  0.00  0.00     0.114 A 
ENDBRANCH   8  11
ENDBRANCH   1   8
BRANCH   3  16
ATOM     16  N   UNL d   1      32.707  23.075 -23.196  0.00  0.00    -0.114 N 
ATOM     17  O   UNL d   1      33.208  23.138 -23.821  0.00  0.00    -0.532 OA
ATOM     18  O   UNL d   1      32.096  23.624 -23.248  0.00  0.00    -0.532 OA
ENDBRANCH   3  16
TORSDOF 3
ENDMDL
