MODEL 1
REMARK VINA RESULT:      -5.6      0.000      0.000
REMARK  3 active torsions:
REMARK  status: ('A' for Active; 'I' for Inactive)
REMARK    1  A    between atoms: C_2  and  N_1 
REMARK    2  A    between atoms: C_4  and  N_1 
REMARK    3  A    between atoms: C_3  and  C_2 
ROOT
ATOM      1  N   UNL d   1     -41.491-122.957 -53.149  0.00  0.00    -0.182 N 
ATOM      2  O   UNL d   1     -41.682-123.749 -53.003  0.00  0.00    -0.080 OA
ENDROOT
BRANCH   1   3
ATOM      3  C   UNL d   1     -41.123-122.508 -52.563  0.00  0.00     0.133 C 
BRANCH   3   4
ATOM      4  C   UNL d   1     -41.127-122.767 -51.782  0.00  0.00     0.120 A 
ATOM      5  O   UNL d   1     -41.123-123.528 -51.450  0.00  0.00    -0.304 OA
ATOM      6  C   UNL d   1     -41.131-123.446 -50.624  0.00  0.00     0.123 A 
ATOM      7  C   UNL d   1     -41.140-122.636 -50.444  0.00  0.00     0.029 A 
ATOM      8  C   UNL d   1     -41.137-122.221 -51.158  0.00  0.00     0.028 A 
ENDBRANCH   3   4
ENDBRANCH   1   3
BRANCH   1   9
ATOM      9  C   UNL d   1     -41.671-122.612 -53.894  0.00  0.00     0.090 A 
ATOM     10  C   UNL d   1     -41.253-122.853 -54.554  0.00  0.00     0.021 A 
ATOM     11  C   UNL d   1     -41.432-122.511 -55.292  0.00  0.00     0.013 A 
ATOM     12  C   UNL d   1     -42.023-121.937 -55.344  0.00  0.00     0.058 A 
ATOM     13  C   UNL d   1     -42.436-121.702 -54.673  0.00  0.00     0.013 A 
ATOM     14 CL   UNL d   1     -42.198-121.600 -56.070  0.00  0.00    -0.082 Cl
ATOM     15  C   UNL d   1     -42.257-122.045 -53.935  0.00  0.00     0.021 A 
ENDBRANCH   1   9
TORSDOF 3
ENDMDL
MODEL 2
REMARK VINA RESULT:      -5.6      2.014      3.820
REMARK  3 active torsions:
REMARK  status: ('A' for Active; 'I' for Inactive)
REMARK    1  A    between atoms: C_2  and  N_1 
REMARK    2  A    between atoms: C_4  and  N_1 
REMARK    3  A    between atoms: C_3  and  C_2 
ROOT
ATOM      1  N   UNL d   1     -41.346-122.352 -52.580  0.00  0.00    -0.182 N 
ATOM      2  O   UNL d   1     -41.168-121.559 -52.732  0.00  0.00    -0.080 OA
ENDROOT
BRANCH   1   3
ATOM      3  C   UNL d   1     -41.526-122.860 -53.205  0.00  0.00     0.133 C 
BRANCH   3   4
ATOM      4  C   UNL d   1     -41.732-122.554 -53.939  0.00  0.00     0.120 A 
ATOM      5  O   UNL d   1     -42.345-122.047 -54.177  0.00  0.00    -0.304 OA
ATOM      6  C   UNL d   1     -42.277-121.928 -54.995  0.00  0.00     0.123 A 
ATOM      7  C   UNL d   1     -41.622-122.361 -55.265  0.00  0.00     0.029 A 
ATOM      8  C   UNL d   1     -41.290-122.744 -54.614  0.00  0.00     0.028 A 
ENDBRANCH   3   4
ENDBRANCH   1   3
BRANCH   1   9
ATOM      9  C   UNL d   1     -41.344-122.639 -51.791  0.00  0.00     0.090 A 
ATOM     10  C   UNL d   1     -41.125-123.415 -51.652  0.00  0.00     0.021 A 
ATOM     11  C   UNL d   1     -41.123-123.700 -50.869  0.00  0.00     0.013 A 
ATOM     12  C   UNL d   1     -41.340-123.199 -50.251  0.00  0.00     0.058 A 
ATOM     13  C   UNL d   1     -41.559-122.421 -50.403  0.00  0.00     0.013 A 
ATOM     14 CL   UNL d   1     -41.338-123.479 -49.482  0.00  0.00    -0.082 Cl
ATOM     15  C   UNL d   1     -41.561-122.136 -51.185  0.00  0.00     0.021 A 
ENDBRANCH   1   9
TORSDOF 3
ENDMDL
MODEL 3
REMARK VINA RESULT:      -4.8      2.296      4.111
REMARK  3 active torsions:
REMARK  status: ('A' for Active; 'I' for Inactive)
REMARK    1  A    between atoms: C_2  and  N_1 
REMARK    2  A    between atoms: C_4  and  N_1 
REMARK    3  A    between atoms: C_3  and  C_2 
ROOT
ATOM      1  N   UNL d   1     -41.429-122.360 -51.593  0.00  0.00    -0.182 N 
ATOM      2  O   UNL d   1     -41.227-121.575 -51.759  0.00  0.00    -0.080 OA
ENDROOT
BRANCH   1   3
ATOM      3  C   UNL d   1     -41.391-122.928 -52.191  0.00  0.00     0.133 C 
BRANCH   3   4
ATOM      4  C   UNL d   1     -41.459-122.703 -52.978  0.00  0.00     0.120 A 
ATOM      5  O   UNL d   1     -41.823-122.051 -53.340  0.00  0.00    -0.304 OA
ATOM      6  C   UNL d   1     -41.711-122.117 -54.159  0.00  0.00     0.123 A 
ATOM      7  C   UNL d   1     -41.278-122.810 -54.306  0.00  0.00     0.029 A 
ATOM      8  C   UNL d   1     -41.125-123.167 -53.579  0.00  0.00     0.028 A 
ENDBRANCH   3   4
ENDBRANCH   1   3
BRANCH   1   9
ATOM      9  C   UNL d   1     -41.671-122.577 -50.819  0.00  0.00     0.090 A 
ATOM     10  C   UNL d   1     -42.404-122.334 -50.551  0.00  0.00     0.021 A 
ATOM     11  C   UNL d   1     -42.645-122.550 -49.783  0.00  0.00     0.013 A 
ATOM     12  C   UNL d   1     -42.143-123.002 -49.309  0.00  0.00     0.058 A 
ATOM     13  C   UNL d   1     -41.408-123.241 -49.590  0.00  0.00     0.013 A 
ATOM     14 CL   UNL d   1     -42.379-123.214 -48.554  0.00  0.00    -0.082 Cl
ATOM     15  C   UNL d   1     -41.167-123.025 -50.358  0.00  0.00     0.021 A 
ENDBRANCH   1   9
TORSDOF 3
ENDMDL
MODEL 4
REMARK VINA RESULT:      -4.5      1.538      2.237
REMARK  3 active torsions:
REMARK  status: ('A' for Active; 'I' for Inactive)
REMARK    1  A    between atoms: C_2  and  N_1 
REMARK    2  A    between atoms: C_4  and  N_1 
REMARK    3  A    between atoms: C_3  and  C_2 
ROOT
ATOM      1  N   UNL d   1     -41.418-122.649 -51.334  0.00  0.00    -0.182 N 
ATOM      2  O   UNL d   1     -41.356-121.861 -51.092  0.00  0.00    -0.080 OA
ENDROOT
BRANCH   1   3
ATOM      3  C   UNL d   1     -41.552-123.241 -50.775  0.00  0.00     0.133 C 
BRANCH   3   4
ATOM      4  C   UNL d   1     -42.019-123.089 -50.116  0.00  0.00     0.120 A 
ATOM      5  O   UNL d   1     -42.766-122.734 -50.036  0.00  0.00    -0.304 OA
ATOM      6  C   UNL d   1     -42.962-122.731 -49.230  0.00  0.00     0.123 A 
ATOM      7  C   UNL d   1     -42.338-123.083 -48.810  0.00  0.00     0.029 A 
ATOM      8  C   UNL d   1     -41.761-123.302 -49.358  0.00  0.00     0.028 A 
ENDBRANCH   3   4
ENDBRANCH   1   3
BRANCH   1   9
ATOM      9  C   UNL d   1     -41.346-122.846 -52.148  0.00  0.00     0.090 A 
ATOM     10  C   UNL d   1     -41.426-122.255 -52.707  0.00  0.00     0.021 A 
ATOM     11  C   UNL d   1     -41.354-122.450 -53.514  0.00  0.00     0.013 A 
ATOM     12  C   UNL d   1     -41.205-123.231 -53.734  0.00  0.00     0.058 A 
ATOM     13  C   UNL d   1     -41.127-123.817 -53.162  0.00  0.00     0.013 A 
ATOM     14 CL   UNL d   1     -41.135-123.423 -54.527  0.00  0.00    -0.082 Cl
ATOM     15  C   UNL d   1     -41.199-123.622 -52.356  0.00  0.00     0.021 A 
ENDBRANCH   1   9
TORSDOF 3
ENDMDL
