MODEL 1
REMARK VINA RESULT:      -8.9      0.000      0.000
REMARK  4 active torsions:
REMARK  status: ('A' for Active; 'I' for Inactive)
REMARK    1  A    between atoms: C_2  and  S_1 
REMARK    2  A    between atoms: N_9  and  S_1 
REMARK    3  A    between atoms: C_18  and  N_9 
REMARK    4  A    between atoms: C_19  and  N_9 
ROOT
ATOM      1  C   UNL d   1      52.300  33.418  53.258  0.00  0.00     0.104 A 
ATOM      2  C   UNL d   1      54.561  33.462  54.834  0.00  0.00     0.225 A 
ATOM      3  S   UNL d   1      54.337  32.552  54.280  0.00  0.00    -0.046 SA
ATOM      4  C   UNL d   1      53.456  33.526  54.101  0.00  0.00     0.010 A 
ATOM      5  C   UNL d   1      53.657  32.730  53.891  0.00  0.00     0.033 A 
ATOM      6  C   UNL d   1      52.778  33.874  53.787  0.00  0.00     0.013 A 
ATOM      7  C   UNL d   1      53.931  33.948  54.613  0.00  0.00     0.046 A 
ATOM      8  C   UNL d   1      52.493  32.656  53.057  0.00  0.00     0.013 A 
ATOM      9  C   UNL d   1      53.173  32.316  53.376  0.00  0.00     0.007 A 
ATOM     10  O   UNL d   1      55.117  33.795  55.362  0.00  0.00    -0.279 OA
ATOM     11  C   UNL d   1      52.577  34.669  53.998  0.00  0.00     0.001 A 
ATOM     12  C   UNL d   1      53.729  34.743  54.824  0.00  0.00     0.004 A 
ATOM     13  C   UNL d   1      53.060  35.084  54.513  0.00  0.00     0.000 A 
ENDROOT
BRANCH   1  14
ATOM     14  S   UNL d   1      51.602  33.758  52.927  0.00  0.00     0.271 S 
ATOM     15  O   UNL d   1      52.085  34.114  52.357  0.00  0.00    -0.200 OA
ATOM     16  O   UNL d   1      51.124  33.379  53.527  0.00  0.00    -0.200 OA
BRANCH  14  17
ATOM     17  N   UNL d   1      50.893  34.095  52.602  0.00  0.00    -0.229 N 
BRANCH  17  18
ATOM     18  C   UNL d   1      50.923  34.274  51.791  0.00  0.00     0.092 C 
ATOM     19  C   UNL d   1      50.281  34.237  51.296  0.00  0.00     0.021 C 
ENDBRANCH  17  18
BRANCH  17  20
ATOM     20  C   UNL d   1      50.231  34.233  53.053  0.00  0.00     0.092 C 
ATOM     21  C   UNL d   1      49.670  34.791  52.802  0.00  0.00     0.021 C 
ENDBRANCH  17  20
ENDBRANCH  14  17
ENDBRANCH   1  14
TORSDOF 4
ENDMDL
MODEL 2
REMARK VINA RESULT:      -8.7      1.919      3.188
REMARK  4 active torsions:
REMARK  status: ('A' for Active; 'I' for Inactive)
REMARK    1  A    between atoms: C_2  and  S_1 
REMARK    2  A    between atoms: N_9  and  S_1 
REMARK    3  A    between atoms: C_18  and  N_9 
REMARK    4  A    between atoms: C_19  and  N_9 
ROOT
ATOM      1  C   UNL d   1      53.693  32.509  54.172  0.00  0.00     0.104 A 
ATOM      2  C   UNL d   1      53.179  35.196  54.505  0.00  0.00     0.225 A 
ATOM      3  S   UNL d   1      54.052  34.774  55.000  0.00  0.00    -0.046 SA
ATOM      4  C   UNL d   1      53.353  33.897  54.293  0.00  0.00     0.010 A 
ATOM      5  C   UNL d   1      54.032  33.999  54.788  0.00  0.00     0.033 A 
ATOM      6  C   UNL d   1      53.179  33.155  53.983  0.00  0.00     0.013 A 
ATOM      7  C   UNL d   1      52.870  34.534  54.123  0.00  0.00     0.046 A 
ATOM      8  C   UNL d   1      54.344  32.607  54.647  0.00  0.00     0.013 A 
ATOM      9  C   UNL d   1      54.510  33.354  54.953  0.00  0.00     0.007 A 
ATOM     10  O   UNL d   1      52.761  35.912  54.400  0.00  0.00    -0.279 OA
ATOM     11  C   UNL d   1      52.500  33.053  53.487  0.00  0.00     0.001 A 
ATOM     12  C   UNL d   1      52.191  34.432  53.627  0.00  0.00     0.004 A 
ATOM     13  C   UNL d   1      52.021  33.698  53.322  0.00  0.00     0.000 A 
ENDROOT
BRANCH   1  14
ATOM     14  S   UNL d   1      53.531  31.741  53.863  0.00  0.00     0.271 S 
ATOM     15  O   UNL d   1      53.990  31.944  53.205  0.00  0.00    -0.200 OA
ATOM     16  O   UNL d   1      53.060  31.555  54.553  0.00  0.00    -0.200 OA
BRANCH  14  17
ATOM     17  N   UNL d   1      53.361  30.965  53.561  0.00  0.00    -0.229 N 
BRANCH  17  18
ATOM     18  C   UNL d   1      53.288  30.368  54.134  0.00  0.00     0.092 C 
ATOM     19  C   UNL d   1      53.415  29.580  53.985  0.00  0.00     0.021 C 
ENDBRANCH  17  18
BRANCH  17  20
ATOM     20  C   UNL d   1      53.276  30.816  52.766  0.00  0.00     0.092 C 
ATOM     21  C   UNL d   1      52.866  30.140  52.515  0.00  0.00     0.021 C 
ENDBRANCH  17  20
ENDBRANCH  14  17
ENDBRANCH   1  14
TORSDOF 4
ENDMDL
MODEL 3
REMARK VINA RESULT:      -8.0      0.686      1.701
REMARK  4 active torsions:
REMARK  status: ('A' for Active; 'I' for Inactive)
REMARK    1  A    between atoms: C_2  and  S_1 
REMARK    2  A    between atoms: N_9  and  S_1 
REMARK    3  A    between atoms: C_18  and  N_9 
REMARK    4  A    between atoms: C_19  and  N_9 
ROOT
ATOM      1  C   UNL d   1      52.077  34.187  53.370  0.00  0.00     0.104 A 
ATOM      2  C   UNL d   1      54.260  32.839  54.377  0.00  0.00     0.225 A 
ATOM      3  S   UNL d   1      54.122  33.880  54.663  0.00  0.00    -0.046 SA
ATOM      4  C   UNL d   1      53.186  33.412  53.848  0.00  0.00     0.010 A 
ATOM      5  C   UNL d   1      53.449  34.093  54.278  0.00  0.00     0.033 A 
ATOM      6  C   UNL d   1      52.501  33.455  53.393  0.00  0.00     0.013 A 
ATOM      7  C   UNL d   1      53.609  32.715  53.885  0.00  0.00     0.046 A 
ATOM      8  C   UNL d   1      52.330  34.840  53.782  0.00  0.00     0.013 A 
ATOM      9  C   UNL d   1      53.017  34.788  54.235  0.00  0.00     0.007 A 
ATOM     10  O   UNL d   1      54.769  32.185  54.488  0.00  0.00    -0.279 OA
ATOM     11  C   UNL d   1      52.237  32.774  52.963  0.00  0.00     0.001 A 
ATOM     12  C   UNL d   1      53.346  32.035  53.455  0.00  0.00     0.004 A 
ATOM     13  C   UNL d   1      52.669  32.078  53.006  0.00  0.00     0.000 A 
ENDROOT
BRANCH   1  14
ATOM     14  S   UNL d   1      51.373  34.249  52.909  0.00  0.00     0.271 S 
ATOM     15  O   UNL d   1      51.838  34.564  52.300  0.00  0.00    -0.200 OA
ATOM     16  O   UNL d   1      50.914  33.922  53.552  0.00  0.00    -0.200 OA
BRANCH  14  17
ATOM     17  N   UNL d   1      50.659  34.307  52.453  0.00  0.00    -0.229 N 
BRANCH  17  18
ATOM     18  C   UNL d   1      49.962  34.410  52.894  0.00  0.00     0.092 C 
ATOM     19  C   UNL d   1      49.361  34.912  52.679  0.00  0.00     0.021 C 
ENDBRANCH  17  18
BRANCH  17  20
ATOM     20  C   UNL d   1      50.656  34.265  51.641  0.00  0.00     0.092 C 
ATOM     21  C   UNL d   1      49.936  34.194  51.234  0.00  0.00     0.021 C 
ENDBRANCH  17  20
ENDBRANCH  14  17
ENDBRANCH   1  14
TORSDOF 4
ENDMDL
MODEL 4
REMARK VINA RESULT:      -6.8      1.717      2.935
REMARK  4 active torsions:
REMARK  status: ('A' for Active; 'I' for Inactive)
REMARK    1  A    between atoms: C_2  and  S_1 
REMARK    2  A    between atoms: N_9  and  S_1 
REMARK    3  A    between atoms: C_18  and  N_9 
REMARK    4  A    between atoms: C_19  and  N_9 
ROOT
ATOM      1  C   UNL d   1      53.343  32.702  53.552  0.00  0.00     0.104 A 
ATOM      2  C   UNL d   1      53.130  29.962  53.340  0.00  0.00     0.225 A 
ATOM      3  S   UNL d   1      54.117  30.390  53.509  0.00  0.00    -0.046 SA
ATOM      4  C   UNL d   1      53.143  31.286  53.430  0.00  0.00     0.010 A 
ATOM      5  C   UNL d   1      53.976  31.180  53.541  0.00  0.00     0.033 A 
ATOM      6  C   UNL d   1      52.823  32.045  53.435  0.00  0.00     0.013 A 
ATOM      7  C   UNL d   1      52.659  30.639  53.318  0.00  0.00     0.046 A 
ATOM      8  C   UNL d   1      54.142  32.600  53.659  0.00  0.00     0.013 A 
ATOM      9  C   UNL d   1      54.454  31.837  53.653  0.00  0.00     0.007 A 
ATOM     10  O   UNL d   1      52.735  29.233  53.235  0.00  0.00    -0.279 OA
ATOM     11  C   UNL d   1      51.990  32.151  53.323  0.00  0.00     0.001 A 
ATOM     12  C   UNL d   1      51.826  30.745  53.206  0.00  0.00     0.004 A 
ATOM     13  C   UNL d   1      51.511  31.495  53.211  0.00  0.00     0.000 A 
ENDROOT
BRANCH   1  14
ATOM     14  S   UNL d   1      53.032  33.486  53.560  0.00  0.00     0.271 S 
ATOM     15  O   UNL d   1      53.196  33.524  52.750  0.00  0.00    -0.200 OA
ATOM     16  O   UNL d   1      52.873  33.422  54.398  0.00  0.00    -0.200 OA
BRANCH  14  17
ATOM     17  N   UNL d   1      52.717  34.275  53.580  0.00  0.00    -0.229 N 
BRANCH  17  18
ATOM     18  C   UNL d   1      52.852  34.695  54.283  0.00  0.00     0.092 C 
ATOM     19  C   UNL d   1      53.042  35.484  54.309  0.00  0.00     0.021 C 
ENDBRANCH  17  18
BRANCH  17  20
ATOM     20  C   UNL d   1      52.311  34.596  52.953  0.00  0.00     0.092 C 
ATOM     21  C   UNL d   1      51.602  35.006  53.087  0.00  0.00     0.021 C 
ENDBRANCH  17  20
ENDBRANCH  14  17
ENDBRANCH   1  14
TORSDOF 4
ENDMDL
MODEL 5
REMARK VINA RESULT:      -6.7      1.435      3.567
REMARK  4 active torsions:
REMARK  status: ('A' for Active; 'I' for Inactive)
REMARK    1  A    between atoms: C_2  and  S_1 
REMARK    2  A    between atoms: N_9  and  S_1 
REMARK    3  A    between atoms: C_18  and  N_9 
REMARK    4  A    between atoms: C_19  and  N_9 
ROOT
ATOM      1  C   UNL d   1      53.100  33.034  53.747  0.00  0.00     0.104 A 
ATOM      2  C   UNL d   1      50.670  33.801  52.695  0.00  0.00     0.225 A 
ATOM      3  S   UNL d   1      50.955  32.753  52.622  0.00  0.00    -0.046 SA
ATOM      4  C   UNL d   1      51.854  33.517  53.226  0.00  0.00     0.010 A 
ATOM      5  C   UNL d   1      51.676  32.728  52.976  0.00  0.00     0.033 A 
ATOM      6  C   UNL d   1      52.564  33.675  53.611  0.00  0.00     0.013 A 
ATOM      7  C   UNL d   1      51.323  34.121  53.085  0.00  0.00     0.046 A 
ATOM      8  C   UNL d   1      52.929  32.277  53.507  0.00  0.00     0.013 A 
ATOM      9  C   UNL d   1      52.215  32.129  53.121  0.00  0.00     0.007 A 
ATOM     10  O   UNL d   1      50.058  34.335  52.500  0.00  0.00    -0.279 OA
ATOM     11  C   UNL d   1      52.742  34.464  53.861  0.00  0.00     0.001 A 
ATOM     12  C   UNL d   1      51.501  34.911  53.336  0.00  0.00     0.004 A 
ATOM     13  C   UNL d   1      52.203  35.065  53.716  0.00  0.00     0.000 A 
ENDROOT
BRANCH   1  14
ATOM     14  S   UNL d   1      53.832  33.176  54.140  0.00  0.00     0.271 S 
ATOM     15  O   UNL d   1      54.163  33.335  53.398  0.00  0.00    -0.200 OA
ATOM     16  O   UNL d   1      53.468  33.008  54.895  0.00  0.00    -0.200 OA
BRANCH  14  17
ATOM     17  N   UNL d   1      54.565  33.318  54.546  0.00  0.00    -0.229 N 
BRANCH  17  18
ATOM     18  C   UNL d   1      55.217  33.482  54.058  0.00  0.00     0.092 C 
ATOM     19  C   UNL d   1      55.939  33.731  54.336  0.00  0.00     0.021 C 
ENDBRANCH  17  18
BRANCH  17  20
ATOM     20  C   UNL d   1      54.625  33.294  55.357  0.00  0.00     0.092 C 
ATOM     21  C   UNL d   1      55.256  33.677  55.736  0.00  0.00     0.021 C 
ENDBRANCH  17  20
ENDBRANCH  14  17
ENDBRANCH   1  14
TORSDOF 4
ENDMDL
