MODEL 1
REMARK VINA RESULT:      11.9      0.000      0.000
REMARK  6 active torsions:
REMARK  status: ('A' for Active; 'I' for Inactive)
REMARK    1  A    between atoms: C_2  and  S_1 
REMARK    2  A    between atoms: N_5  and  S_1 
REMARK    3  A    between atoms: C_9  and  N_5 
REMARK    4  A    between atoms: C_11  and  C_9 
REMARK       I    between atoms: N_17  and  C_11 
REMARK    5  A    between atoms: C_16  and  C_21 
REMARK    6  A    between atoms: C_21  and  N_17 
ROOT
ATOM      1  C   UNL d   1      46.175 -17.005  44.454  0.00  0.00     0.299 C 
ATOM      2  N   UNL d   1      46.376 -16.212  44.511  0.00  0.00    -0.203 NA
ATOM      3  O   UNL d   1      45.484 -17.293  44.842  0.00  0.00    -0.263 OA
ENDROOT
BRANCH   1   4
ATOM      4  C   UNL d   1      46.646 -17.521  44.018  0.00  0.00     0.174 C 
BRANCH   4   5
ATOM      5  N   UNL d   1      46.499 -18.343  44.047  0.00  0.00    -0.151 NA
BRANCH   5   6
ATOM      6  S   UNL d   1      46.530 -18.794  43.348  0.00  0.00     0.291 S 
ATOM      7  O   UNL d   1      46.497 -18.095  42.891  0.00  0.00    -0.198 OA
ATOM      8  O   UNL d   1      46.563 -19.485  43.791  0.00  0.00    -0.198 OA
BRANCH   6   9
ATOM      9  C   UNL d   1      46.561 -19.234  42.646  0.00  0.00     0.135 A 
ATOM     10  S   UNL d   1      46.586 -18.913  41.909  0.00  0.00    -0.067 SA
ATOM     11  C   UNL d   1      46.612 -19.544  41.355  0.00  0.00     0.065 A 
ATOM     12 BR   UNL d   1      46.643 -19.467  40.519  0.00  0.00    -0.042 Br
ATOM     13  C   UNL d   1      46.602 -20.239  41.767  0.00  0.00     0.015 A 
ATOM     14  C   UNL d   1      46.570 -20.056  42.574  0.00  0.00     0.021 A 
ENDBRANCH   6   9
ENDBRANCH   5   6
ENDBRANCH   4   5
ENDBRANCH   1   4
BRANCH   2  15
ATOM     15  C   UNL d   1      45.897 -15.689  44.954  0.00  0.00     0.129 C 
BRANCH  15  16
ATOM     16  C   UNL d   1      45.653 -14.968  44.611  0.00  0.00     0.144 A 
ATOM     17  O   UNL d   1      46.036 -14.272  44.775  0.00  0.00    -0.301 OA
ATOM     18  C   UNL d   1      45.784 -13.577  44.432  0.00  0.00     0.123 A 
ATOM     19  C   UNL d   1      46.173 -12.868  44.598  0.00  0.00     0.027 A 
ATOM     20  C   UNL d   1      45.141 -13.573  43.918  0.00  0.00     0.123 A 
ATOM     21  C   UNL d   1      45.922 -12.160  44.253  0.00  0.00     0.002 A 
ATOM     22  C   UNL d   1      45.279 -12.161  43.740  0.00  0.00     0.002 A 
ATOM     23  C   UNL d   1      44.888 -12.876  43.573  0.00  0.00     0.027 A 
ATOM     24  O   UNL d   1      44.751 -14.273  43.749  0.00  0.00    -0.301 OA
ATOM     25  C   UNL d   1      45.009 -14.968  44.098  0.00  0.00     0.149 A 
ENDBRANCH  15  16
ENDBRANCH   2  15
TORSDOF 6
ENDMDL
