MODEL 1
REMARK VINA RESULT:      24.5      0.000      0.000
REMARK  3 active torsions:
REMARK  status: ('A' for Active; 'I' for Inactive)
REMARK    1  A    between atoms: S_8  and  C_2 
REMARK    2  A    between atoms: C_13  and  S_8 
REMARK    3  A    between atoms: C_15  and  C_13 
ROOT
ATOM      1  C   UNL d   1      13.444  12.926  -3.835  0.00  0.00     0.104 A 
ATOM      2  C   UNL d   1      13.751  12.262  -2.359  0.00  0.00     0.182 A 
ATOM      3  N   UNL d   1      13.842  13.074  -2.474  0.00  0.00    -0.251 N 
ATOM      4  C   UNL d   1      13.685  13.404  -3.222  0.00  0.00     0.274 A 
ATOM      5  C   UNL d   1      13.353  12.114  -3.720  0.00  0.00     0.095 A 
ATOM      6  N   UNL d   1      13.504  11.780  -2.993  0.00  0.00    -0.222 NA
ATOM      7  S   UNL d   1      13.253  13.093  -4.617  0.00  0.00    -0.081 SA
ATOM      8  C   UNL d   1      13.106  11.780  -4.432  0.00  0.00     0.026 A 
ATOM      9  O   UNL d   1      13.775  14.216  -3.337  0.00  0.00    -0.266 OA
ATOM     10  C   UNL d   1      13.044  12.380  -4.984  0.00  0.00     0.031 A 
ATOM     11  C   UNL d   1      14.088  13.559  -1.845  0.00  0.00     0.104 C 
ATOM     12  C   UNL d   1      12.813  12.280  -5.770  0.00  0.00     0.007 C 
ENDROOT
BRANCH   2  13
ATOM     13  S   UNL d   1      13.905  11.921  -1.614  0.00  0.00    -0.050 SA
BRANCH  13  14
ATOM     14  C   UNL d   1      14.656  11.997  -1.278  0.00  0.00     0.032 C 
ATOM     15  C   UNL d   1      15.325  11.781  -1.710  0.00  0.00     0.007 C 
BRANCH  14  16
ATOM     16  C   UNL d   1      14.734  12.289  -0.514  0.00  0.00     0.007 C 
ATOM     17  C   UNL d   1      15.360  12.035  -0.039  0.00  0.00     0.001 C 
ENDBRANCH  14  16
ENDBRANCH  13  14
ENDBRANCH   2  13
TORSDOF 3
ENDMDL
MODEL 2
REMARK VINA RESULT:      25.5      0.806      3.406
REMARK  3 active torsions:
REMARK  status: ('A' for Active; 'I' for Inactive)
REMARK    1  A    between atoms: S_8  and  C_2 
REMARK    2  A    between atoms: C_13  and  S_8 
REMARK    3  A    between atoms: C_15  and  C_13 
ROOT
ATOM      1  C   UNL d   1      14.433  12.958  -1.800  0.00  0.00     0.104 A 
ATOM      2  C   UNL d   1      13.420  12.445  -2.994  0.00  0.00     0.182 A 
ATOM      3  N   UNL d   1      13.676  13.229  -2.978  0.00  0.00    -0.251 N 
ATOM      4  C   UNL d   1      14.189  13.483  -2.372  0.00  0.00     0.274 A 
ATOM      5  C   UNL d   1      14.177  12.173  -1.816  0.00  0.00     0.095 A 
ATOM      6  N   UNL d   1      13.676  11.914  -2.404  0.00  0.00    -0.222 NA
ATOM      7  S   UNL d   1      14.927  13.048  -1.149  0.00  0.00    -0.081 SA
ATOM      8  C   UNL d   1      14.513  11.780  -1.174  0.00  0.00     0.026 A 
ATOM      9  O   UNL d   1      14.445  14.267  -2.356  0.00  0.00    -0.266 OA
ATOM     10  C   UNL d   1      14.974  12.316  -0.764  0.00  0.00     0.031 A 
ATOM     11  C   UNL d   1      13.424  13.762  -3.564  0.00  0.00     0.104 C 
ATOM     12  C   UNL d   1      15.408  12.146  -0.083  0.00  0.00     0.007 C 
ENDROOT
BRANCH   2  13
ATOM     13  S   UNL d   1      12.907  12.180  -3.596  0.00  0.00    -0.050 SA
BRANCH  13  14
ATOM     14  C   UNL d   1      13.067  12.375  -4.382  0.00  0.00     0.032 C 
ATOM     15  C   UNL d   1      13.068  13.165  -4.619  0.00  0.00     0.007 C 
BRANCH  14  16
ATOM     16  C   UNL d   1      13.226  11.780  -4.927  0.00  0.00     0.007 C 
ATOM     17  C   UNL d   1      12.962  11.856  -5.706  0.00  0.00     0.001 C 
ENDBRANCH  14  16
ENDBRANCH  13  14
ENDBRANCH   2  13
TORSDOF 3
ENDMDL
MODEL 3
REMARK VINA RESULT:      26.5      1.162      2.031
REMARK  3 active torsions:
REMARK  status: ('A' for Active; 'I' for Inactive)
REMARK    1  A    between atoms: S_8  and  C_2 
REMARK    2  A    between atoms: C_13  and  S_8 
REMARK    3  A    between atoms: C_15  and  C_13 
ROOT
ATOM      1  C   UNL d   1      13.654  13.838  -3.659  0.00  0.00     0.104 A 
ATOM      2  C   UNL d   1      13.789  12.469  -2.752  0.00  0.00     0.182 A 
ATOM      3  N   UNL d   1      13.312  12.474  -3.425  0.00  0.00    -0.251 N 
ATOM      4  C   UNL d   1      13.247  13.168  -3.880  0.00  0.00     0.274 A 
ATOM      5  C   UNL d   1      14.132  13.833  -2.987  0.00  0.00     0.095 A 
ATOM      6  N   UNL d   1      14.202  13.160  -2.535  0.00  0.00    -0.222 NA
ATOM      7  S   UNL d   1      13.697  14.588  -3.994  0.00  0.00    -0.081 SA
ATOM      8  C   UNL d   1      14.469  14.581  -2.906  0.00  0.00     0.026 A 
ATOM      9  O   UNL d   1      12.769  13.173  -4.552  0.00  0.00    -0.266 OA
ATOM     10  C   UNL d   1      14.203  15.046  -3.524  0.00  0.00     0.031 A 
ATOM     11  C   UNL d   1      12.897  11.788  -3.646  0.00  0.00     0.104 C 
ATOM     12  C   UNL d   1      14.409  15.835  -3.648  0.00  0.00     0.007 C 
ENDROOT
BRANCH   2  13
ATOM     13  S   UNL d   1      13.861  11.779  -2.290  0.00  0.00    -0.050 SA
BRANCH  13  14
ATOM     14  C   UNL d   1      14.237  11.818  -1.556  0.00  0.00     0.032 C 
ATOM     15  C   UNL d   1      15.061  11.844  -1.516  0.00  0.00     0.007 C 
BRANCH  14  16
ATOM     16  C   UNL d   1      13.789  11.829  -0.866  0.00  0.00     0.007 C 
ATOM     17  C   UNL d   1      14.166  11.818  -0.132  0.00  0.00     0.001 C 
ENDBRANCH  14  16
ENDBRANCH  13  14
ENDBRANCH   2  13
TORSDOF 3
ENDMDL
