MODEL 1
REMARK VINA RESULT:      -5.9      0.000      0.000
REMARK  4 active torsions:
REMARK  status: ('A' for Active; 'I' for Inactive)
REMARK       I    between atoms: N_2  and  C_1 
REMARK       I    between atoms: N_3  and  C_1 
REMARK    1  A    between atoms: C_7  and  N_3 
REMARK    2  A    between atoms: C_8  and  C_12 
REMARK    3  A    between atoms: C_17  and  C_8 
REMARK    4  A    between atoms: O_18  and  C_9 
ROOT
ATOM      1  C   UNL d   1     -46.180  13.334  22.563  0.00  0.00     0.354 C 
ATOM      2  N   UNL d   1     -46.984  13.371  22.745  0.00  0.00    -0.256 N 
ATOM      3  N   UNL d   1     -45.849  12.621  22.320  0.00  0.00    -0.192 NA
ATOM      4  O   UNL d   1     -45.709  14.009  22.626  0.00  0.00    -0.244 OA
ATOM      5  C   UNL d   1     -47.315  14.090  22.990  0.00  0.00     0.085 A 
ATOM      6  C   UNL d   1     -47.458  12.698  22.684  0.00  0.00     0.085 A 
ATOM      7  C   UNL d   1     -48.128  14.128  23.174  0.00  0.00     0.019 A 
ATOM      8  C   UNL d   1     -48.254  12.739  22.865  0.00  0.00     0.019 A 
ATOM      9  C   UNL d   1     -48.587  13.456  23.110  0.00  0.00     0.003 A 
ENDROOT
BRANCH   3  10
ATOM     10  C   UNL d   1     -45.039  12.580  22.136  0.00  0.00     0.086 A 
ATOM     11  C   UNL d   1     -44.739  13.028  21.518  0.00  0.00     0.021 A 
ATOM     12  C   UNL d   1     -43.936  12.991  21.332  0.00  0.00     0.026 A 
ATOM     13  C   UNL d   1     -43.442  12.499  21.773  0.00  0.00     0.094 A 
ATOM     14  C   UNL d   1     -43.749  12.045  22.400  0.00  0.00     0.026 A 
ATOM     15  C   UNL d   1     -44.553  12.091  22.575  0.00  0.00     0.021 A 
BRANCH  13  16
ATOM     16  O   UNL d   1     -42.632  12.454  21.594  0.00  0.00    -0.328 OA
ATOM     17  C   UNL d   1     -42.244  13.104  21.267  0.00  0.00     0.181 C 
ENDBRANCH  13  16
ENDBRANCH   3  10
BRANCH   9  18
ATOM     18  C   UNL d   1     -49.394  13.495  23.292  0.00  0.00     0.000 C 
BRANCH  18  19
ATOM     19  C   UNL d   1     -49.948  13.660  22.710  0.00  0.00     0.000 A 
ATOM     20  C   UNL d   1     -50.154  14.440  22.545  0.00  0.00     0.000 A 
ATOM     21  C   UNL d   1     -50.712  14.605  21.957  0.00  0.00     0.000 A 
ATOM     22  C   UNL d   1     -51.064  13.985  21.535  0.00  0.00     0.000 A 
ATOM     23  C   UNL d   1     -50.857  13.201  21.702  0.00  0.00     0.000 A 
ATOM     24  C   UNL d   1     -50.300  13.039  22.288  0.00  0.00     0.000 A 
ENDBRANCH  18  19
ENDBRANCH   9  18
TORSDOF 4
ENDMDL
MODEL 2
REMARK VINA RESULT:      -5.5      1.478      1.936
REMARK  4 active torsions:
REMARK  status: ('A' for Active; 'I' for Inactive)
REMARK       I    between atoms: N_2  and  C_1 
REMARK       I    between atoms: N_3  and  C_1 
REMARK    1  A    between atoms: C_7  and  N_3 
REMARK    2  A    between atoms: C_8  and  C_12 
REMARK    3  A    between atoms: C_17  and  C_8 
REMARK    4  A    between atoms: O_18  and  C_9 
ROOT
ATOM      1  C   UNL d   1     -46.856  12.113  23.493  0.00  0.00     0.354 C 
ATOM      2  N   UNL d   1     -47.663  12.284  23.500  0.00  0.00    -0.256 N 
ATOM      3  N   UNL d   1     -46.604  11.342  23.356  0.00  0.00    -0.192 NA
ATOM      4  O   UNL d   1     -46.303  12.713  23.622  0.00  0.00    -0.244 OA
ATOM      5  C   UNL d   1     -47.915  13.062  23.638  0.00  0.00     0.085 A 
ATOM      6  C   UNL d   1     -48.219  11.688  23.372  0.00  0.00     0.085 A 
ATOM      7  C   UNL d   1     -48.730  13.236  23.646  0.00  0.00     0.019 A 
ATOM      8  C   UNL d   1     -49.017  11.862  23.381  0.00  0.00     0.019 A 
ATOM      9  C   UNL d   1     -49.272  12.637  23.518  0.00  0.00     0.003 A 
ENDROOT
BRANCH   3  10
ATOM     10  C   UNL d   1     -45.791  11.165  23.348  0.00  0.00     0.086 A 
ATOM     11  C   UNL d   1     -45.521  10.474  23.698  0.00  0.00     0.021 A 
ATOM     12  C   UNL d   1     -44.716  10.296  23.692  0.00  0.00     0.026 A 
ATOM     13  C   UNL d   1     -44.189  10.818  23.331  0.00  0.00     0.094 A 
ATOM     14  C   UNL d   1     -44.466  11.518  22.976  0.00  0.00     0.026 A 
ATOM     15  C   UNL d   1     -45.273  11.685  22.989  0.00  0.00     0.021 A 
BRANCH  13  16
ATOM     16  O   UNL d   1     -43.376  10.647  23.319  0.00  0.00    -0.328 OA
ATOM     17  C   UNL d   1     -43.091   9.969  23.692  0.00  0.00     0.181 C 
ENDBRANCH  13  16
ENDBRANCH   3  10
BRANCH   9  18
ATOM     18  C   UNL d   1     -50.082  12.811  23.526  0.00  0.00     0.000 C 
BRANCH  18  19
ATOM     19  C   UNL d   1     -50.408  13.312  22.964  0.00  0.00     0.000 A 
ATOM     20  C   UNL d   1     -50.632  13.019  22.228  0.00  0.00     0.000 A 
ATOM     21  C   UNL d   1     -50.960  13.526  21.663  0.00  0.00     0.000 A 
ATOM     22  C   UNL d   1     -51.064  14.329  21.839  0.00  0.00     0.000 A 
ATOM     23  C   UNL d   1     -50.839  14.623  22.579  0.00  0.00     0.000 A 
ATOM     24  C   UNL d   1     -50.512  14.116  23.140  0.00  0.00     0.000 A 
ENDBRANCH  18  19
ENDBRANCH   9  18
TORSDOF 4
ENDMDL
MODEL 3
REMARK VINA RESULT:      -5.3      7.940      9.566
REMARK  4 active torsions:
REMARK  status: ('A' for Active; 'I' for Inactive)
REMARK       I    between atoms: N_2  and  C_1 
REMARK       I    between atoms: N_3  and  C_1 
REMARK    1  A    between atoms: C_7  and  N_3 
REMARK    2  A    between atoms: C_8  and  C_12 
REMARK    3  A    between atoms: C_17  and  C_8 
REMARK    4  A    between atoms: O_18  and  C_9 
ROOT
ATOM      1  C   UNL d   1     -39.285  14.505  17.859  0.00  0.00     0.354 C 
ATOM      2  N   UNL d   1     -39.445  14.674  18.651  0.00  0.00    -0.256 N 
ATOM      3  N   UNL d   1     -38.595  14.791  17.513  0.00  0.00    -0.192 NA
ATOM      4  O   UNL d   1     -39.814  14.052  17.415  0.00  0.00    -0.244 OA
ATOM      5  C   UNL d   1     -40.141  14.385  18.997  0.00  0.00     0.085 A 
ATOM      6  C   UNL d   1     -38.919  15.126  19.097  0.00  0.00     0.085 A 
ATOM      7  C   UNL d   1     -40.303  14.555  19.797  0.00  0.00     0.019 A 
ATOM      8  C   UNL d   1     -39.082  15.291  19.881  0.00  0.00     0.019 A 
ATOM      9  C   UNL d   1     -39.775  15.004  20.230  0.00  0.00     0.003 A 
ENDROOT
BRANCH   3  10
ATOM     10  C   UNL d   1     -38.430  14.623  16.715  0.00  0.00     0.086 A 
ATOM     11  C   UNL d   1     -38.421  15.231  16.165  0.00  0.00     0.021 A 
ATOM     12  C   UNL d   1     -38.258  15.070  15.373  0.00  0.00     0.026 A 
ATOM     13  C   UNL d   1     -38.105  14.293  15.142  0.00  0.00     0.094 A 
ATOM     14  C   UNL d   1     -38.115  13.677  15.703  0.00  0.00     0.026 A 
ATOM     15  C   UNL d   1     -38.279  13.852  16.491  0.00  0.00     0.021 A 
BRANCH  13  16
ATOM     16  O   UNL d   1     -37.940  14.119  14.347  0.00  0.00    -0.328 OA
ATOM     17  C   UNL d   1     -37.939  13.336  14.086  0.00  0.00     0.181 C 
ENDBRANCH  13  16
ENDBRANCH   3  10
BRANCH   9  18
ATOM     18  C   UNL d   1     -39.938  15.172  21.024  0.00  0.00     0.000 C 
BRANCH  18  19
ATOM     19  C   UNL d   1     -39.539  14.780  21.625  0.00  0.00     0.000 A 
ATOM     20  C   UNL d   1     -38.906  15.144  22.006  0.00  0.00     0.000 A 
ATOM     21  C   UNL d   1     -38.505  14.748  22.612  0.00  0.00     0.000 A 
ATOM     22  C   UNL d   1     -38.741  13.985  22.835  0.00  0.00     0.000 A 
ATOM     23  C   UNL d   1     -39.378  13.622  22.451  0.00  0.00     0.000 A 
ATOM     24  C   UNL d   1     -39.776  14.018  21.848  0.00  0.00     0.000 A 
ENDBRANCH  18  19
ENDBRANCH   9  18
TORSDOF 4
ENDMDL
MODEL 4
REMARK VINA RESULT:      -4.1      1.727      5.602
REMARK  4 active torsions:
REMARK  status: ('A' for Active; 'I' for Inactive)
REMARK       I    between atoms: N_2  and  C_1 
REMARK       I    between atoms: N_3  and  C_1 
REMARK    1  A    between atoms: C_7  and  N_3 
REMARK    2  A    between atoms: C_8  and  C_12 
REMARK    3  A    between atoms: C_17  and  C_8 
REMARK    4  A    between atoms: O_18  and  C_9 
ROOT
ATOM      1  C   UNL d   1     -47.512  13.629  22.368  0.00  0.00     0.354 C 
ATOM      2  N   UNL d   1     -46.760  13.292  22.409  0.00  0.00    -0.256 N 
ATOM      3  N   UNL d   1     -47.761  14.143  22.961  0.00  0.00    -0.192 NA
ATOM      4  O   UNL d   1     -48.013  13.452  21.736  0.00  0.00    -0.244 OA
ATOM      5  C   UNL d   1     -46.511  12.775  21.810  0.00  0.00     0.085 A 
ATOM      6  C   UNL d   1     -46.256  13.467  23.039  0.00  0.00     0.085 A 
ATOM      7  C   UNL d   1     -45.751  12.434  21.851  0.00  0.00     0.019 A 
ATOM      8  C   UNL d   1     -45.512  13.131  23.074  0.00  0.00     0.019 A 
ATOM      9  C   UNL d   1     -45.261  12.614  22.479  0.00  0.00     0.003 A 
ENDROOT
BRANCH   3  10
ATOM     10  C   UNL d   1     -48.518  14.485  22.924  0.00  0.00     0.086 A 
ATOM     11  C   UNL d   1     -49.153  14.108  23.282  0.00  0.00     0.021 A 
ATOM     12  C   UNL d   1     -49.906  14.443  23.248  0.00  0.00     0.026 A 
ATOM     13  C   UNL d   1     -50.012  15.158  22.850  0.00  0.00     0.094 A 
ATOM     14  C   UNL d   1     -49.366  15.538  22.488  0.00  0.00     0.026 A 
ATOM     15  C   UNL d   1     -48.620  15.193  22.529  0.00  0.00     0.021 A 
BRANCH  13  16
ATOM     16  O   UNL d   1     -50.766  15.504  22.810  0.00  0.00    -0.328 OA
ATOM     17  C   UNL d   1     -51.064  15.922  23.455  0.00  0.00     0.181 C 
ENDBRANCH  13  16
ENDBRANCH   3  10
BRANCH   9  18
ATOM     18  C   UNL d   1     -44.506  12.275  22.518  0.00  0.00     0.000 C 
BRANCH  18  19
ATOM     19  C   UNL d   1     -44.390  11.554  22.891  0.00  0.00     0.000 A 
ATOM     20  C   UNL d   1     -45.015  11.184  23.281  0.00  0.00     0.000 A 
ATOM     21  C   UNL d   1     -44.896  10.457  23.657  0.00  0.00     0.000 A 
ATOM     22  C   UNL d   1     -44.148  10.100  23.641  0.00  0.00     0.000 A 
ATOM     23  C   UNL d   1     -43.521  10.473  23.250  0.00  0.00     0.000 A 
ATOM     24  C   UNL d   1     -43.642  11.197  22.876  0.00  0.00     0.000 A 
ENDBRANCH  18  19
ENDBRANCH   9  18
TORSDOF 4
ENDMDL
MODEL 5
REMARK VINA RESULT:      -3.8      1.542      6.372
REMARK  4 active torsions:
REMARK  status: ('A' for Active; 'I' for Inactive)
REMARK       I    between atoms: N_2  and  C_1 
REMARK       I    between atoms: N_3  and  C_1 
REMARK    1  A    between atoms: C_7  and  N_3 
REMARK    2  A    between atoms: C_8  and  C_12 
REMARK    3  A    between atoms: C_17  and  C_8 
REMARK    4  A    between atoms: O_18  and  C_9 
ROOT
ATOM      1  C   UNL d   1     -44.557  12.891  22.096  0.00  0.00     0.354 C 
ATOM      2  N   UNL d   1     -43.824  13.026  21.741  0.00  0.00    -0.256 N 
ATOM      3  N   UNL d   1     -45.161  13.443  22.005  0.00  0.00    -0.192 NA
ATOM      4  O   UNL d   1     -44.685  12.207  22.539  0.00  0.00    -0.244 OA
ATOM      5  C   UNL d   1     -43.217  12.469  21.834  0.00  0.00     0.085 A 
ATOM      6  C   UNL d   1     -43.693  13.709  21.297  0.00  0.00     0.085 A 
ATOM      7  C   UNL d   1     -42.476  12.604  21.476  0.00  0.00     0.019 A 
ATOM      8  C   UNL d   1     -42.965  13.838  20.948  0.00  0.00     0.019 A 
ATOM      9  C   UNL d   1     -42.358  13.284  21.038  0.00  0.00     0.003 A 
ENDROOT
BRANCH   3  10
ATOM     10  C   UNL d   1     -45.901  13.311  22.361  0.00  0.00     0.086 A 
ATOM     11  C   UNL d   1     -46.039  13.578  23.124  0.00  0.00     0.021 A 
ATOM     12  C   UNL d   1     -46.771  13.449  23.481  0.00  0.00     0.026 A 
ATOM     13  C   UNL d   1     -47.360  13.051  23.062  0.00  0.00     0.094 A 
ATOM     14  C   UNL d   1     -47.218  12.782  22.287  0.00  0.00     0.026 A 
ATOM     15  C   UNL d   1     -46.482  12.917  21.943  0.00  0.00     0.021 A 
BRANCH  13  16
ATOM     16  O   UNL d   1     -48.102  12.916  23.412  0.00  0.00    -0.328 OA
ATOM     17  C   UNL d   1     -48.781  13.253  23.086  0.00  0.00     0.181 C 
ENDBRANCH  13  16
ENDBRANCH   3  10
BRANCH   9  18
ATOM     18  C   UNL d   1     -41.621  13.417  20.683  0.00  0.00     0.000 C 
BRANCH  18  19
ATOM     19  C   UNL d   1     -41.120  14.003  20.965  0.00  0.00     0.000 A 
ATOM     20  C   UNL d   1     -41.205  14.780  20.705  0.00  0.00     0.000 A 
ATOM     21  C   UNL d   1     -40.699  15.369  20.990  0.00  0.00     0.000 A 
ATOM     22  C   UNL d   1     -40.107  15.177  21.538  0.00  0.00     0.000 A 
ATOM     23  C   UNL d   1     -40.023  14.396  21.798  0.00  0.00     0.000 A 
ATOM     24  C   UNL d   1     -40.528  13.810  21.512  0.00  0.00     0.000 A 
ENDBRANCH  18  19
ENDBRANCH   9  18
TORSDOF 4
ENDMDL
