MODEL 1
REMARK VINA RESULT:       4.1      0.000      0.000
REMARK  7 active torsions:
REMARK  status: ('A' for Active; 'I' for Inactive)
REMARK    1  A    between atoms: O_8  and  C_1 
REMARK    2  A    between atoms: C_10  and  C_5 
REMARK    3  A    between atoms: C_12  and  O_8 
REMARK    4  A    between atoms: N_9  and  C_10 
REMARK    5  A    between atoms: C_25  and  N_14 
REMARK    6  A    between atoms: O_24  and  C_17 
REMARK    7  A    between atoms: C_29  and  C_25 
ROOT
ATOM      1  C   UNL d   1     -41.269-122.443 -49.988  0.00  0.00     0.161 A 
ATOM      2  C   UNL d   1     -41.225-122.008 -51.595  0.00  0.00     0.108 A 
ATOM      3  C   UNL d   1     -41.308-121.424 -51.001  0.00  0.00     0.064 A 
ATOM      4  C   UNL d   1     -41.330-121.638 -50.207  0.00  0.00     0.222 A 
ATOM      5  C   UNL d   1     -41.204-121.783 -52.390  0.00  0.00     0.079 A 
ATOM      6  O   UNL d   1     -41.164-122.804 -51.386  0.00  0.00    -0.305 OA
ATOM      7  C   UNL d   1     -41.186-123.024 -50.579  0.00  0.00     0.126 A 
ATOM      8  C   UNL d   1     -41.370-120.622 -51.222  0.00  0.00     0.009 A 
ATOM      9  C   UNL d   1     -41.264-120.995 -52.608  0.00  0.00     0.199 A 
ATOM     10  O   UNL d   1     -41.412-121.065 -49.618  0.00  0.00    -0.284 OA
ATOM     11  C   UNL d   1     -41.348-120.408 -52.018  0.00  0.00     0.042 A 
ATOM     12  O   UNL d   1     -41.244-120.772 -53.394  0.00  0.00    -0.286 OA
ATOM     13  C   UNL d   1     -41.125-123.817 -50.367  0.00  0.00     0.029 C 
ENDROOT
BRANCH   5  14
ATOM     14  C   UNL d   1     -41.123-122.358 -52.969  0.00  0.00     0.086 C 
BRANCH  14  15
ATOM     15  N   UNL d   1     -41.605-122.340 -53.640  0.00  0.00    -0.300 N 
ATOM     16  C   UNL d   1     -41.267-122.215 -54.383  0.00  0.00     0.100 A 
ATOM     17  C   UNL d   1     -41.745-122.197 -55.052  0.00  0.00     0.100 A 
ATOM     18  N   UNL d   1     -42.562-122.302 -54.980  0.00  0.00    -0.297 N 
ATOM     19  C   UNL d   1     -42.897-122.427 -54.236  0.00  0.00     0.100 A 
ATOM     20  C   UNL d   1     -42.418-122.447 -53.557  0.00  0.00     0.100 A 
BRANCH  18  21
ATOM     21  C   UNL d   1     -43.042-122.284 -55.649  0.00  0.00     0.126 C 
BRANCH  21  22
ATOM     22  C   UNL d   1     -42.720-122.085 -56.382  0.00  0.00     0.253 C 
ATOM     23  O   UNL d   1     -43.218-121.848 -57.002  0.00  0.00    -0.281 OA
ENDBRANCH  21  22
ENDBRANCH  18  21
ENDBRANCH  14  15
ENDBRANCH   5  14
BRANCH   1  24
ATOM     24  O   UNL d   1     -41.290-122.658 -49.194  0.00  0.00    -0.300 OA
BRANCH  24  25
ATOM     25  C   UNL d   1     -41.989-122.927 -48.867  0.00  0.00     0.122 A 
ATOM     26  C   UNL d   1     -42.010-123.163 -48.084  0.00  0.00     0.117 A 
ATOM     27  C   UNL d   1     -42.711-123.433 -47.755  0.00  0.00     0.026 A 
ATOM     28  C   UNL d   1     -43.394-123.466 -48.219  0.00  0.00     0.002 A 
ATOM     29  C   UNL d   1     -43.373-123.230 -49.001  0.00  0.00     0.002 A 
ATOM     30  C   UNL d   1     -42.668-122.958 -49.332  0.00  0.00     0.027 A 
BRANCH  26  31
ATOM     31  O   UNL d   1     -41.323-123.126 -47.631  0.00  0.00    -0.326 OA
ATOM     32  C   UNL d   1     -41.305-123.465 -46.879  0.00  0.00     0.181 C 
ENDBRANCH  26  31
ENDBRANCH  24  25
ENDBRANCH   1  24
TORSDOF 7
ENDMDL
