MODEL 1
REMARK VINA RESULT:      56.0      0.000      0.000
REMARK  4 active torsions:
REMARK  status: ('A' for Active; 'I' for Inactive)
REMARK    1  A    between atoms: C_6  and  C_1 
REMARK       I    between atoms: N_9  and  C_6 
REMARK       I    between atoms: C_8  and  N_10 
REMARK    2  A    between atoms: C_11  and  C_8 
REMARK    3  A    between atoms: N_10  and  N_9 
REMARK    4  A    between atoms: O_22  and  C_13 
ROOT
ATOM      1  C   UNL d   1      14.162  17.347  -5.782  0.00  0.00     0.123 A 
ATOM      2  C   UNL d   1      14.858  17.721  -5.543  0.00  0.00     0.305 A 
ATOM      3  O   UNL d   1      14.915  18.526  -5.574  0.00  0.00    -0.271 OA
ATOM      4  C   UNL d   1      13.542  17.790  -6.044  0.00  0.00     0.012 A 
ATOM      5  C   UNL d   1      14.274  19.002  -5.846  0.00  0.00     0.125 A 
ATOM      6  C   UNL d   1      13.578  18.629  -6.085  0.00  0.00     0.025 A 
ATOM      7  O   UNL d   1      15.482  17.282  -5.280  0.00  0.00    -0.259 OA
ATOM      8  C   UNL d   1      14.322  19.827  -5.881  0.00  0.00     0.117 A 
ATOM      9  C   UNL d   1      12.949  19.090  -6.352  0.00  0.00     0.002 A 
ATOM     10  C   UNL d   1      12.991  19.917  -6.389  0.00  0.00     0.002 A 
ATOM     11  C   UNL d   1      13.687  20.290  -6.150  0.00  0.00     0.026 A 
ENDROOT
BRANCH   1  12
ATOM     12  C   UNL d   1      14.082  16.531  -5.759  0.00  0.00     0.302 C 
ATOM     13  N   UNL d   1      13.569  16.208  -5.196  0.00  0.00    -0.102 NA
ATOM     14  O   UNL d   1      14.512  16.036  -6.296  0.00  0.00    -0.263 OA
BRANCH  13  15
ATOM     15  N   UNL d   1      13.474  15.403  -5.154  0.00  0.00    -0.102 NA
ATOM     16  C   UNL d   1      13.324  15.049  -4.418  0.00  0.00     0.297 C 
ATOM     17  O   UNL d   1      13.272  15.496  -3.744  0.00  0.00    -0.264 OA
BRANCH  16  18
ATOM     18  C   UNL d   1      13.227  14.239  -4.368  0.00  0.00     0.059 A 
ATOM     19  C   UNL d   1      12.868  13.820  -4.968  0.00  0.00     0.005 A 
ATOM     20  C   UNL d   1      12.769  13.009  -4.924  0.00  0.00     0.007 A 
ATOM     21  C   UNL d   1      13.028  12.593  -4.271  0.00  0.00     0.035 A 
ATOM     22  C   UNL d   1      13.398  13.018  -3.649  0.00  0.00     0.007 A 
ATOM     23 BR   UNL d   1      12.925  11.779  -4.232  0.00  0.00    -0.049 Br
ATOM     24  C   UNL d   1      13.498  13.829  -3.694  0.00  0.00     0.005 A 
ENDBRANCH  16  18
ENDBRANCH  13  15
ENDBRANCH   1  12
BRANCH   8  25
ATOM     25  O   UNL d   1      15.011  20.197  -5.645  0.00  0.00    -0.326 OA
ATOM     26  C   UNL d   1      15.109  20.991  -5.765  0.00  0.00     0.181 C 
ENDBRANCH   8  25
TORSDOF 4
ENDMDL
MODEL 2
REMARK VINA RESULT:      56.1      2.105      5.835
REMARK  4 active torsions:
REMARK  status: ('A' for Active; 'I' for Inactive)
REMARK    1  A    between atoms: C_6  and  C_1 
REMARK       I    between atoms: N_9  and  C_6 
REMARK       I    between atoms: C_8  and  N_10 
REMARK    2  A    between atoms: C_11  and  C_8 
REMARK    3  A    between atoms: N_10  and  N_9 
REMARK    4  A    between atoms: O_22  and  C_13 
ROOT
ATOM      1  C   UNL d   1      13.600  14.669  -4.155  0.00  0.00     0.123 A 
ATOM      2  C   UNL d   1      14.035  14.612  -3.456  0.00  0.00     0.305 A 
ATOM      3  O   UNL d   1      14.113  13.898  -3.086  0.00  0.00    -0.271 OA
ATOM      4  C   UNL d   1      13.255  14.010  -4.465  0.00  0.00     0.012 A 
ATOM      5  C   UNL d   1      13.757  13.200  -3.399  0.00  0.00     0.125 A 
ATOM      6  C   UNL d   1      13.323  13.257  -4.098  0.00  0.00     0.025 A 
ATOM      7  O   UNL d   1      14.382  15.269  -3.141  0.00  0.00    -0.259 OA
ATOM      8  C   UNL d   1      13.831  12.464  -3.028  0.00  0.00     0.117 A 
ATOM      9  C   UNL d   1      12.974  12.577  -4.407  0.00  0.00     0.002 A 
ATOM     10  C   UNL d   1      13.044  11.838  -4.040  0.00  0.00     0.002 A 
ATOM     11  C   UNL d   1      13.478  11.780  -3.341  0.00  0.00     0.026 A 
ENDROOT
BRANCH   1  12
ATOM     12  C   UNL d   1      13.508  15.384  -4.547  0.00  0.00     0.302 C 
ATOM     13  N   UNL d   1      14.161  15.893  -4.582  0.00  0.00    -0.102 NA
ATOM     14  O   UNL d   1      12.769  15.594  -4.904  0.00  0.00    -0.263 OA
BRANCH  13  15
ATOM     15  N   UNL d   1      14.095  16.605  -4.964  0.00  0.00    -0.102 NA
ATOM     16  C   UNL d   1      14.686  17.179  -4.861  0.00  0.00     0.297 C 
ATOM     17  O   UNL d   1      15.326  17.036  -4.384  0.00  0.00    -0.264 OA
BRANCH  16  18
ATOM     18  C   UNL d   1      14.626  17.899  -5.242  0.00  0.00     0.059 A 
ATOM     19  C   UNL d   1      14.964  18.571  -4.929  0.00  0.00     0.005 A 
ATOM     20  C   UNL d   1      14.908  19.295  -5.307  0.00  0.00     0.007 A 
ATOM     21  C   UNL d   1      14.507  19.365  -6.014  0.00  0.00     0.035 A 
ATOM     22  C   UNL d   1      14.155  18.677  -6.343  0.00  0.00     0.007 A 
ATOM     23 BR   UNL d   1      14.453  20.093  -6.389  0.00  0.00    -0.049 Br
ATOM     24  C   UNL d   1      14.213  17.953  -5.965  0.00  0.00     0.005 A 
ENDBRANCH  16  18
ENDBRANCH  13  15
ENDBRANCH   1  12
BRANCH   8  25
ATOM     25  O   UNL d   1      14.261  12.408  -2.337  0.00  0.00    -0.326 OA
ATOM     26  C   UNL d   1      13.977  11.975  -1.714  0.00  0.00     0.181 C 
ENDBRANCH   8  25
TORSDOF 4
ENDMDL
