MODEL 1
REMARK VINA RESULT:      49.2      0.000      0.000
REMARK  4 active torsions:
REMARK  status: ('A' for Active; 'I' for Inactive)
REMARK    1  A    between atoms: N_8  and  C_1 
REMARK    2  A    between atoms: O_11  and  C_2 
REMARK       I    between atoms: C_12  and  N_8 
REMARK    3  A    between atoms: C_16  and  O_11 
REMARK    4  A    between atoms: O_22  and  C_17 
ROOT
ATOM      1  C   UNL d   1     -51.814  25.751  33.494  0.00  0.00     0.272 A 
ATOM      2  C   UNL d   1     -51.283  26.313  33.512  0.00  0.00     0.284 A 
ATOM      3  C   UNL d   1     -52.990  24.656  33.442  0.00  0.00     0.207 A 
ATOM      4  C   UNL d   1     -52.933  25.618  33.362  0.00  0.00     0.220 A 
ATOM      5  O   UNL d   1     -51.337  25.347  33.593  0.00  0.00    -0.325 OA
ATOM      6  C   UNL d   1     -52.408  25.239  33.464  0.00  0.00     0.182 A 
ATOM      7  O   UNL d   1     -53.776  24.580  33.347  0.00  0.00    -0.327 OA
ATOM      8  C   UNL d   1     -53.807  23.918  33.403  0.00  0.00     0.188 A 
ATOM      9  O   UNL d   1     -53.097  24.065  33.481  0.00  0.00    -0.332 OA
ATOM     10  C   UNL d   1     -52.458  24.592  33.516  0.00  0.00     0.177 A 
ATOM     11  O   UNL d   1     -53.359  25.129  33.351  0.00  0.00    -0.290 OA
ATOM     12  C   UNL d   1     -54.529  23.955  33.306  0.00  0.00     0.061 C 
ATOM     13  C   UNL d   1     -53.863  23.191  33.462  0.00  0.00     0.061 C 
ENDROOT
BRANCH   2  14
ATOM     14  O   UNL d   1     -50.494  26.391  33.607  0.00  0.00    -0.303 OA
BRANCH  14  15
ATOM     15  C   UNL d   1     -50.011  25.710  33.618  0.00  0.00     0.097 A 
ATOM     16  C   UNL d   1     -49.255  25.758  33.938  0.00  0.00     0.026 A 
ATOM     17  C   UNL d   1     -48.767  25.083  33.952  0.00  0.00     0.026 A 
ATOM     18  C   UNL d   1     -49.050  24.365  33.641  0.00  0.00     0.094 A 
ATOM     19  C   UNL d   1     -49.815  24.325  33.319  0.00  0.00     0.026 A 
ATOM     20  C   UNL d   1     -50.300  25.001  33.307  0.00  0.00     0.026 A 
BRANCH  18  21
ATOM     21  O   UNL d   1     -48.563  23.690  33.655  0.00  0.00    -0.328 OA
ATOM     22  C   UNL d   1     -48.331  23.360  34.376  0.00  0.00     0.181 C 
ENDBRANCH  18  21
ENDBRANCH  14  15
ENDBRANCH   2  14
BRANCH   1  23
ATOM     23  N   UNL d   1     -51.765  26.401  33.442  0.00  0.00    -0.380 NA
ATOM     24  C   UNL d   1     -51.714  27.049  33.390  0.00  0.00     0.324 C 
ATOM     25  O   UNL d   1     -52.251  27.413  33.316  0.00  0.00    -0.251 OA
ATOM     26  C   UNL d   1     -51.125  27.340  33.411  0.00  0.00     0.082 C 
ENDBRANCH   1  23
TORSDOF 4
ENDMDL
