MODEL 1
REMARK VINA RESULT:      -4.6      0.000      0.000
REMARK  4 active torsions:
REMARK  status: ('A' for Active; 'I' for Inactive)
REMARK       I    between atoms: C_4  and  N_1 
REMARK    1  A    between atoms: C_7  and  C_3 
REMARK    2  A    between atoms: C_8  and  C_4 
REMARK    3  A    between atoms: C_10  and  C_5 
REMARK    4  A    between atoms: O_23  and  C_18 
ROOT
ATOM      1  N   UNL d   1      57.923  -1.144  30.598  0.00  0.00    -0.194 N 
ATOM      2  N   UNL d   1      57.341  -1.246  31.164  0.00  0.00    -0.163 NA
ATOM      3  C   UNL d   1      58.092  -0.337  30.543  0.00  0.00     0.091 A 
ATOM      4  C   UNL d   1      58.295  -1.756  30.142  0.00  0.00     0.286 C 
ATOM      5  C   UNL d   1      57.150  -0.499  31.459  0.00  0.00     0.103 A 
ATOM      6  C   UNL d   1      57.609   0.050  31.078  0.00  0.00     0.040 A 
ATOM      7  O   UNL d   1      58.061  -2.542  30.265  0.00  0.00    -0.265 OA
ENDROOT
BRANCH   5   8
ATOM      8  C   UNL d   1      56.586  -0.345  32.042  0.00  0.00     0.019 A 
ATOM      9  C   UNL d   1      56.328   0.425  32.183  0.00  0.00     0.004 A 
ATOM     10  C   UNL d   1      55.764   0.578  32.766  0.00  0.00     0.024 A 
ATOM     11  C   UNL d   1      55.456  -0.047  33.213  0.00  0.00     0.094 A 
ATOM     12  C   UNL d   1      55.714  -0.821  33.074  0.00  0.00     0.024 A 
ATOM     13  C   UNL d   1      56.278  -0.970  32.489  0.00  0.00     0.004 A 
BRANCH  11  14
ATOM     14  O   UNL d   1      54.891   0.103  33.798  0.00  0.00    -0.328 OA
ATOM     15  C   UNL d   1      55.129   0.359  34.548  0.00  0.00     0.181 C 
ENDBRANCH  11  14
ENDBRANCH   5   8
BRANCH   3  16
ATOM     16  C   UNL d   1      58.653   0.002  30.031  0.00  0.00     0.057 A 
ATOM     17  C   UNL d   1      59.324   0.334  30.351  0.00  0.00     0.197 A 
ATOM     18  O   UNL d   1      59.452   0.339  31.150  0.00  0.00    -0.286 OA
ATOM     19  C   UNL d   1      59.891   0.676  29.840  0.00  0.00     0.042 A 
ATOM     20  C   UNL d   1      59.779   0.682  29.019  0.00  0.00     0.003 A 
ATOM     21  C   UNL d   1      59.093   0.339  28.731  0.00  0.00     0.000 A 
ATOM     22  C   UNL d   1      58.547   0.010  29.217  0.00  0.00     0.005 A 
ENDBRANCH   3  16
BRANCH   4  23
ATOM     23  C   UNL d   1      58.864  -1.573  29.600  0.00  0.00     0.087 A 
ATOM     24  S   UNL d   1      59.649  -1.582  29.741  0.00  0.00    -0.082 SA
ATOM     25  C   UNL d   1      60.038  -1.356  29.028  0.00  0.00     0.036 A 
ATOM     26  C   UNL d   1      59.451  -1.211  28.457  0.00  0.00     0.008 A 
ATOM     27  C   UNL d   1      58.723  -1.346  28.814  0.00  0.00     0.012 A 
ENDBRANCH   4  23
TORSDOF 4
ENDMDL
