MODEL 1
REMARK VINA RESULT:      -4.1      0.000      0.000
REMARK  3 active torsions:
REMARK  status: ('A' for Active; 'I' for Inactive)
REMARK       I    between atoms: C_3  and  N_1 
REMARK       I    between atoms: C_2  and  N_7 
REMARK    1  A    between atoms: C_4  and  C_2 
REMARK    2  A    between atoms: C_6  and  C_3 
REMARK    3  A    between atoms: N_7  and  C_15 
ROOT
ATOM      1  N   UNL d   1     -41.581-122.157 -52.679  0.00  0.00    -0.273 N 
ATOM      2  C   UNL d   1     -41.777-122.664 -53.303  0.00  0.00     0.271 C 
ATOM      3  C   UNL d   1     -41.631-122.416 -51.897  0.00  0.00     0.067 A 
ATOM      4  C   UNL d   1     -41.434-121.907 -51.281  0.00  0.00     0.018 A 
ATOM      5  C   UNL d   1     -41.878-123.186 -51.741  0.00  0.00     0.019 A 
ATOM      6  O   UNL d   1     -42.026-123.439 -53.154  0.00  0.00    -0.266 OA
ATOM      7  C   UNL d   1     -41.734-122.946 -50.338  0.00  0.00     0.085 A 
ATOM      8  C   UNL d   1     -41.485-122.170 -50.501  0.00  0.00     0.021 A 
ATOM      9  C   UNL d   1     -41.332-121.382 -52.828  0.00  0.00     0.083 A 
ATOM     10  C   UNL d   1     -41.929-123.451 -50.966  0.00  0.00     0.021 A 
ATOM     11  C   UNL d   1     -41.189-121.143 -51.434  0.00  0.00     0.003 A 
ATOM     12  C   UNL d   1     -41.137-120.877 -52.213  0.00  0.00     0.019 A 
ENDROOT
BRANCH   7  13
ATOM     13  N   UNL d   1     -41.783-123.202 -49.564  0.00  0.00    -0.208 NA
ATOM     14  C   UNL d   1     -42.349-122.883 -49.059  0.00  0.00     0.282 C 
ATOM     15  O   UNL d   1     -42.869-122.304 -49.326  0.00  0.00    -0.265 OA
BRANCH  14  16
ATOM     16  C   UNL d   1     -42.402-123.136 -48.284  0.00  0.00     0.096 A 
ATOM     17  C   UNL d   1     -43.071-123.560 -48.025  0.00  0.00     0.065 A 
ATOM     18 CL   UNL d   1     -43.678-123.720 -48.558  0.00  0.00    -0.082 Cl
ATOM     19  C   UNL d   1     -43.125-123.815 -47.247  0.00  0.00     0.012 A 
ATOM     20  C   UNL d   1     -42.511-123.649 -46.719  0.00  0.00     0.003 A 
ATOM     21  C   UNL d   1     -41.846-123.228 -46.979  0.00  0.00     0.030 A 
ATOM     22  C   UNL d   1     -41.795-122.973 -47.763  0.00  0.00     0.146 A 
ATOM     23  F   UNL d   1     -41.123-122.552 -48.010  0.00  0.00    -0.204 F 
ENDBRANCH  14  16
ENDBRANCH   7  13
BRANCH   2  24
ATOM     24  C   UNL d   1     -41.723-122.392 -54.085  0.00  0.00     0.086 A 
ATOM     25  S   UNL d   1     -41.161-122.649 -54.650  0.00  0.00    -0.082 SA
ATOM     26  C   UNL d   1     -41.314-122.232 -55.347  0.00  0.00     0.036 A 
ATOM     27  C   UNL d   1     -41.954-121.725 -55.228  0.00  0.00     0.008 A 
ATOM     28  C   UNL d   1     -42.206-121.826 -54.446  0.00  0.00     0.012 A 
ENDBRANCH   2  24
TORSDOF 3
ENDMDL
MODEL 2
REMARK VINA RESULT:      -3.6      2.292      5.473
REMARK  3 active torsions:
REMARK  status: ('A' for Active; 'I' for Inactive)
REMARK       I    between atoms: C_3  and  N_1 
REMARK       I    between atoms: C_2  and  N_7 
REMARK    1  A    between atoms: C_4  and  C_2 
REMARK    2  A    between atoms: C_6  and  C_3 
REMARK    3  A    between atoms: N_7  and  C_15 
ROOT
ATOM      1  N   UNL d   1     -42.300-122.794 -49.667  0.00  0.00    -0.273 N 
ATOM      2  C   UNL d   1     -41.812-123.264 -49.190  0.00  0.00     0.271 C 
ATOM      3  C   UNL d   1     -42.106-122.656 -50.457  0.00  0.00     0.067 A 
ATOM      4  C   UNL d   1     -42.595-122.188 -50.925  0.00  0.00     0.018 A 
ATOM      5  C   UNL d   1     -41.422-122.989 -50.769  0.00  0.00     0.019 A 
ATOM      6  O   UNL d   1     -41.123-123.603 -49.498  0.00  0.00    -0.266 OA
ATOM      7  C   UNL d   1     -41.709-122.386 -52.035  0.00  0.00     0.085 A 
ATOM      8  C   UNL d   1     -42.398-122.052 -51.714  0.00  0.00     0.021 A 
ATOM      9  C   UNL d   1     -42.990-122.455 -49.358  0.00  0.00     0.083 A 
ATOM     10  C   UNL d   1     -41.223-122.856 -51.555  0.00  0.00     0.021 A 
ATOM     11  C   UNL d   1     -43.275-121.856 -50.615  0.00  0.00     0.003 A 
ATOM     12  C   UNL d   1     -43.475-121.990 -49.826  0.00  0.00     0.019 A 
ENDROOT
BRANCH   7  13
ATOM     13  N   UNL d   1     -41.517-122.249 -52.816  0.00  0.00    -0.208 NA
ATOM     14  C   UNL d   1     -41.992-122.552 -53.417  0.00  0.00     0.282 C 
ATOM     15  O   UNL d   1     -42.662-122.995 -53.237  0.00  0.00    -0.265 OA
BRANCH  14  16
ATOM     16  C   UNL d   1     -41.804-122.417 -54.201  0.00  0.00     0.096 A 
ATOM     17  C   UNL d   1     -41.365-122.980 -54.631  0.00  0.00     0.065 A 
ATOM     18 CL   UNL d   1     -41.123-123.673 -54.257  0.00  0.00    -0.082 Cl
ATOM     19  C   UNL d   1     -41.176-122.846 -55.417  0.00  0.00     0.012 A 
ATOM     20  C   UNL d   1     -41.424-122.147 -55.784  0.00  0.00     0.003 A 
ATOM     21  C   UNL d   1     -41.861-121.589 -55.354  0.00  0.00     0.030 A 
ATOM     22  C   UNL d   1     -42.049-121.727 -54.562  0.00  0.00     0.146 A 
ATOM     23  F   UNL d   1     -42.487-121.159 -54.144  0.00  0.00    -0.204 F 
ENDBRANCH  14  16
ENDBRANCH   7  13
BRANCH   2  24
ATOM     24  C   UNL d   1     -42.018-123.396 -48.397  0.00  0.00     0.086 A 
ATOM     25  S   UNL d   1     -41.558-123.174 -47.734  0.00  0.00    -0.082 SA
ATOM     26  C   UNL d   1     -41.975-123.413 -47.062  0.00  0.00     0.036 A 
ATOM     27  C   UNL d   1     -42.679-123.777 -47.291  0.00  0.00     0.008 A 
ATOM     28  C   UNL d   1     -42.703-123.766 -48.119  0.00  0.00     0.012 A 
ENDBRANCH   2  24
TORSDOF 3
ENDMDL
