MODEL 1
REMARK VINA RESULT:      47.9      0.000      0.000
REMARK  4 active torsions:
REMARK  status: ('A' for Active; 'I' for Inactive)
REMARK    1  A    between atoms: C_15  and  C_2 
REMARK    2  A    between atoms: C_3  and  N_6 
REMARK    3  A    between atoms: C_5  and  C_16 
REMARK       I    between atoms: N_6  and  C_5 
REMARK    4  A    between atoms: C_16  and  C_15 
ROOT
ATOM      1  C   UNL d   1     -50.893  26.607  33.994  0.00  0.00     0.279 C 
ATOM      2  N   UNL d   1     -50.912  26.159  33.306  0.00  0.00    -0.208 NA
ATOM      3  O   UNL d   1     -50.545  27.349  33.995  0.00  0.00    -0.265 OA
ENDROOT
BRANCH   1   4
ATOM      4  C   UNL d   1     -51.225  26.315  34.691  0.00  0.00     0.065 C 
BRANCH   4   5
ATOM      5  C   UNL d   1     -51.462  26.831  35.283  0.00  0.00     0.030 C 
BRANCH   5   6
ATOM      6  C   UNL d   1     -51.568  26.559  36.054  0.00  0.00     0.100 A 
ATOM      7  O   UNL d   1     -51.077  26.698  36.703  0.00  0.00    -0.307 OA
ATOM      8  C   UNL d   1     -51.392  26.324  37.357  0.00  0.00     0.100 A 
ATOM      9  C   UNL d   1     -52.088  25.945  37.118  0.00  0.00     0.027 A 
ATOM     10  C   UNL d   1     -51.079  26.323  38.112  0.00  0.00     0.027 C 
ATOM     11  C   UNL d   1     -52.196  26.090  36.315  0.00  0.00     0.027 A 
ENDBRANCH   5   6
ENDBRANCH   4   5
ENDBRANCH   1   4
BRANCH   2  12
ATOM     12  C   UNL d   1     -51.266  25.409  33.312  0.00  0.00     0.085 A 
ATOM     13  C   UNL d   1     -50.793  24.732  33.306  0.00  0.00     0.019 A 
ATOM     14  C   UNL d   1     -51.139  23.992  33.312  0.00  0.00     0.002 A 
ATOM     15  C   UNL d   1     -50.669  23.319  33.306  0.00  0.00     0.000 C 
ATOM     16  C   UNL d   1     -51.970  23.919  33.322  0.00  0.00     0.000 A 
ATOM     17  C   UNL d   1     -52.435  24.605  33.327  0.00  0.00     0.002 A 
ATOM     18  C   UNL d   1     -52.085  25.343  33.322  0.00  0.00     0.019 A 
ATOM     19  C   UNL d   1     -53.259  24.533  33.338  0.00  0.00     0.000 C 
ENDBRANCH   2  12
TORSDOF 4
ENDMDL
MODEL 2
REMARK VINA RESULT:      49.1      1.894      2.644
REMARK  4 active torsions:
REMARK  status: ('A' for Active; 'I' for Inactive)
REMARK    1  A    between atoms: C_15  and  C_2 
REMARK    2  A    between atoms: C_3  and  N_6 
REMARK    3  A    between atoms: C_5  and  C_16 
REMARK       I    between atoms: N_6  and  C_5 
REMARK    4  A    between atoms: C_16  and  C_15 
ROOT
ATOM      1  C   UNL d   1     -51.287  27.094  33.483  0.00  0.00     0.279 C 
ATOM      2  N   UNL d   1     -51.872  26.546  33.306  0.00  0.00    -0.208 NA
ATOM      3  O   UNL d   1     -51.457  27.896  33.478  0.00  0.00    -0.265 OA
ENDROOT
BRANCH   1   4
ATOM      4  C   UNL d   1     -50.523  26.844  33.667  0.00  0.00     0.065 C 
BRANCH   4   5
ATOM      5  C   UNL d   1     -50.192  27.029  34.394  0.00  0.00     0.030 C 
BRANCH   5   6
ATOM      6  C   UNL d   1     -49.553  27.549  34.440  0.00  0.00     0.100 A 
ATOM      7  O   UNL d   1     -49.211  27.858  35.125  0.00  0.00    -0.307 OA
ATOM      8  C   UNL d   1     -48.593  28.348  34.913  0.00  0.00     0.100 A 
ATOM      9  C   UNL d   1     -48.545  28.348  34.088  0.00  0.00     0.027 A 
ATOM     10  C   UNL d   1     -48.109  28.765  35.423  0.00  0.00     0.027 C 
ATOM     11  C   UNL d   1     -49.137  27.855  33.795  0.00  0.00     0.027 A 
ENDBRANCH   5   6
ENDBRANCH   4   5
ENDBRANCH   1   4
BRANCH   2  12
ATOM     12  C   UNL d   1     -51.695  25.735  33.313  0.00  0.00     0.085 A 
ATOM     13  C   UNL d   1     -52.307  25.182  33.325  0.00  0.00     0.019 A 
ATOM     14  C   UNL d   1     -52.135  24.383  33.332  0.00  0.00     0.002 A 
ATOM     15  C   UNL d   1     -52.743  23.832  33.344  0.00  0.00     0.000 C 
ATOM     16  C   UNL d   1     -51.341  24.126  33.326  0.00  0.00     0.000 A 
ATOM     17  C   UNL d   1     -50.735  24.691  33.313  0.00  0.00     0.002 A 
ATOM     18  C   UNL d   1     -50.911  25.488  33.307  0.00  0.00     0.019 A 
ATOM     19  C   UNL d   1     -49.948  24.437  33.307  0.00  0.00     0.000 C 
ENDBRANCH   2  12
TORSDOF 4
ENDMDL
