MODEL 1
REMARK VINA RESULT:      -7.4      0.000      0.000
REMARK  5 active torsions:
REMARK  status: ('A' for Active; 'I' for Inactive)
REMARK    1  A    between atoms: C_10  and  C_4 
REMARK       I    between atoms: C_6  and  N_8 
REMARK    2  A    between atoms: C_9  and  C_6 
REMARK    3  A    between atoms: N_8  and  C_13 
REMARK    4  A    between atoms: C_11  and  C_9 
REMARK    5  A    between atoms: C_13  and  C_10 
ROOT
ATOM      1  C   UNL d   1      52.835  33.550  53.244  0.00  0.00     0.279 C 
ATOM      2  O   UNL d   1      52.916  34.337  53.485  0.00  0.00    -0.265 OA
ATOM      3  N   UNL d   1      53.326  32.976  53.555  0.00  0.00    -0.206 NA
ENDROOT
BRANCH   1   4
ATOM      4  C   UNL d   1      52.257  33.353  52.690  0.00  0.00     0.062 C 
BRANCH   4   5
ATOM      5  C   UNL d   1      51.526  33.749  52.686  0.00  0.00     0.005 A 
ATOM      6  C   UNL d   1      51.297  34.131  52.008  0.00  0.00     0.001 A 
ATOM      7  C   UNL d   1      50.573  34.527  51.998  0.00  0.00     0.011 A 
ATOM      8  C   UNL d   1      50.089  34.536  52.660  0.00  0.00     0.058 A 
ATOM      9  C   UNL d   1      50.325  34.146  53.347  0.00  0.00     0.011 A 
ATOM     10 CL   UNL d   1      49.360  34.937  52.639  0.00  0.00    -0.082 Cl
ATOM     11  C   UNL d   1      51.048  33.752  53.358  0.00  0.00     0.001 A 
ENDBRANCH   4   5
ENDBRANCH   1   4
BRANCH   3  12
ATOM     12  C   UNL d   1      53.239  32.176  53.307  0.00  0.00     0.104 C 
BRANCH  12  13
ATOM     13  C   UNL d   1      53.719  31.596  53.646  0.00  0.00     0.040 C 
BRANCH  13  14
ATOM     14  C   UNL d   1      53.469  30.802  53.625  0.00  0.00     0.090 A 
ATOM     15  N   UNL d   1      53.614  30.310  54.273  0.00  0.00    -0.238 NA
ATOM     16  C   UNL d   1      53.308  29.564  54.098  0.00  0.00     0.111 A 
ATOM     17  S   UNL d   1      52.978  29.593  53.352  0.00  0.00    -0.066 SA
ATOM     18  C   UNL d   1      53.327  28.894  54.588  0.00  0.00     0.028 C 
ATOM     19  C   UNL d   1      53.072  30.354  53.049  0.00  0.00     0.056 A 
ENDBRANCH  13  14
ENDBRANCH  12  13
ENDBRANCH   3  12
TORSDOF 5
ENDMDL
MODEL 2
REMARK VINA RESULT:      -7.2      2.426      4.653
REMARK  5 active torsions:
REMARK  status: ('A' for Active; 'I' for Inactive)
REMARK    1  A    between atoms: C_10  and  C_4 
REMARK       I    between atoms: C_6  and  N_8 
REMARK    2  A    between atoms: C_9  and  C_6 
REMARK    3  A    between atoms: N_8  and  C_13 
REMARK    4  A    between atoms: C_11  and  C_9 
REMARK    5  A    between atoms: C_13  and  C_10 
ROOT
ATOM      1  C   UNL d   1      53.426  32.397  53.150  0.00  0.00     0.279 C 
ATOM      2  O   UNL d   1      54.216  32.265  53.350  0.00  0.00    -0.265 OA
ATOM      3  N   UNL d   1      53.136  33.161  53.115  0.00  0.00    -0.206 NA
ENDROOT
BRANCH   1   4
ATOM      4  C   UNL d   1      52.936  31.755  52.986  0.00  0.00     0.062 C 
BRANCH   4   5
ATOM      5  C   UNL d   1      53.068  31.021  53.353  0.00  0.00     0.005 A 
ATOM      6  C   UNL d   1      52.945  30.345  52.923  0.00  0.00     0.001 A 
ATOM      7  C   UNL d   1      53.075  29.613  53.282  0.00  0.00     0.011 A 
ATOM      8  C   UNL d   1      53.325  29.567  54.063  0.00  0.00     0.058 A 
ATOM      9  C   UNL d   1      53.449  30.256  54.497  0.00  0.00     0.011 A 
ATOM     10 CL   UNL d   1      53.452  28.824  54.416  0.00  0.00    -0.082 Cl
ATOM     11  C   UNL d   1      53.319  30.986  54.138  0.00  0.00     0.001 A 
ENDBRANCH   4   5
ENDBRANCH   1   4
BRANCH   3  12
ATOM     12  C   UNL d   1      52.330  33.290  52.909  0.00  0.00     0.104 C 
BRANCH  12  13
ATOM     13  C   UNL d   1      52.083  34.052  52.709  0.00  0.00     0.040 C 
BRANCH  13  14
ATOM     14  C   UNL d   1      51.268  34.210  52.648  0.00  0.00     0.090 A 
ATOM     15  N   UNL d   1      50.909  34.230  51.904  0.00  0.00    -0.238 NA
ATOM     16  C   UNL d   1      50.109  34.397  52.012  0.00  0.00     0.111 A 
ATOM     17  S   UNL d   1      49.973  34.480  52.813  0.00  0.00    -0.066 SA
ATOM     18  C   UNL d   1      49.534  34.471  51.418  0.00  0.00     0.028 C 
ATOM     19  C   UNL d   1      50.683  34.366  53.216  0.00  0.00     0.056 A 
ENDBRANCH  13  14
ENDBRANCH  12  13
ENDBRANCH   3  12
TORSDOF 5
ENDMDL
MODEL 3
REMARK VINA RESULT:      -7.1      1.747      2.012
REMARK  5 active torsions:
REMARK  status: ('A' for Active; 'I' for Inactive)
REMARK    1  A    between atoms: C_10  and  C_4 
REMARK       I    between atoms: C_6  and  N_8 
REMARK    2  A    between atoms: C_9  and  C_6 
REMARK    3  A    between atoms: N_8  and  C_13 
REMARK    4  A    between atoms: C_11  and  C_9 
REMARK    5  A    between atoms: C_13  and  C_10 
ROOT
ATOM      1  C   UNL d   1      52.247  32.867  52.846  0.00  0.00     0.279 C 
ATOM      2  O   UNL d   1      51.666  33.403  52.606  0.00  0.00    -0.265 OA
ATOM      3  N   UNL d   1      52.122  32.063  52.757  0.00  0.00    -0.206 NA
ENDROOT
BRANCH   1   4
ATOM      4  C   UNL d   1      52.949  33.148  53.173  0.00  0.00     0.062 C 
BRANCH   4   5
ATOM      5  C   UNL d   1      52.963  33.873  53.579  0.00  0.00     0.005 A 
ATOM      6  C   UNL d   1      52.886  34.558  53.152  0.00  0.00     0.001 A 
ATOM      7  C   UNL d   1      52.899  35.281  53.550  0.00  0.00     0.011 A 
ATOM      8  C   UNL d   1      52.987  35.310  54.365  0.00  0.00     0.058 A 
ATOM      9  C   UNL d   1      53.065  34.612  54.796  0.00  0.00     0.011 A 
ATOM     10 CL   UNL d   1      52.998  36.045  54.757  0.00  0.00    -0.082 Cl
ATOM     11  C   UNL d   1      53.052  33.891  54.399  0.00  0.00     0.001 A 
ENDBRANCH   4   5
ENDBRANCH   1   4
BRANCH   3  12
ATOM     12  C   UNL d   1      52.718  31.521  53.003  0.00  0.00     0.104 C 
BRANCH  12  13
ATOM     13  C   UNL d   1      52.565  30.711  52.961  0.00  0.00     0.040 C 
BRANCH  13  14
ATOM     14  C   UNL d   1      53.045  30.186  53.393  0.00  0.00     0.090 A 
ATOM     15  N   UNL d   1      52.699  29.659  53.927  0.00  0.00    -0.238 NA
ATOM     16  C   UNL d   1      53.302  29.213  54.271  0.00  0.00     0.111 A 
ATOM     17  S   UNL d   1      54.013  29.461  53.954  0.00  0.00    -0.066 SA
ATOM     18  C   UNL d   1      53.213  28.615  54.840  0.00  0.00     0.028 C 
ATOM     19  C   UNL d   1      53.867  30.062  53.410  0.00  0.00     0.056 A 
ENDBRANCH  13  14
ENDBRANCH  12  13
ENDBRANCH   3  12
TORSDOF 5
ENDMDL
MODEL 4
REMARK VINA RESULT:      -6.9      3.252      5.331
REMARK  5 active torsions:
REMARK  status: ('A' for Active; 'I' for Inactive)
REMARK    1  A    between atoms: C_10  and  C_4 
REMARK       I    between atoms: C_6  and  N_8 
REMARK    2  A    between atoms: C_9  and  C_6 
REMARK    3  A    between atoms: N_8  and  C_13 
REMARK    4  A    between atoms: C_11  and  C_9 
REMARK    5  A    between atoms: C_13  and  C_10 
ROOT
ATOM      1  C   UNL d   1      51.413  34.097  52.521  0.00  0.00     0.279 C 
ATOM      2  O   UNL d   1      52.022  33.709  52.121  0.00  0.00    -0.265 OA
ATOM      3  N   UNL d   1      50.694  34.219  52.151  0.00  0.00    -0.206 NA
ENDROOT
BRANCH   1   4
ATOM      4  C   UNL d   1      51.536  34.360  53.293  0.00  0.00     0.062 C 
BRANCH   4   5
ATOM      5  C   UNL d   1      52.259  34.212  53.676  0.00  0.00     0.005 A 
ATOM      6  C   UNL d   1      52.769  34.831  53.792  0.00  0.00     0.001 A 
ATOM      7  C   UNL d   1      53.488  34.690  54.172  0.00  0.00     0.011 A 
ATOM      8  C   UNL d   1      53.687  33.937  54.431  0.00  0.00     0.058 A 
ATOM      9  C   UNL d   1      53.165  33.310  54.311  0.00  0.00     0.011 A 
ATOM     10 CL   UNL d   1      54.414  33.806  54.813  0.00  0.00    -0.082 Cl
ATOM     11  C   UNL d   1      52.448  33.450  53.932  0.00  0.00     0.001 A 
ENDBRANCH   4   5
ENDBRANCH   1   4
BRANCH   3  12
ATOM     12  C   UNL d   1      50.076  34.616  52.562  0.00  0.00     0.104 C 
BRANCH  12  13
ATOM     13  C   UNL d   1      49.333  34.678  52.209  0.00  0.00     0.040 C 
BRANCH  13  14
ATOM     14  C   UNL d   1      48.780  35.215  52.523  0.00  0.00     0.090 A 
ATOM     15  N   UNL d   1      48.141  35.461  52.061  0.00  0.00    -0.238 NA
ATOM     16  C   UNL d   1      47.690  35.986  52.510  0.00  0.00     0.111 A 
ATOM     17  S   UNL d   1      48.046  36.065  53.241  0.00  0.00    -0.066 SA
ATOM     18  C   UNL d   1      46.996  36.373  52.271  0.00  0.00     0.028 C 
ATOM     19  C   UNL d   1      48.720  35.592  53.260  0.00  0.00     0.056 A 
ENDBRANCH  13  14
ENDBRANCH  12  13
ENDBRANCH   3  12
TORSDOF 5
ENDMDL
MODEL 5
REMARK VINA RESULT:      -6.6      2.797      4.828
REMARK  5 active torsions:
REMARK  status: ('A' for Active; 'I' for Inactive)
REMARK    1  A    between atoms: C_10  and  C_4 
REMARK       I    between atoms: C_6  and  N_8 
REMARK    2  A    between atoms: C_9  and  C_6 
REMARK    3  A    between atoms: N_8  and  C_13 
REMARK    4  A    between atoms: C_11  and  C_9 
REMARK    5  A    between atoms: C_13  and  C_10 
ROOT
ATOM      1  C   UNL d   1      52.866  31.526  52.876  0.00  0.00     0.279 C 
ATOM      2  O   UNL d   1      52.520  30.953  52.393  0.00  0.00    -0.265 OA
ATOM      3  N   UNL d   1      52.631  32.307  52.817  0.00  0.00    -0.206 NA
ENDROOT
BRANCH   1   4
ATOM      4  C   UNL d   1      53.448  31.304  53.416  0.00  0.00     0.062 C 
BRANCH   4   5
ATOM      5  C   UNL d   1      53.423  30.555  53.776  0.00  0.00     0.005 A 
ATOM      6  C   UNL d   1      53.247  30.510  54.566  0.00  0.00     0.001 A 
ATOM      7  C   UNL d   1      53.220  29.770  54.929  0.00  0.00     0.011 A 
ATOM      8  C   UNL d   1      53.370  29.086  54.500  0.00  0.00     0.058 A 
ATOM      9  C   UNL d   1      53.549  29.135  53.697  0.00  0.00     0.011 A 
ATOM     10 CL   UNL d   1      53.341  28.344  54.875  0.00  0.00    -0.082 Cl
ATOM     11  C   UNL d   1      53.575  29.874  53.335  0.00  0.00     0.001 A 
ENDBRANCH   4   5
ENDBRANCH   1   4
BRANCH   3  12
ATOM     12  C   UNL d   1      52.987  32.887  53.312  0.00  0.00     0.104 C 
BRANCH  12  13
ATOM     13  C   UNL d   1      52.756  33.676  53.238  0.00  0.00     0.040 C 
BRANCH  13  14
ATOM     14  C   UNL d   1      52.958  34.215  53.839  0.00  0.00     0.090 A 
ATOM     15  N   UNL d   1      52.754  35.012  53.761  0.00  0.00    -0.238 NA
ATOM     16  C   UNL d   1      53.020  35.409  54.432  0.00  0.00     0.111 A 
ATOM     17  S   UNL d   1      53.385  34.866  54.921  0.00  0.00    -0.066 SA
ATOM     18  C   UNL d   1      52.938  36.220  54.593  0.00  0.00     0.028 C 
ATOM     19  C   UNL d   1      53.352  34.124  54.565  0.00  0.00     0.056 A 
ENDBRANCH  13  14
ENDBRANCH  12  13
ENDBRANCH   3  12
TORSDOF 5
ENDMDL
MODEL 6
REMARK VINA RESULT:      -6.3      2.005      2.608
REMARK  5 active torsions:
REMARK  status: ('A' for Active; 'I' for Inactive)
REMARK    1  A    between atoms: C_10  and  C_4 
REMARK       I    between atoms: C_6  and  N_8 
REMARK    2  A    between atoms: C_9  and  C_6 
REMARK    3  A    between atoms: N_8  and  C_13 
REMARK    4  A    between atoms: C_11  and  C_9 
REMARK    5  A    between atoms: C_13  and  C_10 
ROOT
ATOM      1  C   UNL d   1      51.520  32.844  53.080  0.00  0.00     0.279 C 
ATOM      2  O   UNL d   1      50.847  32.397  52.909  0.00  0.00    -0.265 OA
ATOM      3  N   UNL d   1      52.184  32.481  53.389  0.00  0.00    -0.206 NA
ENDROOT
BRANCH   1   4
ATOM      4  C   UNL d   1      51.515  33.656  52.937  0.00  0.00     0.062 C 
BRANCH   4   5
ATOM      5  C   UNL d   1      50.825  34.030  52.663  0.00  0.00     0.005 A 
ATOM      6  C   UNL d   1      50.348  34.404  53.200  0.00  0.00     0.001 A 
ATOM      7  C   UNL d   1      49.662  34.777  52.935  0.00  0.00     0.011 A 
ATOM      8  C   UNL d   1      49.462  34.772  52.139  0.00  0.00     0.058 A 
ATOM      9  C   UNL d   1      49.950  34.391  51.595  0.00  0.00     0.011 A 
ATOM     10 CL   UNL d   1      48.768  35.152  51.881  0.00  0.00    -0.082 Cl
ATOM     11  C   UNL d   1      50.635  34.019  51.860  0.00  0.00     0.001 A 
ENDBRANCH   4   5
ENDBRANCH   1   4
BRANCH   3  12
ATOM     12  C   UNL d   1      52.868  32.941  53.561  0.00  0.00     0.104 C 
BRANCH  12  13
ATOM     13  C   UNL d   1      53.563  32.559  53.788  0.00  0.00     0.040 C 
BRANCH  13  14
ATOM     14  C   UNL d   1      54.051  32.914  54.361  0.00  0.00     0.090 A 
ATOM     15  N   UNL d   1      54.732  33.318  54.126  0.00  0.00    -0.238 NA
ATOM     16  C   UNL d   1      55.102  33.608  54.803  0.00  0.00     0.111 A 
ATOM     17  S   UNL d   1      54.656  33.388  55.450  0.00  0.00    -0.066 SA
ATOM     18  C   UNL d   1      55.805  34.049  54.833  0.00  0.00     0.028 C 
ATOM     19  C   UNL d   1      54.003  32.958  55.189  0.00  0.00     0.056 A 
ENDBRANCH  13  14
ENDBRANCH  12  13
ENDBRANCH   3  12
TORSDOF 5
ENDMDL
MODEL 7
REMARK VINA RESULT:      -4.9      9.357     10.735
REMARK  5 active torsions:
REMARK  status: ('A' for Active; 'I' for Inactive)
REMARK    1  A    between atoms: C_10  and  C_4 
REMARK       I    between atoms: C_6  and  N_8 
REMARK    2  A    between atoms: C_9  and  C_6 
REMARK    3  A    between atoms: N_8  and  C_13 
REMARK    4  A    between atoms: C_11  and  C_9 
REMARK    5  A    between atoms: C_13  and  C_10 
ROOT
ATOM      1  C   UNL d   1      45.306  27.445  56.898  0.00  0.00     0.279 C 
ATOM      2  O   UNL d   1      45.798  26.837  56.632  0.00  0.00    -0.265 OA
ATOM      3  N   UNL d   1      45.407  28.206  56.616  0.00  0.00    -0.206 NA
ENDROOT
BRANCH   1   4
ATOM      4  C   UNL d   1      44.714  27.277  57.447  0.00  0.00     0.062 C 
BRANCH   4   5
ATOM      5  C   UNL d   1      44.658  26.521  57.786  0.00  0.00     0.005 A 
ATOM      6  C   UNL d   1      44.892  26.423  58.557  0.00  0.00     0.001 A 
ATOM      7  C   UNL d   1      44.838  25.674  58.899  0.00  0.00     0.011 A 
ATOM      8  C   UNL d   1      44.553  25.035  58.470  0.00  0.00     0.058 A 
ATOM      9  C   UNL d   1      44.317  25.138  57.687  0.00  0.00     0.011 A 
ATOM     10 CL   UNL d   1      44.503  24.284  58.824  0.00  0.00    -0.082 Cl
ATOM     11  C   UNL d   1      44.370  25.886  57.345  0.00  0.00     0.001 A 
ENDBRANCH   4   5
ENDBRANCH   1   4
BRANCH   3  12
ATOM     12  C   UNL d   1      44.903  28.822  56.890  0.00  0.00     0.104 C 
BRANCH  12  13
ATOM     13  C   UNL d   1      44.793  29.491  56.419  0.00  0.00     0.040 C 
BRANCH  13  14
ATOM     14  C   UNL d   1      44.620  30.218  56.785  0.00  0.00     0.090 A 
ATOM     15  N   UNL d   1      44.585  30.907  56.330  0.00  0.00    -0.238 NA
ATOM     16  C   UNL d   1      44.405  31.535  56.834  0.00  0.00     0.111 A 
ATOM     17  S   UNL d   1      44.328  31.239  57.591  0.00  0.00    -0.066 SA
ATOM     18  C   UNL d   1      44.314  32.332  56.619  0.00  0.00     0.028 C 
ATOM     19  C   UNL d   1      44.459  30.426  57.573  0.00  0.00     0.056 A 
ENDBRANCH  13  14
ENDBRANCH  12  13
ENDBRANCH   3  12
TORSDOF 5
ENDMDL
MODEL 8
REMARK VINA RESULT:      -4.7     10.065     10.714
REMARK  5 active torsions:
REMARK  status: ('A' for Active; 'I' for Inactive)
REMARK    1  A    between atoms: C_10  and  C_4 
REMARK       I    between atoms: C_6  and  N_8 
REMARK    2  A    between atoms: C_9  and  C_6 
REMARK    3  A    between atoms: N_8  and  C_13 
REMARK    4  A    between atoms: C_11  and  C_9 
REMARK    5  A    between atoms: C_13  and  C_10 
ROOT
ATOM      1  C   UNL d   1      44.586  30.936  59.531  0.00  0.00     0.279 C 
ATOM      2  O   UNL d   1      44.316  31.603  59.124  0.00  0.00    -0.265 OA
ATOM      3  N   UNL d   1      44.423  30.850  60.328  0.00  0.00    -0.206 NA
ENDROOT
BRANCH   1   4
ATOM      4  C   UNL d   1      45.019  30.363  59.128  0.00  0.00     0.062 C 
BRANCH   4   5
ATOM      5  C   UNL d   1      44.922  30.261  58.309  0.00  0.00     0.005 A 
ATOM      6  C   UNL d   1      44.912  29.508  58.010  0.00  0.00     0.001 A 
ATOM      7  C   UNL d   1      44.816  29.401  57.197  0.00  0.00     0.011 A 
ATOM      8  C   UNL d   1      44.732  30.046  56.696  0.00  0.00     0.058 A 
ATOM      9  C   UNL d   1      44.743  30.810  57.003  0.00  0.00     0.011 A 
ATOM     10 CL   UNL d   1      44.636  29.927  55.878  0.00  0.00    -0.082 Cl
ATOM     11  C   UNL d   1      44.839  30.917  57.814  0.00  0.00     0.001 A 
ENDBRANCH   4   5
ENDBRANCH   1   4
BRANCH   3  12
ATOM     12  C   UNL d   1      44.701  30.170  60.738  0.00  0.00     0.104 C 
BRANCH  12  13
ATOM     13  C   UNL d   1      44.704  30.171  61.563  0.00  0.00     0.040 C 
BRANCH  13  14
ATOM     14  C   UNL d   1      44.648  29.447  61.969  0.00  0.00     0.090 A 
ATOM     15  N   UNL d   1      44.671  29.437  62.795  0.00  0.00    -0.238 NA
ATOM     16  C   UNL d   1      44.605  28.652  63.041  0.00  0.00     0.111 A 
ATOM     17  S   UNL d   1      44.542  28.182  62.377  0.00  0.00    -0.066 SA
ATOM     18  C   UNL d   1      44.602  28.378  63.825  0.00  0.00     0.028 C 
ATOM     19  C   UNL d   1      44.567  28.662  61.708  0.00  0.00     0.056 A 
ENDBRANCH  13  14
ENDBRANCH  12  13
ENDBRANCH   3  12
TORSDOF 5
ENDMDL
MODEL 9
REMARK VINA RESULT:      -4.5      9.944     11.001
REMARK  5 active torsions:
REMARK  status: ('A' for Active; 'I' for Inactive)
REMARK    1  A    between atoms: C_10  and  C_4 
REMARK       I    between atoms: C_6  and  N_8 
REMARK    2  A    between atoms: C_9  and  C_6 
REMARK    3  A    between atoms: N_8  and  C_13 
REMARK    4  A    between atoms: C_11  and  C_9 
REMARK    5  A    between atoms: C_13  and  C_10 
ROOT
ATOM      1  C   UNL d   1      45.471  27.273  57.284  0.00  0.00     0.279 C 
ATOM      2  O   UNL d   1      46.086  26.972  56.822  0.00  0.00    -0.265 OA
ATOM      3  N   UNL d   1      45.600  27.925  57.760  0.00  0.00    -0.206 NA
ENDROOT
BRANCH   1   4
ATOM      4  C   UNL d   1      44.731  26.911  57.260  0.00  0.00     0.062 C 
BRANCH   4   5
ATOM      5  C   UNL d   1      44.626  26.196  56.850  0.00  0.00     0.005 A 
ATOM      6  C   UNL d   1      44.585  25.507  57.275  0.00  0.00     0.001 A 
ATOM      7  C   UNL d   1      44.481  24.794  56.873  0.00  0.00     0.011 A 
ATOM      8  C   UNL d   1      44.419  24.778  56.055  0.00  0.00     0.058 A 
ATOM      9  C   UNL d   1      44.460  25.481  55.625  0.00  0.00     0.011 A 
ATOM     10 CL   UNL d   1      44.314  24.054  55.659  0.00  0.00    -0.082 Cl
ATOM     11  C   UNL d   1      44.564  26.192  56.027  0.00  0.00     0.001 A 
ENDBRANCH   4   5
ENDBRANCH   1   4
BRANCH   3  12
ATOM     12  C   UNL d   1      44.970  28.228  58.229  0.00  0.00     0.104 C 
BRANCH  12  13
ATOM     13  C   UNL d   1      44.985  29.020  58.460  0.00  0.00     0.040 C 
BRANCH  13  14
ATOM     14  C   UNL d   1      44.736  29.223  59.228  0.00  0.00     0.090 A 
ATOM     15  N   UNL d   1      44.698  30.017  59.450  0.00  0.00    -0.238 NA
ATOM     16  C   UNL d   1      44.437  30.050  60.232  0.00  0.00     0.111 A 
ATOM     17  S   UNL d   1      44.314  29.286  60.491  0.00  0.00    -0.066 SA
ATOM     18  C   UNL d   1      44.316  30.735  60.685  0.00  0.00     0.028 C 
ATOM     19  C   UNL d   1      44.496  28.765  59.878  0.00  0.00     0.056 A 
ENDBRANCH  13  14
ENDBRANCH  12  13
ENDBRANCH   3  12
TORSDOF 5
ENDMDL
