MODEL 1
REMARK VINA RESULT:      55.5      0.000      0.000
REMARK  3 active torsions:
REMARK  status: ('A' for Active; 'I' for Inactive)
REMARK    1  A    between atoms: N_9  and  C_4 
REMARK       I    between atoms: C_7  and  N_10 
REMARK    2  A    between atoms: C_8  and  C_7 
REMARK    3  A    between atoms: N_10  and  N_9 
ROOT
ATOM      1  C   UNL d   1     -54.834-102.035 -38.650  0.00  0.00     0.297 C 
ATOM      2  N   UNL d   1     -54.720-101.764 -39.419  0.00  0.00    -0.104 NA
ATOM      3  O   UNL d   1     -54.947-102.840 -38.508  0.00  0.00    -0.264 OA
ENDROOT
BRANCH   1   4
ATOM      4  C   UNL d   1     -54.834-101.502 -38.023  0.00  0.00     0.059 A 
ATOM      5  C   UNL d   1     -54.944-101.786 -37.251  0.00  0.00     0.005 A 
ATOM      6  C   UNL d   1     -54.942-101.240 -36.627  0.00  0.00     0.000 A 
ATOM      7  C   UNL d   1     -55.049-102.579 -37.111  0.00  0.00     0.000 A 
ATOM      8  C   UNL d   1     -55.050-101.513 -35.862  0.00  0.00     0.000 A 
ATOM      9  C   UNL d   1     -54.835-100.435 -36.769  0.00  0.00     0.000 A 
ATOM     10  C   UNL d   1     -55.156-102.305 -35.716  0.00  0.00     0.000 A 
ATOM     11  C   UNL d   1     -55.156-102.848 -36.346  0.00  0.00     0.000 A 
ATOM     12  C   UNL d   1     -54.727-100.162 -37.538  0.00  0.00     0.000 A 
ATOM     13  C   UNL d   1     -54.726-100.697 -38.170  0.00  0.00     0.005 A 
ENDBRANCH   1   4
BRANCH   2  14
ATOM     14  N   UNL d   1     -54.719-102.297 -40.046  0.00  0.00    -0.127 NA
BRANCH  14  15
ATOM     15  C   UNL d   1     -54.824-102.027 -40.820  0.00  0.00     0.178 A 
ATOM     16  N   UNL d   1     -54.822-101.221 -40.982  0.00  0.00    -0.240 N 
ATOM     17  C   UNL d   1     -54.926-100.955 -41.747  0.00  0.00     0.343 A 
ATOM     18  C   UNL d   1     -54.714-100.680 -40.368  0.00  0.00     0.105 C 
ATOM     19  N   UNL d   1     -55.034-101.496 -42.361  0.00  0.00    -0.224 N 
ATOM     20  O   UNL d   1     -54.924-100.144 -41.908  0.00  0.00    -0.245 OA
ATOM     21  C   UNL d   1     -55.039-102.308 -42.215  0.00  0.00     0.271 A 
ATOM     22  C   UNL d   1     -55.140-101.226 -43.135  0.00  0.00     0.107 C 
ATOM     23  C   UNL d   1     -54.932-102.568 -41.433  0.00  0.00     0.101 A 
ATOM     24  O   UNL d   1     -55.146-102.844 -42.822  0.00  0.00    -0.266 OA
ENDBRANCH  14  15
ENDBRANCH   2  14
TORSDOF 3
ENDMDL
