MODEL 1
REMARK VINA RESULT:      -2.8      0.000      0.000
REMARK  3 active torsions:
REMARK  status: ('A' for Active; 'I' for Inactive)
REMARK    1  A    between atoms: S_7  and  C_1 
REMARK    2  A    between atoms: C_16  and  N_2 
REMARK    3  A    between atoms: C_4  and  S_7 
ROOT
ATOM      1  S   UNL d   1      31.297  16.893 -24.150  0.00  0.00    -0.028 SA
ENDROOT
BRANCH   1   2
ATOM      2  C   UNL d   1      30.581  16.504 -23.866  0.00  0.00     0.117 A 
ATOM      3  C   UNL d   1      29.849  16.805 -24.079  0.00  0.00     0.048 A 
ATOM      4  C   UNL d   1      29.157  16.430 -23.804  0.00  0.00     0.114 A 
ATOM      5  C   UNL d   1      29.607  17.445 -24.539  0.00  0.00     0.010 A 
ATOM      6  S   UNL d   1      28.519  16.855 -24.108  0.00  0.00    -0.068 SA
ATOM      7  N   UNL d   1      29.221  15.767 -23.327  0.00  0.00    -0.217 NA
ATOM      8  C   UNL d   1      28.826  17.487 -24.565  0.00  0.00     0.031 A 
ATOM      9  C   UNL d   1      28.368  18.077 -24.989  0.00  0.00     0.007 C 
ATOM     10  C   UNL d   1      29.964  15.453 -23.104  0.00  0.00     0.200 A 
ATOM     11  N   UNL d   1      30.656  15.828 -23.378  0.00  0.00    -0.217 NA
ATOM     12  C   UNL d   1      30.120  18.000 -24.942  0.00  0.00     0.001 C 
ENDBRANCH   1   2
BRANCH   1  13
ATOM     13  C   UNL d   1      31.942  16.418 -24.394  0.00  0.00     0.220 A 
ATOM     14  N   UNL d   1      32.758  16.656 -24.306  0.00  0.00    -0.186 N 
ATOM     15  N   UNL d   1      33.241  16.057 -24.605  0.00  0.00    -0.038 NA
ATOM     16  N   UNL d   1      32.745  15.453 -24.875  0.00  0.00    -0.022 NA
ATOM     17  N   UNL d   1      31.950  15.672 -24.747  0.00  0.00    -0.101 NA
BRANCH  14  18
ATOM     18  C   UNL d   1      32.915  17.399 -23.960  0.00  0.00     0.087 A 
ATOM     19  C   UNL d   1      32.936  17.955 -24.350  0.00  0.00     0.019 A 
ATOM     20  C   UNL d   1      33.089  18.677 -24.019  0.00  0.00     0.002 A 
ATOM     21  C   UNL d   1      33.226  18.773 -23.188  0.00  0.00     0.000 A 
ATOM     22  C   UNL d   1      33.202  18.232 -22.829  0.00  0.00     0.002 A 
ATOM     23  C   UNL d   1      33.052  17.494 -23.129  0.00  0.00     0.019 A 
ENDBRANCH  14  18
ENDBRANCH   1  13
TORSDOF 3
ENDMDL
MODEL 2
REMARK VINA RESULT:      -1.6      1.425      3.743
REMARK  3 active torsions:
REMARK  status: ('A' for Active; 'I' for Inactive)
REMARK    1  A    between atoms: S_7  and  C_1 
REMARK    2  A    between atoms: C_16  and  N_2 
REMARK    3  A    between atoms: C_4  and  S_7 
ROOT
ATOM      1  S   UNL d   1      32.220  17.675 -23.942  0.00  0.00    -0.028 SA
ENDROOT
BRANCH   1   2
ATOM      2  C   UNL d   1      32.541  18.456 -24.122  0.00  0.00     0.117 A 
ATOM      3  C   UNL d   1      32.762  18.951 -23.507  0.00  0.00     0.048 A 
ATOM      4  C   UNL d   1      33.073  19.705 -23.681  0.00  0.00     0.114 A 
ATOM      5  C   UNL d   1      32.753  18.880 -22.686  0.00  0.00     0.010 A 
ATOM      6  S   UNL d   1      33.241  20.065 -22.959  0.00  0.00    -0.068 SA
ATOM      7  N   UNL d   1      33.150  19.937 -24.463  0.00  0.00    -0.217 NA
ATOM      8  C   UNL d   1      33.032  19.529 -22.349  0.00  0.00     0.031 A 
ATOM      9  C   UNL d   1      33.110  19.664 -21.505  0.00  0.00     0.007 C 
ATOM     10  C   UNL d   1      32.926  19.439 -25.097  0.00  0.00     0.200 A 
ATOM     11  N   UNL d   1      32.616  18.684 -24.923  0.00  0.00    -0.217 NA
ATOM     12  C   UNL d   1      32.481  18.201 -22.241  0.00  0.00     0.001 C 
ENDBRANCH   1   2
BRANCH   1  13
ATOM     13  C   UNL d   1      32.494  17.017 -24.380  0.00  0.00     0.220 A 
ATOM     14  N   UNL d   1      32.007  16.337 -24.557  0.00  0.00    -0.186 N 
ATOM     15  N   UNL d   1      32.455  15.799 -24.995  0.00  0.00    -0.038 NA
ATOM     16  N   UNL d   1      33.207  16.128 -25.095  0.00  0.00    -0.022 NA
ATOM     17  N   UNL d   1      33.232  16.873 -24.719  0.00  0.00    -0.101 NA
BRANCH  14  18
ATOM     18  C   UNL d   1      31.221  16.333 -24.278  0.00  0.00     0.087 A 
ATOM     19  C   UNL d   1      30.732  16.628 -24.645  0.00  0.00     0.019 A 
ATOM     20  C   UNL d   1      29.968  16.627 -24.379  0.00  0.00     0.002 A 
ATOM     21  C   UNL d   1      29.747  16.266 -23.644  0.00  0.00     0.000 A 
ATOM     22  C   UNL d   1      30.226  15.989 -23.304  0.00  0.00     0.002 A 
ATOM     23  C   UNL d   1      31.000  15.973 -23.543  0.00  0.00     0.019 A 
ENDBRANCH  14  18
ENDBRANCH   1  13
TORSDOF 3
ENDMDL
MODEL 3
REMARK VINA RESULT:      -1.4      1.239      3.480
REMARK  3 active torsions:
REMARK  status: ('A' for Active; 'I' for Inactive)
REMARK    1  A    between atoms: S_7  and  C_1 
REMARK    2  A    between atoms: C_16  and  N_2 
REMARK    3  A    between atoms: C_4  and  S_7 
ROOT
ATOM      1  S   UNL d   1      31.244  17.517 -24.390  0.00  0.00    -0.028 SA
ENDROOT
BRANCH   1   2
ATOM      2  C   UNL d   1      31.859  17.684 -23.809  0.00  0.00     0.117 A 
ATOM      3  C   UNL d   1      32.303  18.369 -23.878  0.00  0.00     0.048 A 
ATOM      4  C   UNL d   1      32.897  18.530 -23.316  0.00  0.00     0.114 A 
ATOM      5  C   UNL d   1      32.307  18.994 -24.415  0.00  0.00     0.010 A 
ATOM      6  S   UNL d   1      33.241  19.247 -23.532  0.00  0.00    -0.068 SA
ATOM      7  N   UNL d   1      33.026  18.001 -22.704  0.00  0.00    -0.217 NA
ATOM      8  C   UNL d   1      32.854  19.520 -24.225  0.00  0.00     0.031 A 
ATOM      9  C   UNL d   1      33.026  20.245 -24.651  0.00  0.00     0.007 C 
ATOM     10  C   UNL d   1      32.578  17.298 -22.625  0.00  0.00     0.200 A 
ATOM     11  N   UNL d   1      31.983  17.137 -23.187  0.00  0.00    -0.217 NA
ATOM     12  C   UNL d   1      31.793  19.078 -25.096  0.00  0.00     0.001 C 
ENDBRANCH   1   2
BRANCH   1  13
ATOM     13  C   UNL d   1      31.134  16.727 -24.644  0.00  0.00     0.220 A 
ATOM     14  N   UNL d   1      30.364  16.372 -24.753  0.00  0.00    -0.186 N 
ATOM     15  N   UNL d   1      30.465  15.593 -25.005  0.00  0.00    -0.038 NA
ATOM     16  N   UNL d   1      31.280  15.454 -25.056  0.00  0.00    -0.022 NA
ATOM     17  N   UNL d   1      31.690  16.147 -24.835  0.00  0.00    -0.101 NA
BRANCH  14  18
ATOM     18  C   UNL d   1      29.691  16.840 -24.597  0.00  0.00     0.087 A 
ATOM     19  C   UNL d   1      29.439  17.241 -25.084  0.00  0.00     0.019 A 
ATOM     20  C   UNL d   1      28.787  17.696 -24.938  0.00  0.00     0.002 A 
ATOM     21  C   UNL d   1      28.395  17.696 -24.186  0.00  0.00     0.000 A 
ATOM     22  C   UNL d   1      28.648  17.307 -23.731  0.00  0.00     0.002 A 
ATOM     23  C   UNL d   1      29.300  16.839 -23.845  0.00  0.00     0.019 A 
ENDBRANCH  14  18
ENDBRANCH   1  13
TORSDOF 3
ENDMDL
MODEL 4
REMARK VINA RESULT:      -1.2      1.171      3.698
REMARK  3 active torsions:
REMARK  status: ('A' for Active; 'I' for Inactive)
REMARK    1  A    between atoms: S_7  and  C_1 
REMARK    2  A    between atoms: C_16  and  N_2 
REMARK    3  A    between atoms: C_4  and  S_7 
ROOT
ATOM      1  S   UNL d   1      30.933  16.546 -24.166  0.00  0.00    -0.028 SA
ENDROOT
BRANCH   1   2
ATOM      2  C   UNL d   1      31.729  16.451 -24.486  0.00  0.00     0.117 A 
ATOM      3  C   UNL d   1      32.172  17.116 -24.666  0.00  0.00     0.048 A 
ATOM      4  C   UNL d   1      32.941  17.024 -24.975  0.00  0.00     0.114 A 
ATOM      5  C   UNL d   1      32.033  17.927 -24.611  0.00  0.00     0.010 A 
ATOM      6  S   UNL d   1      33.241  17.782 -25.097  0.00  0.00    -0.068 SA
ATOM      7  N   UNL d   1      33.239  16.270 -25.093  0.00  0.00    -0.217 NA
ATOM      8  C   UNL d   1      32.653  18.332 -24.861  0.00  0.00     0.031 A 
ATOM      9  C   UNL d   1      32.717  19.188 -24.889  0.00  0.00     0.007 C 
ATOM     10  C   UNL d   1      32.794  15.585 -24.913  0.00  0.00     0.200 A 
ATOM     11  N   UNL d   1      32.025  15.677 -24.604  0.00  0.00    -0.217 NA
ATOM     12  C   UNL d   1      31.316  18.297 -24.323  0.00  0.00     0.001 C 
ENDBRANCH   1   2
BRANCH   1  13
ATOM     13  C   UNL d   1      30.722  16.116 -23.480  0.00  0.00     0.220 A 
ATOM     14  N   UNL d   1      29.924  15.858 -23.317  0.00  0.00    -0.186 N 
ATOM     15  N   UNL d   1      29.919  15.453 -22.597  0.00  0.00    -0.038 NA
ATOM     16  N   UNL d   1      30.695  15.453 -22.309  0.00  0.00    -0.022 NA
ATOM     17  N   UNL d   1      31.187  15.859 -22.848  0.00  0.00    -0.101 NA
BRANCH  14  18
ATOM     18  C   UNL d   1      29.329  16.045 -23.871  0.00  0.00     0.087 A 
ATOM     19  C   UNL d   1      28.976  16.622 -23.805  0.00  0.00     0.019 A 
ATOM     20  C   UNL d   1      28.399  16.808 -24.340  0.00  0.00     0.002 A 
ATOM     21  C   UNL d   1      28.211  16.303 -24.995  0.00  0.00     0.000 A 
ATOM     22  C   UNL d   1      28.557  15.756 -25.044  0.00  0.00     0.002 A 
ATOM     23  C   UNL d   1      29.142  15.540 -24.526  0.00  0.00     0.019 A 
ENDBRANCH  14  18
ENDBRANCH   1  13
TORSDOF 3
ENDMDL
