MODEL 1
REMARK VINA RESULT:      45.1      0.000      0.000
REMARK  6 active torsions:
REMARK  status: ('A' for Active; 'I' for Inactive)
REMARK    1  A    between atoms: C_12  and  C_4 
REMARK    2  A    between atoms: N_16  and  C_5 
REMARK    3  A    between atoms: N_11  and  C_24 
REMARK    4  A    between atoms: C_27  and  N_16 
REMARK    5  A    between atoms: C_24  and  C_25 
REMARK    6  A    between atoms: C_25  and  C_27 
ROOT
ATOM      1  N   UNL d   1      13.213  13.128  -3.767  0.00  0.00    -0.195 N 
ATOM      2  C   UNL d   1      13.327  13.510  -4.493  0.00  0.00     0.167 A 
ATOM      3  N   UNL d   1      13.166  13.704  -3.190  0.00  0.00    -0.163 NA
ATOM      4  C   UNL d   1      13.349  14.313  -4.347  0.00  0.00     0.055 A 
ATOM      5  C   UNL d   1      13.168  12.310  -3.740  0.00  0.00     0.167 A 
ATOM      6  C   UNL d   1      13.252  14.434  -3.558  0.00  0.00     0.104 A 
ATOM      7  N   UNL d   1      13.395  13.068  -5.179  0.00  0.00    -0.227 NA
ATOM      8  C   UNL d   1      13.237  11.864  -4.439  0.00  0.00     0.058 A 
ATOM      9  C   UNL d   1      13.349  12.238  -5.149  0.00  0.00     0.086 A 
ATOM     10  C   UNL d   1      13.240  15.173  -3.185  0.00  0.00     0.023 C 
ATOM     11  C   UNL d   1      13.418  11.784  -5.852  0.00  0.00     0.021 C 
ENDROOT
BRANCH   5  12
ATOM     12  N   UNL d   1      13.053  11.928  -3.015  0.00  0.00    -0.225 NA
BRANCH  12  13
ATOM     13  C   UNL d   1      13.688  11.823  -2.505  0.00  0.00     0.102 C 
BRANCH  13  14
ATOM     14  C   UNL d   1      13.584  11.936  -1.692  0.00  0.00     0.040 C 
BRANCH  14  15
ATOM     15  C   UNL d   1      14.204  11.790  -1.169  0.00  0.00     0.083 C 
BRANCH  15  16
ATOM     16  N   UNL d   1      14.615  12.415  -0.826  0.00  0.00    -0.285 N 
ATOM     17  C   UNL d   1      15.382  12.705  -0.933  0.00  0.00     0.183 A 
ATOM     18  N   UNL d   1      15.484  13.344  -0.436  0.00  0.00    -0.222 NA
ATOM     19  C   UNL d   1      14.795  13.460  -0.018  0.00  0.00     0.120 A 
ATOM     20  C   UNL d   1      14.252  12.884  -0.258  0.00  0.00     0.102 A 
ENDBRANCH  15  16
ENDBRANCH  14  15
ENDBRANCH  13  14
ENDBRANCH  12  13
ENDBRANCH   5  12
BRANCH   4  21
ATOM     21  C   UNL d   1      13.449  14.961  -4.857  0.00  0.00     0.004 A 
ATOM     22  C   UNL d   1      12.833  15.202  -5.349  0.00  0.00     0.001 A 
ATOM     23  C   UNL d   1      12.928  15.844  -5.856  0.00  0.00     0.011 A 
ATOM     24  C   UNL d   1      13.649  16.245  -5.869  0.00  0.00     0.058 A 
ATOM     25  C   UNL d   1      14.268  16.003  -5.375  0.00  0.00     0.011 A 
ATOM     26 CL   UNL d   1      13.743  16.898  -6.387  0.00  0.00    -0.082 Cl
ATOM     27  C   UNL d   1      14.169  15.362  -4.870  0.00  0.00     0.001 A 
ENDBRANCH   4  21
TORSDOF 6
ENDMDL
