MODEL 1
REMARK VINA RESULT:     -12.2      0.000      0.000
REMARK  2 active torsions:
REMARK  status: ('A' for Active; 'I' for Inactive)
REMARK    1  A    between atoms: C_5  and  C_1 
REMARK    2  A    between atoms: N_2  and  C_6 
ROOT
ATOM      1  C   UNL d   1      53.644  31.374  53.812  0.00  0.00     0.077 A 
ATOM      2  C   UNL d   1      52.665  31.452  52.854  0.00  0.00     0.160 A 
ATOM      3  C   UNL d   1      53.212  31.895  53.388  0.00  0.00     0.024 A 
ATOM      4  C   UNL d   1      53.479  30.656  53.653  0.00  0.00    -0.014 A 
ATOM      5  C   UNL d   1      53.752  30.503  53.920  0.00  0.00    -0.014 A 
ATOM      6  C   UNL d   1      53.307  30.123  53.486  0.00  0.00    -0.000 A 
ATOM      7  C   UNL d   1      52.918  30.196  53.104  0.00  0.00    -0.000 A 
ATOM      8  C   UNL d   1      52.741  30.766  52.930  0.00  0.00     0.038 A 
ATOM      9  C   UNL d   1      52.497  30.703  52.691  0.00  0.00     0.038 A 
ATOM     10  C   UNL d   1      53.014  29.305  53.201  0.00  0.00    -0.000 A 
ATOM     11  O   UNL d   1      52.282  31.948  52.478  0.00  0.00    -0.290 OA
ENDROOT
BRANCH   1  12
ATOM     12  C   UNL d   1      53.961  32.061  54.120  0.00  0.00    -0.011 A 
ATOM     13  C   UNL d   1      54.494  32.513  53.689  0.00  0.00    -0.002 A 
ATOM     14  C   UNL d   1      54.813  33.214  54.010  0.00  0.00     0.023 A 
ATOM     15  C   UNL d   1      54.585  33.449  54.768  0.00  0.00     0.127 A 
ATOM     16  C   UNL d   1      54.049  32.992  55.198  0.00  0.00     0.023 A 
ATOM     17  C   UNL d   1      53.738  32.292  54.863  0.00  0.00    -0.002 A 
BRANCH  15  18
ATOM     18  N   UNL d   1      54.892  34.140  55.100  0.00  0.00    -0.114 N 
ATOM     19  O   UNL d   1      54.408  34.803  55.104  0.00  0.00    -0.532 OA
ATOM     20  O   UNL d   1      55.683  34.161  55.426  0.00  0.00    -0.532 OA
ENDBRANCH  15  18
ENDBRANCH   1  12
TORSDOF 2
ENDMDL
MODEL 2
REMARK VINA RESULT:     -11.9      2.395      3.750
REMARK  2 active torsions:
REMARK  status: ('A' for Active; 'I' for Inactive)
REMARK    1  A    between atoms: C_5  and  C_1 
REMARK    2  A    between atoms: N_2  and  C_6 
ROOT
ATOM      1  C   UNL d   1      53.256  33.714  54.074  0.00  0.00     0.077 A 
ATOM      2  C   UNL d   1      54.102  32.707  53.682  0.00  0.00     0.160 A 
ATOM      3  C   UNL d   1      53.347  33.138  53.527  0.00  0.00     0.024 A 
ATOM      4  C   UNL d   1      53.824  33.742  54.569  0.00  0.00    -0.014 A 
ATOM      5  C   UNL d   1      53.664  34.058  54.779  0.00  0.00    -0.014 A 
ATOM      6  C   UNL d   1      54.290  33.713  54.920  0.00  0.00    -0.000 A 
ATOM      7  C   UNL d   1      54.603  33.301  54.732  0.00  0.00    -0.000 A 
ATOM      8  C   UNL d   1      54.433  32.969  54.235  0.00  0.00     0.038 A 
ATOM      9  C   UNL d   1      54.691  32.740  54.200  0.00  0.00     0.038 A 
ATOM     10  C   UNL d   1      55.033  33.639  55.448  0.00  0.00    -0.000 A 
ATOM     11  O   UNL d   1      54.163  32.187  53.172  0.00  0.00    -0.290 OA
ENDROOT
BRANCH   1  12
ATOM     12  C   UNL d   1      52.568  33.847  53.653  0.00  0.00    -0.011 A 
ATOM     13  C   UNL d   1      51.904  33.377  53.767  0.00  0.00    -0.002 A 
ATOM     14  C   UNL d   1      51.205  33.519  53.335  0.00  0.00     0.023 A 
ATOM     15  C   UNL d   1      51.189  34.138  52.789  0.00  0.00     0.127 A 
ATOM     16  C   UNL d   1      51.859  34.607  52.677  0.00  0.00     0.023 A 
ATOM     17  C   UNL d   1      52.552  34.453  53.118  0.00  0.00    -0.002 A 
BRANCH  15  18
ATOM     18  N   UNL d   1      50.505  34.291  52.352  0.00  0.00    -0.114 N 
ATOM     19  O   UNL d   1      50.557  34.229  51.536  0.00  0.00    -0.532 OA
ATOM     20  O   UNL d   1      49.772  34.506  52.739  0.00  0.00    -0.532 OA
ENDBRANCH  15  18
ENDBRANCH   1  12
TORSDOF 2
ENDMDL
MODEL 3
REMARK VINA RESULT:     -11.2      1.631      3.697
REMARK  2 active torsions:
REMARK  status: ('A' for Active; 'I' for Inactive)
REMARK    1  A    between atoms: C_5  and  C_1 
REMARK    2  A    between atoms: N_2  and  C_6 
ROOT
ATOM      1  C   UNL d   1      54.044  32.638  54.266  0.00  0.00     0.077 A 
ATOM      2  C   UNL d   1      53.260  33.709  54.612  0.00  0.00     0.160 A 
ATOM      3  C   UNL d   1      53.291  32.905  54.248  0.00  0.00     0.024 A 
ATOM      4  C   UNL d   1      54.523  33.127  54.581  0.00  0.00    -0.014 A 
ATOM      5  C   UNL d   1      54.851  32.883  54.530  0.00  0.00    -0.014 A 
ATOM      6  C   UNL d   1      54.842  33.546  54.834  0.00  0.00    -0.000 A 
ATOM      7  C   UNL d   1      54.495  33.955  54.958  0.00  0.00    -0.000 A 
ATOM      8  C   UNL d   1      53.889  33.914  54.825  0.00  0.00     0.038 A 
ATOM      9  C   UNL d   1      53.762  34.216  54.940  0.00  0.00     0.038 A 
ATOM     10  C   UNL d   1      55.310  34.223  55.234  0.00  0.00    -0.000 A 
ATOM     11  O   UNL d   1      52.564  33.932  54.585  0.00  0.00    -0.290 OA
ENDROOT
BRANCH   1  12
ATOM     12  C   UNL d   1      53.701  31.991  53.903  0.00  0.00    -0.011 A 
ATOM     13  C   UNL d   1      53.357  32.053  53.160  0.00  0.00    -0.002 A 
ATOM     14  C   UNL d   1      53.009  31.388  52.796  0.00  0.00     0.023 A 
ATOM     15  C   UNL d   1      53.015  30.664  53.193  0.00  0.00     0.127 A 
ATOM     16  C   UNL d   1      53.362  30.606  53.939  0.00  0.00     0.023 A 
ATOM     17  C   UNL d   1      53.706  31.281  54.291  0.00  0.00    -0.002 A 
BRANCH  15  18
ATOM     18  N   UNL d   1      52.675  29.996  52.846  0.00  0.00    -0.114 N 
ATOM     19  O   UNL d   1      52.836  29.860  52.054  0.00  0.00    -0.532 OA
ATOM     20  O   UNL d   1      52.175  29.469  53.300  0.00  0.00    -0.532 OA
ENDBRANCH  15  18
ENDBRANCH   1  12
TORSDOF 2
ENDMDL
MODEL 4
REMARK VINA RESULT:     -10.6      1.370      1.658
REMARK  2 active torsions:
REMARK  status: ('A' for Active; 'I' for Inactive)
REMARK    1  A    between atoms: C_5  and  C_1 
REMARK    2  A    between atoms: N_2  and  C_6 
ROOT
ATOM      1  C   UNL d   1      53.371  32.461  53.699  0.00  0.00     0.077 A 
ATOM      2  C   UNL d   1      52.415  31.804  52.967  0.00  0.00     0.160 A 
ATOM      3  C   UNL d   1      52.673  32.569  53.324  0.00  0.00     0.024 A 
ATOM      4  C   UNL d   1      53.624  31.752  53.654  0.00  0.00    -0.014 A 
ATOM      5  C   UNL d   1      53.964  31.829  53.872  0.00  0.00    -0.014 A 
ATOM      6  C   UNL d   1      53.765  31.190  53.584  0.00  0.00    -0.000 A 
ATOM      7  C   UNL d   1      53.360  30.961  53.288  0.00  0.00    -0.000 A 
ATOM      8  C   UNL d   1      52.873  31.297  53.096  0.00  0.00     0.038 A 
ATOM      9  C   UNL d   1      52.681  31.066  52.923  0.00  0.00     0.038 A 
ATOM     10  C   UNL d   1      53.953  30.304  53.454  0.00  0.00    -0.000 A 
ATOM     11  O   UNL d   1      51.777  31.926  52.631  0.00  0.00    -0.290 OA
ENDROOT
BRANCH   1  12
ATOM     12  C   UNL d   1      53.277  33.257  53.859  0.00  0.00    -0.011 A 
ATOM     13  C   UNL d   1      53.202  33.805  53.253  0.00  0.00    -0.002 A 
ATOM     14  C   UNL d   1      53.106  34.616  53.425  0.00  0.00     0.023 A 
ATOM     15  C   UNL d   1      53.088  34.861  54.213  0.00  0.00     0.127 A 
ATOM     16  C   UNL d   1      53.163  34.306  54.819  0.00  0.00     0.023 A 
ATOM     17  C   UNL d   1      53.258  33.497  54.631  0.00  0.00    -0.002 A 
BRANCH  15  18
ATOM     18  N   UNL d   1      52.994  35.660  54.400  0.00  0.00    -0.114 N 
ATOM     19  O   UNL d   1      53.663  36.134  54.374  0.00  0.00    -0.532 OA
ATOM     20  O   UNL d   1      52.227  35.977  54.611  0.00  0.00    -0.532 OA
ENDBRANCH  15  18
ENDBRANCH   1  12
TORSDOF 2
ENDMDL
MODEL 5
REMARK VINA RESULT:     -10.4      2.284      3.015
REMARK  2 active torsions:
REMARK  status: ('A' for Active; 'I' for Inactive)
REMARK    1  A    between atoms: C_5  and  C_1 
REMARK    2  A    between atoms: N_2  and  C_6 
ROOT
ATOM      1  C   UNL d   1      52.290  33.971  53.115  0.00  0.00     0.077 A 
ATOM      2  C   UNL d   1      51.070  33.403  53.377  0.00  0.00     0.160 A 
ATOM      3  C   UNL d   1      51.903  33.517  53.646  0.00  0.00     0.024 A 
ATOM      4  C   UNL d   1      51.857  34.181  52.534  0.00  0.00    -0.014 A 
ATOM      5  C   UNL d   1      52.157  34.394  52.350  0.00  0.00    -0.014 A 
ATOM      6  C   UNL d   1      51.473  34.310  52.114  0.00  0.00    -0.000 A 
ATOM      7  C   UNL d   1      50.999  34.066  52.253  0.00  0.00    -0.000 A 
ATOM      8  C   UNL d   1      50.952  33.731  52.775  0.00  0.00     0.038 A 
ATOM      9  C   UNL d   1      50.622  33.624  52.770  0.00  0.00     0.038 A 
ATOM     10  C   UNL d   1      50.845  34.490  51.474  0.00  0.00    -0.000 A 
ATOM     11  O   UNL d   1      50.736  32.986  53.876  0.00  0.00    -0.290 OA
ENDROOT
BRANCH   1  12
ATOM     12  C   UNL d   1      52.907  33.857  53.639  0.00  0.00    -0.011 A 
ATOM     13  C   UNL d   1      53.408  33.211  53.570  0.00  0.00    -0.002 A 
ATOM     14  C   UNL d   1      54.036  33.101  54.108  0.00  0.00     0.023 A 
ATOM     15  C   UNL d   1      54.146  33.652  54.714  0.00  0.00     0.127 A 
ATOM     16  C   UNL d   1      53.640  34.299  54.780  0.00  0.00     0.023 A 
ATOM     17  C   UNL d   1      53.016  34.396  54.232  0.00  0.00    -0.002 A 
BRANCH  15  18
ATOM     18  N   UNL d   1      54.763  33.557  55.256  0.00  0.00    -0.114 N 
ATOM     19  O   UNL d   1      54.689  32.957  55.810  0.00  0.00    -0.532 OA
ATOM     20  O   UNL d   1      55.450  34.068  55.236  0.00  0.00    -0.532 OA
ENDBRANCH  15  18
ENDBRANCH   1  12
TORSDOF 2
ENDMDL
