MODEL 1
REMARK VINA RESULT:      35.0      0.000      0.000
REMARK  4 active torsions:
REMARK  status: ('A' for Active; 'I' for Inactive)
REMARK    1  A    between atoms: C_11  and  C_3 
REMARK    2  A    between atoms: C_10  and  N_5 
REMARK    3  A    between atoms: O_17  and  C_11 
REMARK    4  A    between atoms: C_22  and  O_17 
ROOT
ATOM      1  C   UNL d   1     -58.584 -98.798 -43.430  0.00  0.00     0.086 A 
ATOM      2  C   UNL d   1     -59.029 -98.813 -44.125  0.00  0.00     0.038 A 
ATOM      3  C   UNL d   1     -58.664 -98.837 -44.867  0.00  0.00     0.165 A 
ATOM      4  C   UNL d   1     -57.760 -98.807 -43.486  0.00  0.00     0.282 A 
ATOM      5  N   UNL d   1     -57.393 -98.831 -44.210  0.00  0.00    -0.194 N 
ATOM      6  N   UNL d   1     -57.844 -98.846 -44.900  0.00  0.00    -0.157 NA
ATOM      7  C   UNL d   1     -59.106 -98.775 -42.790  0.00  0.00     0.137 A 
ATOM      8  C   UNL d   1     -59.832 -98.799 -43.913  0.00  0.00     0.039 A 
ATOM      9  S   UNL d   1     -59.874 -98.776 -43.089  0.00  0.00    -0.066 SA
ATOM     10  O   UNL d   1     -57.308 -98.792 -42.796  0.00  0.00    -0.265 OA
ATOM     11  N   UNL d   1     -58.892 -98.755 -41.999  0.00  0.00    -0.141 N 
ENDROOT
BRANCH   5  12
ATOM     12  C   UNL d   1     -56.563 -98.840 -44.259  0.00  0.00     0.087 A 
ATOM     13  C   UNL d   1     -56.200 -98.826 -44.989  0.00  0.00     0.031 A 
ATOM     14  C   UNL d   1     -55.386 -98.835 -45.055  0.00  0.00     0.059 A 
ATOM     15 CL   UNL d   1     -55.019 -98.821 -45.794  0.00  0.00    -0.082 Cl
ATOM     16  C   UNL d   1     -54.920 -98.858 -44.363  0.00  0.00     0.011 A 
ATOM     17  C   UNL d   1     -55.287 -98.872 -43.625  0.00  0.00     0.002 A 
ATOM     18  C   UNL d   1     -56.109 -98.863 -43.572  0.00  0.00     0.019 A 
ENDBRANCH   5  12
BRANCH   3  19
ATOM     19  C   UNL d   1     -59.116 -98.852 -45.557  0.00  0.00     0.320 C 
ATOM     20  O   UNL d   1     -59.933 -98.761 -45.516  0.00  0.00    -0.257 OA
BRANCH  19  21
ATOM     21  O   UNL d   1     -58.744 -98.959 -46.290  0.00  0.00    -0.270 OA
BRANCH  21  22
ATOM     22  C   UNL d   1     -59.150 -98.798 -46.988  0.00  0.00     0.126 C 
ATOM     23  C   UNL d   1     -59.953 -98.986 -47.054  0.00  0.00     0.029 C 
ENDBRANCH  21  22
ENDBRANCH  19  21
ENDBRANCH   3  19
TORSDOF 4
ENDMDL
