MODEL 1
REMARK VINA RESULT:      -8.7      0.000      0.000
REMARK  6 active torsions:
REMARK  status: ('A' for Active; 'I' for Inactive)
REMARK    1  A    between atoms: N_6  and  S_1 
REMARK    2  A    between atoms: C_7  and  S_1 
REMARK       I    between atoms: C_2  and  N_4 
REMARK    3  A    between atoms: C_8  and  C_2 
REMARK    4  A    between atoms: C_3  and  C_12 
REMARK       I    between atoms: N_5  and  C_3 
REMARK    5  A    between atoms: C_23  and  N_6 
REMARK    6  A    between atoms: O_29  and  C_26 
ROOT
ATOM      1  C   UNL d   1      51.245  34.394  52.643  0.00  0.00     0.057 A 
ATOM      2  C   UNL d   1      49.760  34.316  51.934  0.00  0.00     0.094 A 
ATOM      3  C   UNL d   1      50.564  34.302  53.105  0.00  0.00     0.006 A 
ATOM      4  C   UNL d   1      51.181  34.447  51.825  0.00  0.00     0.006 A 
ATOM      5  C   UNL d   1      49.819  34.264  52.743  0.00  0.00     0.020 A 
ATOM      6  C   UNL d   1      50.436  34.408  51.469  0.00  0.00     0.020 A 
ENDROOT
BRANCH   1   7
ATOM      7  C   UNL d   1      51.995  34.433  53.004  0.00  0.00     0.265 C 
ATOM      8  N   UNL d   1      52.429  33.741  53.152  0.00  0.00    -0.269 N 
ATOM      9  C   UNL d   1      53.172  33.782  53.510  0.00  0.00     0.102 A 
ATOM     10  C   UNL d   1      52.115  33.007  52.940  0.00  0.00     0.102 A 
ATOM     11  C   UNL d   1      53.598  33.091  53.655  0.00  0.00     0.102 A 
ATOM     12  N   UNL d   1      53.274  32.364  53.438  0.00  0.00    -0.267 N 
ATOM     13  C   UNL d   1      53.696  31.673  53.580  0.00  0.00     0.288 C 
ATOM     14  C   UNL d   1      52.538  32.321  53.083  0.00  0.00     0.102 A 
ATOM     15  O   UNL d   1      54.442  31.714  53.940  0.00  0.00    -0.264 OA
ATOM     16  O   UNL d   1      52.309  35.171  53.217  0.00  0.00    -0.267 OA
BRANCH  13  17
ATOM     17  C   UNL d   1      53.384  30.948  53.369  0.00  0.00     0.156 A 
ATOM     18  O   UNL d   1      53.187  30.700  52.601  0.00  0.00    -0.300 OA
ATOM     19  C   UNL d   1      52.894  29.935  52.651  0.00  0.00     0.123 A 
ATOM     20  C   UNL d   1      52.904  29.698  53.442  0.00  0.00     0.029 A 
ATOM     21  C   UNL d   1      53.207  30.323  53.885  0.00  0.00     0.032 A 
ENDBRANCH  13  17
ENDBRANCH   1   7
BRANCH   2  22
ATOM     22  N   UNL d   1      49.017  34.277  51.575  0.00  0.00    -0.158 NA
BRANCH  22  23
ATOM     23  S   UNL d   1      48.463  34.858  51.727  0.00  0.00     0.285 S 
ATOM     24  O   UNL d   1      48.649  35.226  51.011  0.00  0.00    -0.198 OA
ATOM     25  O   UNL d   1      48.273  34.497  52.442  0.00  0.00    -0.198 OA
BRANCH  23  26
ATOM     26  C   UNL d   1      47.904  35.446  51.879  0.00  0.00     0.107 A 
ATOM     27  C   UNL d   1      47.181  35.440  51.481  0.00  0.00     0.037 A 
ATOM     28  C   UNL d   1      46.621  36.028  51.633  0.00  0.00     0.095 A 
ATOM     29  C   UNL d   1      46.787  36.620  52.183  0.00  0.00     0.024 A 
ATOM     30  C   UNL d   1      47.504  36.626  52.578  0.00  0.00     0.003 A 
ATOM     31  C   UNL d   1      48.066  36.041  52.428  0.00  0.00     0.013 A 
BRANCH  28  32
ATOM     32  O   UNL d   1      45.888  36.028  51.235  0.00  0.00    -0.328 OA
ATOM     33  C   UNL d   1      45.184  36.135  51.656  0.00  0.00     0.181 C 
ENDBRANCH  28  32
ENDBRANCH  23  26
ENDBRANCH  22  23
ENDBRANCH   2  22
TORSDOF 6
ENDMDL
MODEL 2
REMARK VINA RESULT:      -8.4      1.491      6.499
REMARK  6 active torsions:
REMARK  status: ('A' for Active; 'I' for Inactive)
REMARK    1  A    between atoms: N_6  and  S_1 
REMARK    2  A    between atoms: C_7  and  S_1 
REMARK       I    between atoms: C_2  and  N_4 
REMARK    3  A    between atoms: C_8  and  C_2 
REMARK    4  A    between atoms: C_3  and  C_12 
REMARK       I    between atoms: N_5  and  C_3 
REMARK    5  A    between atoms: C_23  and  N_6 
REMARK    6  A    between atoms: O_29  and  C_26 
ROOT
ATOM      1  C   UNL d   1      50.415  34.308  52.118  0.00  0.00     0.057 A 
ATOM      2  C   UNL d   1      51.639  34.054  53.191  0.00  0.00     0.094 A 
ATOM      3  C   UNL d   1      51.135  34.708  52.035  0.00  0.00     0.006 A 
ATOM      4  C   UNL d   1      50.309  33.781  52.740  0.00  0.00     0.006 A 
ATOM      5  C   UNL d   1      51.748  34.576  52.578  0.00  0.00     0.020 A 
ATOM      6  C   UNL d   1      50.922  33.653  53.278  0.00  0.00     0.020 A 
ENDROOT
BRANCH   1   7
ATOM      7  C   UNL d   1      49.797  34.439  51.574  0.00  0.00     0.265 C 
ATOM      8  N   UNL d   1      49.087  34.792  51.818  0.00  0.00    -0.269 N 
ATOM      9  C   UNL d   1      48.476  34.921  51.278  0.00  0.00     0.102 A 
ATOM     10  C   UNL d   1      48.991  35.017  52.607  0.00  0.00     0.102 A 
ATOM     11  C   UNL d   1      47.773  35.272  51.526  0.00  0.00     0.102 A 
ATOM     12  N   UNL d   1      47.689  35.492  52.317  0.00  0.00    -0.267 N 
ATOM     13  C   UNL d   1      46.990  35.843  52.568  0.00  0.00     0.288 C 
ATOM     14  C   UNL d   1      48.293  35.366  52.854  0.00  0.00     0.102 A 
ATOM     15  O   UNL d   1      46.376  35.972  52.025  0.00  0.00    -0.264 OA
ATOM     16  O   UNL d   1      49.895  34.213  50.782  0.00  0.00    -0.267 OA
BRANCH  13  17
ATOM     17  C   UNL d   1      46.896  36.065  53.349  0.00  0.00     0.156 A 
ATOM     18  O   UNL d   1      47.286  36.689  53.735  0.00  0.00    -0.300 OA
ATOM     19  C   UNL d   1      47.022  36.708  54.512  0.00  0.00     0.123 A 
ATOM     20  C   UNL d   1      46.471  36.103  54.620  0.00  0.00     0.029 A 
ATOM     21  C   UNL d   1      46.393  35.706  53.902  0.00  0.00     0.032 A 
ENDBRANCH  13  17
ENDBRANCH   1   7
BRANCH   2  22
ATOM     22  N   UNL d   1      52.250  33.924  53.731  0.00  0.00    -0.158 NA
BRANCH  22  23
ATOM     23  S   UNL d   1      52.716  33.257  53.661  0.00  0.00     0.285 S 
ATOM     24  O   UNL d   1      52.317  32.909  54.295  0.00  0.00    -0.198 OA
ATOM     25  O   UNL d   1      53.119  33.597  53.029  0.00  0.00    -0.198 OA
BRANCH  23  26
ATOM     26  C   UNL d   1      53.187  32.582  53.593  0.00  0.00     0.107 A 
ATOM     27  C   UNL d   1      52.835  31.842  53.500  0.00  0.00     0.037 A 
ATOM     28  C   UNL d   1      53.306  31.166  53.432  0.00  0.00     0.095 A 
ATOM     29  C   UNL d   1      54.127  31.235  53.455  0.00  0.00     0.024 A 
ATOM     30  C   UNL d   1      54.477  31.969  53.547  0.00  0.00     0.003 A 
ATOM     31  C   UNL d   1      54.010  32.646  53.616  0.00  0.00     0.013 A 
BRANCH  28  32
ATOM     32  O   UNL d   1      52.956  30.414  53.338  0.00  0.00    -0.328 OA
ATOM     33  C   UNL d   1      53.421  29.760  53.139  0.00  0.00     0.181 C 
ENDBRANCH  28  32
ENDBRANCH  23  26
ENDBRANCH  22  23
ENDBRANCH   2  22
TORSDOF 6
ENDMDL
MODEL 3
REMARK VINA RESULT:      -6.6      1.960      6.665
REMARK  6 active torsions:
REMARK  status: ('A' for Active; 'I' for Inactive)
REMARK    1  A    between atoms: N_6  and  S_1 
REMARK    2  A    between atoms: C_7  and  S_1 
REMARK       I    between atoms: C_2  and  N_4 
REMARK    3  A    between atoms: C_8  and  C_2 
REMARK    4  A    between atoms: C_3  and  C_12 
REMARK       I    between atoms: N_5  and  C_3 
REMARK    5  A    between atoms: C_23  and  N_6 
REMARK    6  A    between atoms: O_29  and  C_26 
ROOT
ATOM      1  C   UNL d   1      48.457  35.478  52.184  0.00  0.00     0.057 A 
ATOM      2  C   UNL d   1      49.558  34.286  52.471  0.00  0.00     0.094 A 
ATOM      3  C   UNL d   1      48.656  34.939  51.588  0.00  0.00     0.006 A 
ATOM      4  C   UNL d   1      48.810  35.418  52.924  0.00  0.00     0.006 A 
ATOM      5  C   UNL d   1      49.211  34.341  51.738  0.00  0.00     0.020 A 
ATOM      6  C   UNL d   1      49.362  34.821  53.068  0.00  0.00     0.020 A 
ENDROOT
BRANCH   1   7
ATOM      7  C   UNL d   1      47.900  36.080  52.036  0.00  0.00     0.265 C 
ATOM      8  N   UNL d   1      47.149  36.055  52.388  0.00  0.00    -0.269 N 
ATOM      9  C   UNL d   1      46.598  36.652  52.241  0.00  0.00     0.102 A 
ATOM     10  C   UNL d   1      46.951  35.429  52.889  0.00  0.00     0.102 A 
ATOM     11  C   UNL d   1      45.854  36.622  52.593  0.00  0.00     0.102 A 
ATOM     12  N   UNL d   1      45.668  35.992  53.092  0.00  0.00    -0.267 N 
ATOM     13  C   UNL d   1      44.926  35.959  53.445  0.00  0.00     0.288 C 
ATOM     14  C   UNL d   1      46.212  35.399  53.240  0.00  0.00     0.102 A 
ATOM     15  O   UNL d   1      44.373  36.559  53.297  0.00  0.00    -0.264 OA
ATOM     16  O   UNL d   1      48.100  36.708  51.533  0.00  0.00    -0.267 OA
BRANCH  13  17
ATOM     17  C   UNL d   1      44.732  35.339  53.940  0.00  0.00     0.156 A 
ATOM     18  O   UNL d   1      44.426  34.601  53.712  0.00  0.00    -0.300 OA
ATOM     19  C   UNL d   1      44.315  34.153  54.390  0.00  0.00     0.123 A 
ATOM     20  C   UNL d   1      44.548  34.600  55.044  0.00  0.00     0.029 A 
ATOM     21  C   UNL d   1      44.805  35.332  54.767  0.00  0.00     0.032 A 
ENDBRANCH  13  17
ENDBRANCH   1   7
BRANCH   2  22
ATOM     22  N   UNL d   1      50.110  33.690  52.619  0.00  0.00    -0.158 NA
BRANCH  22  23
ATOM     23  S   UNL d   1      50.857  33.887  52.885  0.00  0.00     0.285 S 
ATOM     24  O   UNL d   1      50.620  33.742  53.662  0.00  0.00    -0.198 OA
ATOM     25  O   UNL d   1      51.100  34.033  52.112  0.00  0.00    -0.198 OA
BRANCH  23  26
ATOM     26  C   UNL d   1      51.611  34.086  53.155  0.00  0.00     0.107 A 
ATOM     27  C   UNL d   1      52.022  33.568  53.649  0.00  0.00     0.037 A 
ATOM     28  C   UNL d   1      52.777  33.767  53.920  0.00  0.00     0.095 A 
ATOM     29  C   UNL d   1      53.117  34.484  53.695  0.00  0.00     0.024 A 
ATOM     30  C   UNL d   1      52.710  34.998  53.205  0.00  0.00     0.003 A 
ATOM     31  C   UNL d   1      51.956  34.802  52.933  0.00  0.00     0.013 A 
BRANCH  28  32
ATOM     32  O   UNL d   1      53.197  33.248  54.420  0.00  0.00    -0.328 OA
ATOM     33  C   UNL d   1      53.685  32.663  54.098  0.00  0.00     0.181 C 
ENDBRANCH  28  32
ENDBRANCH  23  26
ENDBRANCH  22  23
ENDBRANCH   2  22
TORSDOF 6
ENDMDL
MODEL 4
REMARK VINA RESULT:      -6.6      1.602      6.623
REMARK  6 active torsions:
REMARK  status: ('A' for Active; 'I' for Inactive)
REMARK    1  A    between atoms: N_6  and  S_1 
REMARK    2  A    between atoms: C_7  and  S_1 
REMARK       I    between atoms: C_2  and  N_4 
REMARK    3  A    between atoms: C_8  and  C_2 
REMARK    4  A    between atoms: C_3  and  C_12 
REMARK       I    between atoms: N_5  and  C_3 
REMARK    5  A    between atoms: C_23  and  N_6 
REMARK    6  A    between atoms: O_29  and  C_26 
ROOT
ATOM      1  C   UNL d   1      50.311  34.183  52.199  0.00  0.00     0.057 A 
ATOM      2  C   UNL d   1      51.272  33.869  53.500  0.00  0.00     0.094 A 
ATOM      3  C   UNL d   1      50.205  33.491  52.641  0.00  0.00     0.006 A 
ATOM      4  C   UNL d   1      50.899  34.717  52.410  0.00  0.00     0.006 A 
ATOM      5  C   UNL d   1      50.692  33.338  53.295  0.00  0.00     0.020 A 
ATOM      6  C   UNL d   1      51.381  34.560  53.062  0.00  0.00     0.020 A 
ENDROOT
BRANCH   1   7
ATOM      7  C   UNL d   1      49.824  34.340  51.541  0.00  0.00     0.265 C 
ATOM      8  N   UNL d   1      49.097  34.729  51.638  0.00  0.00    -0.269 N 
ATOM      9  C   UNL d   1      48.615  34.883  50.985  0.00  0.00     0.102 A 
ATOM     10  C   UNL d   1      48.854  34.962  52.392  0.00  0.00     0.102 A 
ATOM     11  C   UNL d   1      47.894  35.269  51.088  0.00  0.00     0.102 A 
ATOM     12  N   UNL d   1      47.663  35.498  51.845  0.00  0.00    -0.267 N 
ATOM     13  C   UNL d   1      46.944  35.883  51.951  0.00  0.00     0.288 C 
ATOM     14  C   UNL d   1      48.138  35.346  52.494  0.00  0.00     0.102 A 
ATOM     15  O   UNL d   1      46.460  36.038  51.295  0.00  0.00    -0.264 OA
ATOM     16  O   UNL d   1      50.069  34.105  50.785  0.00  0.00    -0.267 OA
BRANCH  13  17
ATOM     17  C   UNL d   1      46.705  36.114  52.697  0.00  0.00     0.156 A 
ATOM     18  O   UNL d   1      47.103  36.641  53.202  0.00  0.00    -0.300 OA
ATOM     19  C   UNL d   1      46.663  36.709  53.892  0.00  0.00     0.123 A 
ATOM     20  C   UNL d   1      45.993  36.231  53.828  0.00  0.00     0.029 A 
ATOM     21  C   UNL d   1      46.019  35.864  53.091  0.00  0.00     0.032 A 
ENDBRANCH  13  17
ENDBRANCH   1   7
BRANCH   2  22
ATOM     22  N   UNL d   1      51.755  33.715  54.152  0.00  0.00    -0.158 NA
BRANCH  22  23
ATOM     23  S   UNL d   1      52.493  33.383  54.039  0.00  0.00     0.285 S 
ATOM     24  O   UNL d   1      52.183  32.887  53.456  0.00  0.00    -0.198 OA
ATOM     25  O   UNL d   1      52.810  33.875  54.618  0.00  0.00    -0.198 OA
BRANCH  23  26
ATOM     26  C   UNL d   1      53.239  33.047  53.923  0.00  0.00     0.107 A 
ATOM     27  C   UNL d   1      53.918  33.499  54.039  0.00  0.00     0.037 A 
ATOM     28  C   UNL d   1      54.663  33.163  53.923  0.00  0.00     0.095 A 
ATOM     29  C   UNL d   1      54.725  32.374  53.691  0.00  0.00     0.024 A 
ATOM     30  C   UNL d   1      54.051  31.924  53.576  0.00  0.00     0.003 A 
ATOM     31  C   UNL d   1      53.305  32.257  53.691  0.00  0.00     0.013 A 
BRANCH  28  32
ATOM     32  O   UNL d   1      55.355  33.615  54.038  0.00  0.00    -0.328 OA
ATOM     33  C   UNL d   1      55.688  33.684  54.792  0.00  0.00     0.181 C 
ENDBRANCH  28  32
ENDBRANCH  23  26
ENDBRANCH  22  23
ENDBRANCH   2  22
TORSDOF 6
ENDMDL
MODEL 5
REMARK VINA RESULT:      -6.5      1.269      2.055
REMARK  6 active torsions:
REMARK  status: ('A' for Active; 'I' for Inactive)
REMARK    1  A    between atoms: N_6  and  S_1 
REMARK    2  A    between atoms: C_7  and  S_1 
REMARK       I    between atoms: C_2  and  N_4 
REMARK    3  A    between atoms: C_8  and  C_2 
REMARK    4  A    between atoms: C_3  and  C_12 
REMARK       I    between atoms: N_5  and  C_3 
REMARK    5  A    between atoms: C_23  and  N_6 
REMARK    6  A    between atoms: O_29  and  C_26 
ROOT
ATOM      1  C   UNL d   1      50.707  33.448  52.915  0.00  0.00     0.057 A 
ATOM      2  C   UNL d   1      49.966  34.918  52.990  0.00  0.00     0.094 A 
ATOM      3  C   UNL d   1      50.343  33.698  53.615  0.00  0.00     0.006 A 
ATOM      4  C   UNL d   1      50.699  33.935  52.252  0.00  0.00     0.006 A 
ATOM      5  C   UNL d   1      49.972  34.440  53.647  0.00  0.00     0.020 A 
ATOM      6  C   UNL d   1      50.328  34.671  52.290  0.00  0.00     0.020 A 
ENDROOT
BRANCH   1   7
ATOM      7  C   UNL d   1      51.081  32.704  52.879  0.00  0.00     0.265 C 
ATOM      8  N   UNL d   1      51.848  32.602  53.180  0.00  0.00    -0.269 N 
ATOM      9  C   UNL d   1      52.217  31.864  53.145  0.00  0.00     0.102 A 
ATOM     10  C   UNL d   1      52.244  33.243  53.518  0.00  0.00     0.102 A 
ATOM     11  C   UNL d   1      52.978  31.770  53.445  0.00  0.00     0.102 A 
ATOM     12  N   UNL d   1      53.364  32.418  53.779  0.00  0.00    -0.267 N 
ATOM     13  C   UNL d   1      54.124  32.327  54.080  0.00  0.00     0.288 C 
ATOM     14  C   UNL d   1      53.000  33.150  53.816  0.00  0.00     0.102 A 
ATOM     15  O   UNL d   1      54.494  31.586  54.044  0.00  0.00    -0.264 OA
ATOM     16  O   UNL d   1      50.681  32.060  52.541  0.00  0.00    -0.267 OA
BRANCH  13  17
ATOM     17  C   UNL d   1      54.514  32.962  54.413  0.00  0.00     0.156 A 
ATOM     18  O   UNL d   1      55.008  33.501  54.018  0.00  0.00    -0.300 OA
ATOM     19  C   UNL d   1      55.280  34.045  54.568  0.00  0.00     0.123 A 
ATOM     20  C   UNL d   1      54.963  33.856  55.307  0.00  0.00     0.029 A 
ATOM     21  C   UNL d   1      54.490  33.188  55.211  0.00  0.00     0.032 A 
ENDBRANCH  13  17
ENDBRANCH   1   7
BRANCH   2  22
ATOM     22  N   UNL d   1      49.596  35.655  53.024  0.00  0.00    -0.158 NA
BRANCH  22  23
ATOM     23  S   UNL d   1      48.787  35.707  52.923  0.00  0.00     0.285 S 
ATOM     24  O   UNL d   1      48.703  35.955  53.706  0.00  0.00    -0.198 OA
ATOM     25  O   UNL d   1      48.863  35.461  52.141  0.00  0.00    -0.198 OA
BRANCH  23  26
ATOM     26  C   UNL d   1      47.969  35.760  52.823  0.00  0.00     0.107 A 
ATOM     27  C   UNL d   1      47.629  35.566  52.096  0.00  0.00     0.037 A 
ATOM     28  C   UNL d   1      46.811  35.619  51.996  0.00  0.00     0.095 A 
ATOM     29  C   UNL d   1      46.336  35.867  52.624  0.00  0.00     0.024 A 
ATOM     30  C   UNL d   1      46.673  36.059  53.344  0.00  0.00     0.003 A 
ATOM     31  C   UNL d   1      47.490  36.007  53.448  0.00  0.00     0.013 A 
BRANCH  28  32
ATOM     32  O   UNL d   1      46.460  35.425  51.264  0.00  0.00    -0.328 OA
ATOM     33  C   UNL d   1      45.686  35.661  51.097  0.00  0.00     0.181 C 
ENDBRANCH  28  32
ENDBRANCH  23  26
ENDBRANCH  22  23
ENDBRANCH   2  22
TORSDOF 6
ENDMDL
MODEL 6
REMARK VINA RESULT:      -5.9      1.957      3.300
REMARK  6 active torsions:
REMARK  status: ('A' for Active; 'I' for Inactive)
REMARK    1  A    between atoms: N_6  and  S_1 
REMARK    2  A    between atoms: C_7  and  S_1 
REMARK       I    between atoms: C_2  and  N_4 
REMARK    3  A    between atoms: C_8  and  C_2 
REMARK    4  A    between atoms: C_3  and  C_12 
REMARK       I    between atoms: N_5  and  C_3 
REMARK    5  A    between atoms: C_23  and  N_6 
REMARK    6  A    between atoms: O_29  and  C_26 
ROOT
ATOM      1  C   UNL d   1      49.006  35.016  52.433  0.00  0.00     0.057 A 
ATOM      2  C   UNL d   1      48.026  36.145  53.127  0.00  0.00     0.094 A 
ATOM      3  C   UNL d   1      48.584  35.551  51.962  0.00  0.00     0.006 A 
ATOM      4  C   UNL d   1      48.936  35.048  53.252  0.00  0.00     0.006 A 
ATOM      5  C   UNL d   1      48.092  36.117  52.317  0.00  0.00     0.020 A 
ATOM      6  C   UNL d   1      48.445  35.614  53.600  0.00  0.00     0.020 A 
ENDROOT
BRANCH   1   7
ATOM      7  C   UNL d   1      49.501  34.446  52.080  0.00  0.00     0.265 C 
ATOM      8  N   UNL d   1      50.274  34.328  52.358  0.00  0.00    -0.269 N 
ATOM      9  C   UNL d   1      50.763  33.763  52.006  0.00  0.00     0.102 A 
ATOM     10  C   UNL d   1      50.556  34.779  52.990  0.00  0.00     0.102 A 
ATOM     11  C   UNL d   1      51.529  33.650  52.287  0.00  0.00     0.102 A 
ATOM     12  N   UNL d   1      51.799  34.107  52.919  0.00  0.00    -0.267 N 
ATOM     13  C   UNL d   1      52.564  33.997  53.201  0.00  0.00     0.288 C 
ATOM     14  C   UNL d   1      51.317  34.667  53.268  0.00  0.00     0.102 A 
ATOM     15  O   UNL d   1      53.055  33.429  52.848  0.00  0.00    -0.264 OA
ATOM     16  O   UNL d   1      49.216  33.994  51.445  0.00  0.00    -0.267 OA
BRANCH  13  17
ATOM     17  C   UNL d   1      52.841  34.443  53.826  0.00  0.00     0.156 A 
ATOM     18  O   UNL d   1      53.001  35.259  53.818  0.00  0.00    -0.300 OA
ATOM     19  C   UNL d   1      53.268  35.471  54.565  0.00  0.00     0.123 A 
ATOM     20  C   UNL d   1      53.279  34.798  55.043  0.00  0.00     0.029 A 
ATOM     21  C   UNL d   1      53.016  34.164  54.588  0.00  0.00     0.032 A 
ENDBRANCH  13  17
ENDBRANCH   1   7
BRANCH   2  22
ATOM     22  N   UNL d   1      47.536  36.709  53.478  0.00  0.00    -0.158 NA
BRANCH  22  23
ATOM     23  S   UNL d   1      46.755  36.528  53.632  0.00  0.00     0.285 S 
ATOM     24  O   UNL d   1      46.561  36.686  52.845  0.00  0.00    -0.198 OA
ATOM     25  O   UNL d   1      46.940  36.368  54.418  0.00  0.00    -0.198 OA
BRANCH  23  26
ATOM     26  C   UNL d   1      45.964  36.344  53.785  0.00  0.00     0.107 A 
ATOM     27  C   UNL d   1      45.774  35.799  54.374  0.00  0.00     0.037 A 
ATOM     28  C   UNL d   1      44.983  35.615  54.527  0.00  0.00     0.095 A 
ATOM     29  C   UNL d   1      44.386  35.979  54.090  0.00  0.00     0.024 A 
ATOM     30  C   UNL d   1      44.574  36.520  53.505  0.00  0.00     0.003 A 
ATOM     31  C   UNL d   1      45.363  36.706  53.350  0.00  0.00     0.013 A 
BRANCH  28  32
ATOM     32  O   UNL d   1      44.784  35.064  55.121  0.00  0.00    -0.328 OA
ATOM     33  C   UNL d   1      44.441  34.339  54.919  0.00  0.00     0.181 C 
ENDBRANCH  28  32
ENDBRANCH  23  26
ENDBRANCH  22  23
ENDBRANCH   2  22
TORSDOF 6
ENDMDL
