MODEL 1
REMARK VINA RESULT:      30.3      0.000      0.000
REMARK  4 active torsions:
REMARK  status: ('A' for Active; 'I' for Inactive)
REMARK    1  A    between atoms: N_3  and  C_1 
REMARK       I    between atoms: C_7  and  N_3 
REMARK    2  A    between atoms: C_12  and  N_3 
REMARK    3  A    between atoms: C_17  and  C_12 
REMARK    4  A    between atoms: N_18  and  C_17 
ROOT
ATOM      1  C   UNL d   1      13.461  12.970  -3.585  0.00  0.00     0.182 A 
ATOM      2  N   UNL d   1      14.040  13.430  -3.194  0.00  0.00    -0.222 NA
ATOM      3  S   UNL d   1      13.271  12.327  -3.095  0.00  0.00    -0.048 SA
ATOM      4  C   UNL d   1      14.203  13.070  -2.469  0.00  0.00     0.092 A 
ATOM      5  C   UNL d   1      13.733  12.395  -2.407  0.00  0.00     0.052 A 
ATOM      6  C   UNL d   1      14.717  13.277  -1.867  0.00  0.00     0.046 A 
ATOM      7  C   UNL d   1      13.784  11.926  -1.732  0.00  0.00     0.034 A 
ATOM      8  C   UNL d   1      14.761  12.806  -1.201  0.00  0.00     0.121 A 
ATOM      9  C   UNL d   1      14.300  12.137  -1.132  0.00  0.00     0.120 A 
ATOM     10  O   UNL d   1      14.469  11.779  -0.402  0.00  0.00    -0.300 OA
ATOM     11  O   UNL d   1      15.221  12.870  -0.512  0.00  0.00    -0.299 OA
ATOM     12  C   UNL d   1      15.042  12.236  -0.016  0.00  0.00     0.304 A 
ENDROOT
BRANCH   1  13
ATOM     13  N   UNL d   1      13.139  13.135  -4.331  0.00  0.00    -0.251 N 
ATOM     14  C   UNL d   1      13.104  12.528  -4.895  0.00  0.00     0.267 C 
ATOM     15  O   UNL d   1      13.382  11.779  -4.718  0.00  0.00    -0.267 OA
ATOM     16  C   UNL d   1      12.782  12.693  -5.641  0.00  0.00     0.066 C 
BRANCH  13  17
ATOM     17  C   UNL d   1      12.858  13.892  -4.510  0.00  0.00     0.104 C 
BRANCH  17  18
ATOM     18  C   UNL d   1      13.306  14.398  -4.984  0.00  0.00     0.100 C 
BRANCH  18  19
ATOM     19  N   UNL d   1      13.338  15.206  -4.812  0.00  0.00    -0.299 N 
ATOM     20  C   UNL d   1      13.932  15.675  -5.140  0.00  0.00     0.100 C 
ATOM     21  C   UNL d   1      12.776  15.544  -4.311  0.00  0.00     0.100 C 
ENDBRANCH  18  19
ENDBRANCH  17  18
ENDBRANCH  13  17
ENDBRANCH   1  13
TORSDOF 4
ENDMDL
