MODEL 1
REMARK VINA RESULT:      -7.1      0.000      0.000
REMARK  4 active torsions:
REMARK  status: ('A' for Active; 'I' for Inactive)
REMARK    1  A    between atoms: N_2  and  S_1 
REMARK    2  A    between atoms: C_7  and  S_1 
REMARK    3  A    between atoms: S_9  and  C_3 
REMARK    4  A    between atoms: C_13  and  S_9 
ROOT
ATOM      1  S   UNL d   1     -48.868  12.728  21.941  0.00  0.00     0.273 S 
ATOM      2  O   UNL d   1     -48.393  13.047  21.354  0.00  0.00    -0.200 OA
ATOM      3  O   UNL d   1     -48.798  12.130  21.371  0.00  0.00    -0.200 OA
ENDROOT
BRANCH   1   4
ATOM      4  N   UNL d   1     -48.790  13.450  22.345  0.00  0.00    -0.208 N 
ATOM      5  C   UNL d   1     -48.073  13.792  22.598  0.00  0.00     0.189 A 
ATOM      6  N   UNL d   1     -48.249  14.510  22.977  0.00  0.00    -0.219 NA
ATOM      7  C   UNL d   1     -49.073  14.609  22.957  0.00  0.00     0.121 A 
ATOM      8  C   UNL d   1     -49.411  13.960  22.570  0.00  0.00     0.114 A 
BRANCH   5   9
ATOM      9  S   UNL d   1     -47.313  13.469  22.488  0.00  0.00    -0.049 SA
BRANCH   9  10
ATOM     10  C   UNL d   1     -46.650  13.871  22.776  0.00  0.00     0.038 C 
ATOM     11  C   UNL d   1     -45.895  13.565  22.639  0.00  0.00     0.008 C 
ENDBRANCH   9  10
ENDBRANCH   5   9
ENDBRANCH   1   4
BRANCH   1  12
ATOM     12  C   UNL d   1     -49.349  12.389  22.524  0.00  0.00     0.104 A 
ATOM     13  C   UNL d   1     -50.161  12.513  22.498  0.00  0.00     0.013 A 
ATOM     14  C   UNL d   1     -50.639  12.176  23.078  0.00  0.00     0.001 A 
ATOM     15  C   UNL d   1     -50.303  11.719  23.677  0.00  0.00     0.000 A 
ATOM     16  C   UNL d   1     -49.491  11.598  23.698  0.00  0.00     0.001 A 
ATOM     17  C   UNL d   1     -49.012  11.939  23.113  0.00  0.00     0.013 A 
ENDBRANCH   1  12
TORSDOF 4
ENDMDL
MODEL 2
REMARK VINA RESULT:      -7.0      1.014      3.072
REMARK  4 active torsions:
REMARK  status: ('A' for Active; 'I' for Inactive)
REMARK    1  A    between atoms: N_2  and  S_1 
REMARK    2  A    between atoms: C_7  and  S_1 
REMARK    3  A    between atoms: S_9  and  C_3 
REMARK    4  A    between atoms: C_13  and  S_9 
ROOT
ATOM      1  S   UNL d   1     -48.181  12.652  21.952  0.00  0.00     0.273 S 
ATOM      2  O   UNL d   1     -48.737  12.155  21.610  0.00  0.00    -0.200 OA
ATOM      3  O   UNL d   1     -48.294  12.950  21.187  0.00  0.00    -0.200 OA
ENDROOT
BRANCH   1   4
ATOM      4  N   UNL d   1     -48.240  12.185  22.636  0.00  0.00    -0.208 N 
ATOM      5  C   UNL d   1     -48.943  12.014  23.051  0.00  0.00     0.189 A 
ATOM      6  N   UNL d   1     -48.751  11.531  23.698  0.00  0.00    -0.219 NA
ATOM      7  C   UNL d   1     -47.930  11.403  23.681  0.00  0.00     0.121 A 
ATOM      8  C   UNL d   1     -47.611  11.803  23.031  0.00  0.00     0.114 A 
BRANCH   5   9
ATOM      9  S   UNL d   1     -49.705  12.284  22.850  0.00  0.00    -0.049 SA
BRANCH   9  10
ATOM     10  C   UNL d   1     -50.349  12.096  23.335  0.00  0.00     0.038 C 
ATOM     11  C   UNL d   1     -51.064  12.497  23.238  0.00  0.00     0.008 C 
ENDBRANCH   9  10
ENDBRANCH   5   9
ENDBRANCH   1   4
BRANCH   1  12
ATOM     12  C   UNL d   1     -47.619  13.163  22.281  0.00  0.00     0.104 A 
ATOM     13  C   UNL d   1     -47.866  13.867  22.625  0.00  0.00     0.013 A 
ATOM     14  C   UNL d   1     -47.306  14.374  22.953  0.00  0.00     0.001 A 
ATOM     15  C   UNL d   1     -46.506  14.175  22.934  0.00  0.00     0.000 A 
ATOM     16  C   UNL d   1     -46.264  13.470  22.590  0.00  0.00     0.001 A 
ATOM     17  C   UNL d   1     -46.830  12.960  22.260  0.00  0.00     0.013 A 
ENDBRANCH   1  12
TORSDOF 4
ENDMDL
MODEL 3
REMARK VINA RESULT:      -6.8      1.276      2.253
REMARK  4 active torsions:
REMARK  status: ('A' for Active; 'I' for Inactive)
REMARK    1  A    between atoms: N_2  and  S_1 
REMARK    2  A    between atoms: C_7  and  S_1 
REMARK    3  A    between atoms: S_9  and  C_3 
REMARK    4  A    between atoms: C_13  and  S_9 
ROOT
ATOM      1  S   UNL d   1     -49.097  12.744  21.825  0.00  0.00     0.273 S 
ATOM      2  O   UNL d   1     -48.765  12.035  21.582  0.00  0.00    -0.200 OA
ATOM      3  O   UNL d   1     -48.696  12.924  21.122  0.00  0.00    -0.200 OA
ENDROOT
BRANCH   1   4
ATOM      4  N   UNL d   1     -49.407  12.331  22.476  0.00  0.00    -0.208 N 
ATOM      5  C   UNL d   1     -48.964  11.907  23.041  0.00  0.00     0.189 A 
ATOM      6  N   UNL d   1     -49.492  11.582  23.593  0.00  0.00    -0.219 NA
ATOM      7  C   UNL d   1     -50.260  11.806  23.368  0.00  0.00     0.121 A 
ATOM      8  C   UNL d   1     -50.214  12.266  22.682  0.00  0.00     0.114 A 
BRANCH   5   9
ATOM      9  S   UNL d   1     -48.135  11.825  23.049  0.00  0.00    -0.049 SA
BRANCH   9  10
ATOM     10  C   UNL d   1     -47.770  11.393  23.653  0.00  0.00     0.038 C 
ATOM     11  C   UNL d   1     -46.946  11.369  23.697  0.00  0.00     0.008 C 
ENDBRANCH   9  10
ENDBRANCH   5   9
ENDBRANCH   1   4
BRANCH   1  12
ATOM     12  C   UNL d   1     -49.426  13.468  22.056  0.00  0.00     0.104 A 
ATOM     13  C   UNL d   1     -50.198  13.647  21.840  0.00  0.00     0.013 A 
ATOM     14  C   UNL d   1     -50.524  14.368  22.070  0.00  0.00     0.001 A 
ATOM     15  C   UNL d   1     -50.077  14.902  22.513  0.00  0.00     0.000 A 
ATOM     16  C   UNL d   1     -49.306  14.717  22.726  0.00  0.00     0.001 A 
ATOM     17  C   UNL d   1     -48.980  13.991  22.493  0.00  0.00     0.013 A 
ENDBRANCH   1  12
TORSDOF 4
ENDMDL
MODEL 4
REMARK VINA RESULT:      -6.6      0.997      1.896
REMARK  4 active torsions:
REMARK  status: ('A' for Active; 'I' for Inactive)
REMARK    1  A    between atoms: N_2  and  S_1 
REMARK    2  A    between atoms: C_7  and  S_1 
REMARK    3  A    between atoms: S_9  and  C_3 
REMARK    4  A    between atoms: C_13  and  S_9 
ROOT
ATOM      1  S   UNL d   1     -49.232  13.155  22.003  0.00  0.00     0.273 S 
ATOM      2  O   UNL d   1     -49.394  13.765  21.479  0.00  0.00    -0.200 OA
ATOM      3  O   UNL d   1     -49.847  12.871  21.525  0.00  0.00    -0.200 OA
ENDROOT
BRANCH   1   4
ATOM      4  N   UNL d   1     -48.646  13.644  22.332  0.00  0.00    -0.208 N 
ATOM      5  C   UNL d   1     -48.773  14.386  22.689  0.00  0.00     0.189 A 
ATOM      6  N   UNL d   1     -48.040  14.681  22.941  0.00  0.00    -0.219 NA
ATOM      7  C   UNL d   1     -47.461  14.121  22.739  0.00  0.00     0.121 A 
ATOM      8  C   UNL d   1     -47.828  13.481  22.365  0.00  0.00     0.114 A 
BRANCH   5   9
ATOM      9  S   UNL d   1     -49.510  14.764  22.778  0.00  0.00    -0.049 SA
BRANCH   9  10
ATOM     10  C   UNL d   1     -49.550  15.508  23.138  0.00  0.00     0.038 C 
ATOM     11  C   UNL d   1     -50.278  15.797  23.401  0.00  0.00     0.008 C 
ENDBRANCH   9  10
ENDBRANCH   5   9
ENDBRANCH   1   4
BRANCH   1  12
ATOM     12  C   UNL d   1     -49.082  12.529  22.524  0.00  0.00     0.104 A 
ATOM     13  C   UNL d   1     -49.565  12.426  23.180  0.00  0.00     0.013 A 
ATOM     14  C   UNL d   1     -49.415  11.803  23.698  0.00  0.00     0.001 A 
ATOM     15  C   UNL d   1     -48.785  11.289  23.556  0.00  0.00     0.000 A 
ATOM     16  C   UNL d   1     -48.305  11.397  22.898  0.00  0.00     0.001 A 
ATOM     17  C   UNL d   1     -48.458  12.026  22.378  0.00  0.00     0.013 A 
ENDBRANCH   1  12
TORSDOF 4
ENDMDL
