MODEL 1
REMARK VINA RESULT:      74.8      0.000      0.000
REMARK  7 active torsions:
REMARK  status: ('A' for Active; 'I' for Inactive)
REMARK    1  A    between atoms: C_5  and  C_1 
REMARK    2  A    between atoms: N_3  and  C_2 
REMARK    3  A    between atoms: C_14  and  C_5 
REMARK    4  A    between atoms: C_10  and  C_6 
REMARK    5  A    between atoms: O_19  and  C_10 
REMARK    6  A    between atoms: O_22  and  C_18 
REMARK    7  A    between atoms: C_26  and  O_19 
ROOT
ATOM      1  C   UNL d   1      44.255 -15.034  36.676  0.00  0.00     0.074 A 
ATOM      2  C   UNL d   1      43.750 -15.682  36.834  0.00  0.00     0.070 A 
ATOM      3  C   UNL d   1      42.934 -15.606  36.739  0.00  0.00     0.036 A 
ATOM      4  C   UNL d   1      43.932 -14.316  36.425  0.00  0.00     0.103 A 
ATOM      5  N   UNL d   1      43.104 -14.245  36.330  0.00  0.00    -0.244 NA
ATOM      6  C   UNL d   1      42.611 -14.888  36.487  0.00  0.00     0.083 A 
ATOM      7  C   UNL d   1      42.441 -16.249  36.896  0.00  0.00     0.027 A 
ATOM      8  C   UNL d   1      41.795 -14.812  36.392  0.00  0.00     0.021 A 
ATOM      9  C   UNL d   1      41.624 -16.173  36.801  0.00  0.00     0.094 A 
ATOM     10  C   UNL d   1      41.302 -15.455  36.549  0.00  0.00     0.026 A 
ENDROOT
BRANCH   2  11
ATOM     11  N   UNL d   1      44.074 -16.404  37.087  0.00  0.00    -0.303 N 
ATOM     12  C   UNL d   1      44.329 -16.492  37.867  0.00  0.00     0.086 A 
ATOM     13  C   UNL d   1      44.655 -17.217  38.121  0.00  0.00     0.081 A 
ATOM     14  C   UNL d   1      44.723 -17.847  37.593  0.00  0.00     0.008 A 
ATOM     15  C   UNL d   1      44.468 -17.760  36.813  0.00  0.00     0.019 A 
ATOM     16  C   UNL d   1      44.142 -17.034  36.559  0.00  0.00     0.080 A 
BRANCH  13  17
ATOM     17  C   UNL d   1      44.913 -17.304  38.913  0.00  0.00     0.302 C 
ATOM     18  O   UNL d   1      44.825 -16.662  39.440  0.00  0.00    -0.259 OA
BRANCH  17  19
ATOM     19  O   UNL d   1      45.249 -18.014  39.163  0.00  0.00    -0.271 OA
BRANCH  19  20
ATOM     20  C   UNL d   1      45.365 -18.154  39.968  0.00  0.00     0.126 C 
ATOM     21  C   UNL d   1      45.699 -18.865  40.218  0.00  0.00     0.029 C 
ENDBRANCH  19  20
ENDBRANCH  17  19
ENDBRANCH  13  17
ENDBRANCH   2  11
BRANCH   1  22
ATOM     22  C   UNL d   1      45.071 -15.110  36.771  0.00  0.00     0.198 C 
ATOM     23  O   UNL d   1      45.458 -15.811  36.569  0.00  0.00    -0.286 OA
BRANCH  22  24
ATOM     24  C   UNL d   1      45.509 -14.480  37.073  0.00  0.00     0.039 A 
ATOM     25  C   UNL d   1      46.198 -14.238  36.688  0.00  0.00     0.003 A 
ATOM     26  C   UNL d   1      46.646 -13.600  36.988  0.00  0.00     0.000 A 
ATOM     27  C   UNL d   1      46.387 -13.218  37.673  0.00  0.00     0.000 A 
ATOM     28  C   UNL d   1      45.698 -13.459  38.058  0.00  0.00     0.000 A 
ATOM     29  C   UNL d   1      45.258 -14.091  37.757  0.00  0.00     0.003 A 
ENDBRANCH  22  24
ENDBRANCH   1  22
BRANCH   9  30
ATOM     30  O   UNL d   1      41.133 -16.819  36.959  0.00  0.00    -0.328 OA
ATOM     31  C   UNL d   1      40.765 -17.212  36.330  0.00  0.00     0.181 C 
ENDBRANCH   9  30
TORSDOF 7
ENDMDL
