MODEL 1
REMARK VINA RESULT:      -3.4      0.000      0.000
REMARK  1 active torsions:
REMARK  status: ('A' for Active; 'I' for Inactive)
REMARK    1  A    between atoms: C_8  and  C_2 
ROOT
ATOM      1  N   UNL d   1      30.022  17.697 -24.778  0.00  0.00    -0.191 NA
ATOM      2  C   UNL d   1      30.452  17.137 -24.384  0.00  0.00     0.087 A 
ATOM      3  C   UNL d   1      29.189  17.701 -24.702  0.00  0.00     0.369 A 
ATOM      4  N   UNL d   1      28.801  17.144 -24.233  0.00  0.00    -0.191 NA
ATOM      5  C   UNL d   1      30.097  16.572 -23.912  0.00  0.00     0.036 A 
ATOM      6  C   UNL d   1      29.263  16.576 -23.836  0.00  0.00     0.088 A 
ATOM      7  O   UNL d   1      28.727  18.266 -25.097  0.00  0.00    -0.242 OA
ATOM      8  C   UNL d   1      30.526  16.012 -23.518  0.00  0.00     0.003 A 
ATOM      9  C   UNL d   1      28.875  16.019 -23.367  0.00  0.00     0.019 A 
ATOM     10  C   UNL d   1      30.171  15.455 -23.052  0.00  0.00     0.000 A 
ATOM     11  C   UNL d   1      29.337  15.458 -22.976  0.00  0.00     0.002 A 
ENDROOT
BRANCH   2  12
ATOM     12  C   UNL d   1      31.286  17.133 -24.460  0.00  0.00     0.018 A 
ATOM     13  C   UNL d   1      31.629  16.661 -25.020  0.00  0.00     0.002 A 
ATOM     14  C   UNL d   1      32.473  16.657 -25.097  0.00  0.00     0.000 A 
ATOM     15  C   UNL d   1      32.915  17.127 -24.609  0.00  0.00     0.000 A 
ATOM     16  C   UNL d   1      32.574  17.606 -24.042  0.00  0.00     0.000 A 
ATOM     17  C   UNL d   1      31.729  17.610 -23.965  0.00  0.00     0.002 A 
ENDBRANCH   2  12
TORSDOF 1
ENDMDL
MODEL 2
REMARK VINA RESULT:      -2.9      1.395      2.086
REMARK  1 active torsions:
REMARK  status: ('A' for Active; 'I' for Inactive)
REMARK    1  A    between atoms: C_8  and  C_2 
ROOT
ATOM      1  N   UNL d   1      30.113  15.795 -23.030  0.00  0.00    -0.191 NA
ATOM      2  C   UNL d   1      30.451  16.231 -23.621  0.00  0.00     0.087 A 
ATOM      3  C   UNL d   1      29.297  15.890 -22.868  0.00  0.00     0.369 A 
ATOM      4  N   UNL d   1      28.835  16.419 -23.301  0.00  0.00    -0.191 NA
ATOM      5  C   UNL d   1      30.020  16.763 -24.067  0.00  0.00     0.036 A 
ATOM      6  C   UNL d   1      29.204  16.858 -23.906  0.00  0.00     0.088 A 
ATOM      7  O   UNL d   1      28.928  15.453 -22.267  0.00  0.00    -0.242 OA
ATOM      8  C   UNL d   1      30.358  17.200 -24.658  0.00  0.00     0.003 A 
ATOM      9  C   UNL d   1      28.742  17.387 -24.338  0.00  0.00     0.019 A 
ATOM     10  C   UNL d   1      29.928  17.725 -25.097  0.00  0.00     0.000 A 
ATOM     11  C   UNL d   1      29.112  17.819 -24.935  0.00  0.00     0.002 A 
ENDROOT
BRANCH   2  12
ATOM     12  C   UNL d   1      31.268  16.136 -23.782  0.00  0.00     0.018 A 
ATOM     13  C   UNL d   1      31.801  16.617 -23.411  0.00  0.00     0.002 A 
ATOM     14  C   UNL d   1      32.628  16.521 -23.574  0.00  0.00     0.000 A 
ATOM     15  C   UNL d   1      32.862  15.951 -24.098  0.00  0.00     0.000 A 
ATOM     16  C   UNL d   1      32.327  15.464 -24.476  0.00  0.00     0.000 A 
ATOM     17  C   UNL d   1      31.500  15.559 -24.313  0.00  0.00     0.002 A 
ENDBRANCH   2  12
TORSDOF 1
ENDMDL
MODEL 3
REMARK VINA RESULT:      -2.7      1.796      3.405
REMARK  1 active torsions:
REMARK  status: ('A' for Active; 'I' for Inactive)
REMARK    1  A    between atoms: C_8  and  C_2 
ROOT
ATOM      1  N   UNL d   1      31.353  15.744 -23.548  0.00  0.00    -0.191 NA
ATOM      2  C   UNL d   1      30.839  16.231 -23.938  0.00  0.00     0.087 A 
ATOM      3  C   UNL d   1      32.167  15.937 -23.535  0.00  0.00     0.369 A 
ATOM      4  N   UNL d   1      32.452  16.614 -23.912  0.00  0.00    -0.191 NA
ATOM      5  C   UNL d   1      31.089  16.909 -24.321  0.00  0.00     0.036 A 
ATOM      6  C   UNL d   1      31.904  17.101 -24.308  0.00  0.00     0.088 A 
ATOM      7  O   UNL d   1      32.715  15.453 -23.142  0.00  0.00    -0.242 OA
ATOM      8  C   UNL d   1      30.575  17.396 -24.711  0.00  0.00     0.003 A 
ATOM      9  C   UNL d   1      32.188  17.778 -24.685  0.00  0.00     0.019 A 
ATOM     10  C   UNL d   1      30.828  18.065 -25.088  0.00  0.00     0.000 A 
ATOM     11  C   UNL d   1      31.642  18.258 -25.075  0.00  0.00     0.002 A 
ENDROOT
BRANCH   2  12
ATOM     12  C   UNL d   1      30.023  16.038 -23.951  0.00  0.00     0.018 A 
ATOM     13  C   UNL d   1      29.560  16.240 -23.320  0.00  0.00     0.002 A 
ATOM     14  C   UNL d   1      28.735  16.045 -23.333  0.00  0.00     0.000 A 
ATOM     15  C   UNL d   1      28.432  15.661 -23.976  0.00  0.00     0.000 A 
ATOM     16  C   UNL d   1      28.895  15.455 -24.617  0.00  0.00     0.000 A 
ATOM     17  C   UNL d   1      29.721  15.651 -24.604  0.00  0.00     0.002 A 
ENDBRANCH   2  12
TORSDOF 1
ENDMDL
MODEL 4
REMARK VINA RESULT:      -2.7      1.376      2.131
REMARK  1 active torsions:
REMARK  status: ('A' for Active; 'I' for Inactive)
REMARK    1  A    between atoms: C_8  and  C_2 
ROOT
ATOM      1  N   UNL d   1      30.924  17.685 -24.381  0.00  0.00    -0.191 NA
ATOM      2  C   UNL d   1      31.700  17.599 -24.173  0.00  0.00     0.087 A 
ATOM      3  C   UNL d   1      30.405  17.032 -24.303  0.00  0.00     0.369 A 
ATOM      4  N   UNL d   1      30.674  16.306 -24.018  0.00  0.00    -0.191 NA
ATOM      5  C   UNL d   1      31.996  16.893 -23.888  0.00  0.00     0.036 A 
ATOM      6  C   UNL d   1      31.478  16.240 -23.809  0.00  0.00     0.088 A 
ATOM      7  O   UNL d   1      29.604  17.096 -24.510  0.00  0.00    -0.242 OA
ATOM      8  C   UNL d   1      32.773  16.806 -23.680  0.00  0.00     0.003 A 
ATOM      9  C   UNL d   1      31.746  15.513 -23.525  0.00  0.00     0.019 A 
ATOM     10  C   UNL d   1      33.062  16.106 -23.398  0.00  0.00     0.000 A 
ATOM     11  C   UNL d   1      32.543  15.453 -23.320  0.00  0.00     0.002 A 
ENDROOT
BRANCH   2  12
ATOM     12  C   UNL d   1      32.219  18.252 -24.252  0.00  0.00     0.018 A 
ATOM     13  C   UNL d   1      32.507  18.441 -24.983  0.00  0.00     0.002 A 
ATOM     14  C   UNL d   1      33.032  19.102 -25.063  0.00  0.00     0.000 A 
ATOM     15  C   UNL d   1      33.232  19.528 -24.405  0.00  0.00     0.000 A 
ATOM     16  C   UNL d   1      32.943  19.341 -23.664  0.00  0.00     0.000 A 
ATOM     17  C   UNL d   1      32.418  18.680 -23.584  0.00  0.00     0.002 A 
ENDBRANCH   2  12
TORSDOF 1
ENDMDL
MODEL 5
REMARK VINA RESULT:      -2.6      1.390      2.793
REMARK  1 active torsions:
REMARK  status: ('A' for Active; 'I' for Inactive)
REMARK    1  A    between atoms: C_8  and  C_2 
ROOT
ATOM      1  N   UNL d   1      30.971  17.571 -24.733  0.00  0.00    -0.191 NA
ATOM      2  C   UNL d   1      30.908  16.855 -24.363  0.00  0.00     0.087 A 
ATOM      3  C   UNL d   1      31.706  17.971 -24.723  0.00  0.00     0.369 A 
ATOM      4  N   UNL d   1      32.363  17.648 -24.344  0.00  0.00    -0.191 NA
ATOM      5  C   UNL d   1      31.541  16.508 -23.979  0.00  0.00     0.036 A 
ATOM      6  C   UNL d   1      32.275  16.909 -23.969  0.00  0.00     0.088 A 
ATOM      7  O   UNL d   1      31.795  18.708 -25.096  0.00  0.00    -0.242 OA
ATOM      8  C   UNL d   1      31.477  15.792 -23.609  0.00  0.00     0.003 A 
ATOM      9  C   UNL d   1      32.933  16.585 -23.590  0.00  0.00     0.019 A 
ATOM     10  C   UNL d   1      32.106  15.453 -23.230  0.00  0.00     0.000 A 
ATOM     11  C   UNL d   1      32.841  15.853 -23.221  0.00  0.00     0.002 A 
ENDROOT
BRANCH   2  12
ATOM     12  C   UNL d   1      30.172  16.453 -24.372  0.00  0.00     0.018 A 
ATOM     13  C   UNL d   1      30.011  15.940 -24.976  0.00  0.00     0.002 A 
ATOM     14  C   UNL d   1      29.266  15.534 -24.985  0.00  0.00     0.000 A 
ATOM     15  C   UNL d   1      28.736  15.670 -24.391  0.00  0.00     0.000 A 
ATOM     16  C   UNL d   1      28.894  16.188 -23.779  0.00  0.00     0.000 A 
ATOM     17  C   UNL d   1      29.639  16.594 -23.769  0.00  0.00     0.002 A 
ENDBRANCH   2  12
TORSDOF 1
ENDMDL
MODEL 6
REMARK VINA RESULT:      -2.2      2.577      4.107
REMARK  1 active torsions:
REMARK  status: ('A' for Active; 'I' for Inactive)
REMARK    1  A    between atoms: C_8  and  C_2 
ROOT
ATOM      1  N   UNL d   1      32.913  18.402 -22.565  0.00  0.00    -0.191 NA
ATOM      2  C   UNL d   1      32.811  18.379 -23.367  0.00  0.00     0.087 A 
ATOM      3  C   UNL d   1      33.130  19.124 -22.202  0.00  0.00     0.369 A 
ATOM      4  N   UNL d   1      33.241  19.810 -22.647  0.00  0.00    -0.191 NA
ATOM      5  C   UNL d   1      32.913  19.041 -23.835  0.00  0.00     0.036 A 
ATOM      6  C   UNL d   1      33.130  19.763 -23.472  0.00  0.00     0.088 A 
ATOM      7  O   UNL d   1      33.240  19.173 -21.380  0.00  0.00    -0.242 OA
ATOM      8  C   UNL d   1      32.811  19.018 -24.637  0.00  0.00     0.003 A 
ATOM      9  C   UNL d   1      33.241  20.448 -23.918  0.00  0.00     0.019 A 
ATOM     10  C   UNL d   1      32.913  19.675 -25.097  0.00  0.00     0.000 A 
ATOM     11  C   UNL d   1      33.130  20.397 -24.734  0.00  0.00     0.002 A 
ENDROOT
BRANCH   2  12
ATOM     12  C   UNL d   1      32.593  17.656 -23.730  0.00  0.00     0.018 A 
ATOM     13  C   UNL d   1      31.811  17.498 -23.857  0.00  0.00     0.002 A 
ATOM     14  C   UNL d   1      31.591  16.767 -24.225  0.00  0.00     0.000 A 
ATOM     15  C   UNL d   1      32.169  16.244 -24.440  0.00  0.00     0.000 A 
ATOM     16  C   UNL d   1      32.962  16.400 -24.314  0.00  0.00     0.000 A 
ATOM     17  C   UNL d   1      33.182  17.131 -23.946  0.00  0.00     0.002 A 
ENDBRANCH   2  12
TORSDOF 1
ENDMDL
MODEL 7
REMARK VINA RESULT:      -2.1      5.747      6.840
REMARK  1 active torsions:
REMARK  status: ('A' for Active; 'I' for Inactive)
REMARK    1  A    between atoms: C_8  and  C_2 
ROOT
ATOM      1  N   UNL d   1      32.839  22.783 -22.156  0.00  0.00    -0.191 NA
ATOM      2  C   UNL d   1      32.806  22.401 -21.445  0.00  0.00     0.087 A 
ATOM      3  C   UNL d   1      33.011  22.343 -22.848  0.00  0.00     0.369 A 
ATOM      4  N   UNL d   1      33.145  21.530 -22.814  0.00  0.00    -0.191 NA
ATOM      5  C   UNL d   1      32.934  21.597 -21.378  0.00  0.00     0.036 A 
ATOM      6  C   UNL d   1      33.106  21.157 -22.069  0.00  0.00     0.088 A 
ATOM      7  O   UNL d   1      33.050  22.712 -23.590  0.00  0.00    -0.242 OA
ATOM      8  C   UNL d   1      32.901  21.215 -20.666  0.00  0.00     0.003 A 
ATOM      9  C   UNL d   1      33.241  20.344 -22.035  0.00  0.00     0.019 A 
ATOM     10  C   UNL d   1      33.029  20.419 -20.605  0.00  0.00     0.000 A 
ATOM     11  C   UNL d   1      33.200  19.979 -21.296  0.00  0.00     0.002 A 
ENDROOT
BRANCH   2  12
ATOM     12  C   UNL d   1      32.634  22.841 -20.753  0.00  0.00     0.018 A 
ATOM     13  C   UNL d   1      33.238  23.206 -20.358  0.00  0.00     0.002 A 
ATOM     14  C   UNL d   1      33.064  23.652 -19.657  0.00  0.00     0.000 A 
ATOM     15  C   UNL d   1      32.299  23.701 -19.402  0.00  0.00     0.000 A 
ATOM     16  C   UNL d   1      31.685  23.334 -19.798  0.00  0.00     0.000 A 
ATOM     17  C   UNL d   1      31.859  22.889 -20.498  0.00  0.00     0.002 A 
ENDBRANCH   2  12
TORSDOF 1
ENDMDL
MODEL 8
REMARK VINA RESULT:      -1.7      6.245      7.323
REMARK  1 active torsions:
REMARK  status: ('A' for Active; 'I' for Inactive)
REMARK    1  A    between atoms: C_8  and  C_2 
ROOT
ATOM      1  N   UNL d   1      32.765  21.394 -21.247  0.00  0.00    -0.191 NA
ATOM      2  C   UNL d   1      32.777  22.193 -21.128  0.00  0.00     0.087 A 
ATOM      3  C   UNL d   1      32.912  20.883 -20.600  0.00  0.00     0.369 A 
ATOM      4  N   UNL d   1      33.069  21.182 -19.847  0.00  0.00    -0.191 NA
ATOM      5  C   UNL d   1      32.930  22.520 -20.395  0.00  0.00     0.036 A 
ATOM      6  C   UNL d   1      33.077  22.010 -19.748  0.00  0.00     0.088 A 
ATOM      7  O   UNL d   1      32.905  20.058 -20.697  0.00  0.00    -0.242 OA
ATOM      8  C   UNL d   1      32.942  23.320 -20.276  0.00  0.00     0.003 A 
ATOM      9  C   UNL d   1      33.234  22.308 -18.995  0.00  0.00     0.019 A 
ATOM     10  C   UNL d   1      33.094  23.639 -19.549  0.00  0.00     0.000 A 
ATOM     11  C   UNL d   1      33.241  23.128 -18.902  0.00  0.00     0.002 A 
ENDROOT
BRANCH   2  12
ATOM     12  C   UNL d   1      32.630  22.704 -21.775  0.00  0.00     0.018 A 
ATOM     13  C   UNL d   1      31.933  23.114 -21.803  0.00  0.00     0.002 A 
ATOM     14  C   UNL d   1      31.784  23.631 -22.458  0.00  0.00     0.000 A 
ATOM     15  C   UNL d   1      32.341  23.702 -23.039  0.00  0.00     0.000 A 
ATOM     16  C   UNL d   1      33.047  23.290 -23.015  0.00  0.00     0.000 A 
ATOM     17  C   UNL d   1      33.196  22.773 -22.360  0.00  0.00     0.002 A 
ENDBRANCH   2  12
TORSDOF 1
ENDMDL
MODEL 9
REMARK VINA RESULT:      -1.2      2.307      3.588
REMARK  1 active torsions:
REMARK  status: ('A' for Active; 'I' for Inactive)
REMARK    1  A    between atoms: C_8  and  C_2 
ROOT
ATOM      1  N   UNL d   1      32.744  18.875 -24.610  0.00  0.00    -0.191 NA
ATOM      2  C   UNL d   1      32.732  18.354 -23.991  0.00  0.00     0.087 A 
ATOM      3  C   UNL d   1      32.927  19.678 -24.463  0.00  0.00     0.369 A 
ATOM      4  N   UNL d   1      33.093  19.946 -23.701  0.00  0.00    -0.191 NA
ATOM      5  C   UNL d   1      32.892  18.588 -23.225  0.00  0.00     0.036 A 
ATOM      6  C   UNL d   1      33.074  19.392 -23.078  0.00  0.00     0.088 A 
ATOM      7  O   UNL d   1      32.945  20.232 -25.082  0.00  0.00    -0.242 OA
ATOM      8  C   UNL d   1      32.880  18.068 -22.606  0.00  0.00     0.003 A 
ATOM      9  C   UNL d   1      33.241  19.660 -22.316  0.00  0.00     0.019 A 
ATOM     10  C   UNL d   1      33.039  18.304 -21.849  0.00  0.00     0.000 A 
ATOM     11  C   UNL d   1      33.221  19.108 -21.703  0.00  0.00     0.002 A 
ENDROOT
BRANCH   2  12
ATOM     12  C   UNL d   1      32.550  17.550 -24.138  0.00  0.00     0.018 A 
ATOM     13  C   UNL d   1      33.146  17.040 -24.336  0.00  0.00     0.002 A 
ATOM     14  C   UNL d   1      32.961  16.226 -24.485  0.00  0.00     0.000 A 
ATOM     15  C   UNL d   1      32.194  15.979 -24.425  0.00  0.00     0.000 A 
ATOM     16  C   UNL d   1      31.588  16.490 -24.224  0.00  0.00     0.000 A 
ATOM     17  C   UNL d   1      31.773  17.304 -24.076  0.00  0.00     0.002 A 
ENDBRANCH   2  12
TORSDOF 1
ENDMDL
