MODEL 1
REMARK VINA RESULT:      -6.0      0.000      0.000
REMARK  4 active torsions:
REMARK  status: ('A' for Active; 'I' for Inactive)
REMARK    1  A    between atoms: N_8  and  C_1 
REMARK    2  A    between atoms: C_12  and  C_2 
REMARK    3  A    between atoms: C_4  and  C_10 
REMARK       I    between atoms: C_10  and  N_8 
REMARK       I    between atoms: C_14  and  N_11 
REMARK    4  A    between atoms: O_22  and  C_12 
ROOT
ATOM      1  C   UNL d   1     -47.488  13.125  22.724  0.00  0.00     0.119 A 
ATOM      2  C   UNL d   1     -48.154  12.686  22.921  0.00  0.00     0.088 A 
ATOM      3  C   UNL d   1     -48.484  13.977  22.965  0.00  0.00     0.049 A 
ATOM      4  C   UNL d   1     -48.773  13.217  23.071  0.00  0.00     0.016 A 
ATOM      5  S   UNL d   1     -47.695  13.929  22.752  0.00  0.00    -0.066 SA
ATOM      6  N   UNL d   1     -49.771  14.511  23.297  0.00  0.00    -0.272 N 
ATOM      7  C   UNL d   1     -48.994  14.628  23.081  0.00  0.00     0.089 A 
ATOM      8  C   UNL d   1     -50.285  15.150  23.414  0.00  0.00     0.265 C 
ATOM      9  C   UNL d   1     -49.561  13.090  23.290  0.00  0.00     0.020 A 
ATOM     10  C   UNL d   1     -50.057  13.736  23.402  0.00  0.00     0.083 A 
ATOM     11  O   UNL d   1     -50.002  15.917  23.310  0.00  0.00    -0.267 OA
ATOM     12  C   UNL d   1     -51.064  15.034  23.631  0.00  0.00     0.066 C 
ENDROOT
BRANCH   1  13
ATOM     13  N   UNL d   1     -46.738  12.821  22.530  0.00  0.00    -0.200 NA
ATOM     14  C   UNL d   1     -46.077  13.313  22.584  0.00  0.00     0.303 C 
ATOM     15  O   UNL d   1     -46.148  14.092  22.824  0.00  0.00    -0.263 OA
BRANCH  14  16
ATOM     16  C   UNL d   1     -45.334  13.013  22.392  0.00  0.00     0.169 A 
ATOM     17  N   UNL d   1     -44.955  12.363  22.749  0.00  0.00    -0.234 NA
ATOM     18  C   UNL d   1     -44.214  12.273  22.366  0.00  0.00     0.088 A 
ATOM     19  C   UNL d   1     -43.601  11.732  22.476  0.00  0.00     0.020 A 
ATOM     20  C   UNL d   1     -44.167  12.869  21.791  0.00  0.00     0.049 A 
ATOM     21  C   UNL d   1     -42.925  11.789  21.999  0.00  0.00     0.002 A 
ATOM     22  C   UNL d   1     -42.875  12.383  21.424  0.00  0.00     0.001 A 
ATOM     23  C   UNL d   1     -43.489  12.916  21.322  0.00  0.00     0.008 A 
ATOM     24  S   UNL d   1     -44.854  13.310  21.819  0.00  0.00    -0.062 SA
ENDBRANCH  14  16
ENDBRANCH   1  13
BRANCH   2  25
ATOM     25  C   UNL d   1     -48.196  11.871  22.962  0.00  0.00     0.298 C 
ATOM     26  O   UNL d   1     -48.511  11.446  22.332  0.00  0.00    -0.259 OA
BRANCH  25  27
ATOM     27  O   UNL d   1     -47.917  11.472  23.644  0.00  0.00    -0.296 OA
ATOM     28  C   UNL d   1     -47.979  10.651  23.697  0.00  0.00     0.185 C 
ENDBRANCH  25  27
ENDBRANCH   2  25
TORSDOF 4
ENDMDL
MODEL 2
REMARK VINA RESULT:      -4.7      8.405     10.553
REMARK  4 active torsions:
REMARK  status: ('A' for Active; 'I' for Inactive)
REMARK    1  A    between atoms: N_8  and  C_1 
REMARK    2  A    between atoms: C_12  and  C_2 
REMARK    3  A    between atoms: C_4  and  C_10 
REMARK       I    between atoms: C_10  and  N_8 
REMARK       I    between atoms: C_14  and  N_11 
REMARK    4  A    between atoms: O_22  and  C_12 
ROOT
ATOM      1  C   UNL d   1     -38.783  14.536  17.916  0.00  0.00     0.119 A 
ATOM      2  C   UNL d   1     -38.650  13.838  17.503  0.00  0.00     0.088 A 
ATOM      3  C   UNL d   1     -38.544  14.852  16.643  0.00  0.00     0.049 A 
ATOM      4  C   UNL d   1     -38.502  14.035  16.712  0.00  0.00     0.016 A 
ATOM      5  S   UNL d   1     -38.716  15.167  17.379  0.00  0.00    -0.066 SA
ATOM      6  N   UNL d   1     -38.251  14.749  15.245  0.00  0.00    -0.272 N 
ATOM      7  C   UNL d   1     -38.416  15.207  15.899  0.00  0.00     0.089 A 
ATOM      8  C   UNL d   1     -38.123  15.091  14.502  0.00  0.00     0.265 C 
ATOM      9  C   UNL d   1     -38.335  13.564  16.052  0.00  0.00     0.020 A 
ATOM     10  C   UNL d   1     -38.210  13.920  15.323  0.00  0.00     0.083 A 
ATOM     11  O   UNL d   1     -38.163  15.911  14.425  0.00  0.00    -0.267 OA
ATOM     12  C   UNL d   1     -37.957  14.633  13.846  0.00  0.00     0.066 C 
ENDROOT
BRANCH   1  13
ATOM     13  N   UNL d   1     -38.953  14.603  18.728  0.00  0.00    -0.200 NA
ATOM     14  C   UNL d   1     -38.756  15.299  19.126  0.00  0.00     0.303 C 
ATOM     15  O   UNL d   1     -38.397  15.922  18.736  0.00  0.00    -0.263 OA
BRANCH  14  16
ATOM     16  C   UNL d   1     -38.925  15.366  19.930  0.00  0.00     0.169 A 
ATOM     17  N   UNL d   1     -39.680  15.333  20.281  0.00  0.00    -0.234 NA
ATOM     18  C   UNL d   1     -39.566  15.428  21.108  0.00  0.00     0.088 A 
ATOM     19  C   UNL d   1     -40.100  15.444  21.737  0.00  0.00     0.020 A 
ATOM     20  C   UNL d   1     -38.751  15.514  21.229  0.00  0.00     0.049 A 
ATOM     21  C   UNL d   1     -39.809  15.548  22.506  0.00  0.00     0.002 A 
ATOM     22  C   UNL d   1     -38.995  15.634  22.632  0.00  0.00     0.001 A 
ATOM     23  C   UNL d   1     -38.473  15.617  22.001  0.00  0.00     0.008 A 
ATOM     24  S   UNL d   1     -38.375  15.474  20.506  0.00  0.00    -0.062 SA
ENDBRANCH  14  16
ENDBRANCH   1  13
BRANCH   2  25
ATOM     25  C   UNL d   1     -38.663  13.085  17.819  0.00  0.00     0.298 C 
ATOM     26  O   UNL d   1     -39.377  12.681  17.886  0.00  0.00    -0.259 OA
BRANCH  25  27
ATOM     27  O   UNL d   1     -37.949  12.727  18.073  0.00  0.00    -0.296 OA
ATOM     28  C   UNL d   1     -37.941  11.932  18.293  0.00  0.00     0.185 C 
ENDBRANCH  25  27
ENDBRANCH   2  25
TORSDOF 4
ENDMDL
MODEL 3
REMARK VINA RESULT:      -4.3      1.541      5.503
REMARK  4 active torsions:
REMARK  status: ('A' for Active; 'I' for Inactive)
REMARK    1  A    between atoms: N_8  and  C_1 
REMARK    2  A    between atoms: C_12  and  C_2 
REMARK    3  A    between atoms: C_4  and  C_10 
REMARK       I    between atoms: C_10  and  N_8 
REMARK       I    between atoms: C_14  and  N_11 
REMARK    4  A    between atoms: O_22  and  C_12 
ROOT
ATOM      1  C   UNL d   1     -46.571  12.418  22.815  0.00  0.00     0.119 A 
ATOM      2  C   UNL d   1     -45.823  12.722  22.662  0.00  0.00     0.088 A 
ATOM      3  C   UNL d   1     -45.679  11.465  23.082  0.00  0.00     0.049 A 
ATOM      4  C   UNL d   1     -45.269  12.128  22.828  0.00  0.00     0.016 A 
ATOM      5  S   UNL d   1     -46.479  11.634  23.077  0.00  0.00    -0.066 SA
ATOM      6  N   UNL d   1     -44.441  10.762  23.240  0.00  0.00    -0.272 N 
ATOM      7  C   UNL d   1     -45.254  10.776  23.288  0.00  0.00     0.089 A 
ATOM      8  C   UNL d   1     -44.010  10.084  23.442  0.00  0.00     0.265 C 
ATOM      9  C   UNL d   1     -44.442  12.121  22.776  0.00  0.00     0.020 A 
ATOM     10  C   UNL d   1     -44.032  11.440  22.981  0.00  0.00     0.083 A 
ATOM     11  O   UNL d   1     -44.414   9.413  23.698  0.00  0.00    -0.267 OA
ATOM     12  C   UNL d   1     -43.194  10.069  23.394  0.00  0.00     0.066 C 
ENDROOT
BRANCH   1  13
ATOM     13  N   UNL d   1     -47.294  12.820  22.726  0.00  0.00    -0.200 NA
ATOM     14  C   UNL d   1     -47.999  12.426  22.895  0.00  0.00     0.303 C 
ATOM     15  O   UNL d   1     -47.998  11.648  23.148  0.00  0.00    -0.263 OA
BRANCH  14  16
ATOM     16  C   UNL d   1     -48.715  12.824  22.806  0.00  0.00     0.169 A 
ATOM     17  N   UNL d   1     -49.136  12.935  22.096  0.00  0.00    -0.234 NA
ATOM     18  C   UNL d   1     -49.827  13.371  22.288  0.00  0.00     0.088 A 
ATOM     19  C   UNL d   1     -50.450  13.646  21.823  0.00  0.00     0.020 A 
ATOM     20  C   UNL d   1     -49.803  13.510  23.105  0.00  0.00     0.049 A 
ATOM     21  C   UNL d   1     -51.064  14.069  22.184  0.00  0.00     0.002 A 
ATOM     22  C   UNL d   1     -51.044  14.210  23.001  0.00  0.00     0.001 A 
ATOM     23  C   UNL d   1     -50.421  13.933  23.455  0.00  0.00     0.008 A 
ATOM     24  S   UNL d   1     -49.123  13.172  23.406  0.00  0.00    -0.062 SA
ENDBRANCH  14  16
ENDBRANCH   1  13
BRANCH   2  25
ATOM     25  C   UNL d   1     -45.658  13.476  22.394  0.00  0.00     0.298 C 
ATOM     26  O   UNL d   1     -45.542  13.608  21.591  0.00  0.00    -0.259 OA
BRANCH  25  27
ATOM     27  O   UNL d   1     -45.608  14.111  22.939  0.00  0.00    -0.296 OA
ATOM     28  C   UNL d   1     -45.718  14.887  22.681  0.00  0.00     0.185 C 
ENDBRANCH  25  27
ENDBRANCH   2  25
TORSDOF 4
ENDMDL
MODEL 4
REMARK VINA RESULT:      -3.3      1.106      5.164
REMARK  4 active torsions:
REMARK  status: ('A' for Active; 'I' for Inactive)
REMARK    1  A    between atoms: N_8  and  C_1 
REMARK    2  A    between atoms: C_12  and  C_2 
REMARK    3  A    between atoms: C_4  and  C_10 
REMARK       I    between atoms: C_10  and  N_8 
REMARK       I    between atoms: C_14  and  N_11 
REMARK    4  A    between atoms: O_22  and  C_12 
ROOT
ATOM      1  C   UNL d   1     -46.682  13.214  22.659  0.00  0.00     0.119 A 
ATOM      2  C   UNL d   1     -46.327  12.494  22.834  0.00  0.00     0.088 A 
ATOM      3  C   UNL d   1     -45.434  13.247  22.193  0.00  0.00     0.049 A 
ATOM      4  C   UNL d   1     -45.551  12.516  22.544  0.00  0.00     0.016 A 
ATOM      5  S   UNL d   1     -46.124  13.683  22.259  0.00  0.00    -0.066 SA
ATOM      6  N   UNL d   1     -44.091  12.874  21.865  0.00  0.00    -0.272 N 
ATOM      7  C   UNL d   1     -44.693  13.423  21.851  0.00  0.00     0.089 A 
ATOM      8  C   UNL d   1     -43.352  13.037  21.528  0.00  0.00     0.265 C 
ATOM      9  C   UNL d   1     -44.944  11.953  22.562  0.00  0.00     0.020 A 
ATOM     10  C   UNL d   1     -44.217  12.133  22.224  0.00  0.00     0.083 A 
ATOM     11  O   UNL d   1     -43.226  13.770  21.173  0.00  0.00    -0.267 OA
ATOM     12  C   UNL d   1     -42.747  12.488  21.542  0.00  0.00     0.066 C 
ENDROOT
BRANCH   1  13
ATOM     13  N   UNL d   1     -47.461  13.438  22.846  0.00  0.00    -0.200 NA
ATOM     14  C   UNL d   1     -47.681  14.231  22.780  0.00  0.00     0.303 C 
ATOM     15  O   UNL d   1     -47.146  14.798  22.534  0.00  0.00    -0.263 OA
BRANCH  14  16
ATOM     16  C   UNL d   1     -48.452  14.453  22.965  0.00  0.00     0.169 A 
ATOM     17  N   UNL d   1     -49.064  13.949  23.222  0.00  0.00    -0.234 NA
ATOM     18  C   UNL d   1     -49.742  14.431  23.339  0.00  0.00     0.088 A 
ATOM     19  C   UNL d   1     -50.508  14.250  23.587  0.00  0.00     0.020 A 
ATOM     20  C   UNL d   1     -49.520  15.207  23.150  0.00  0.00     0.049 A 
ATOM     21  C   UNL d   1     -51.064  14.861  23.648  0.00  0.00     0.002 A 
ATOM     22  C   UNL d   1     -50.846  15.638  23.460  0.00  0.00     0.001 A 
ATOM     23  C   UNL d   1     -50.083  15.808  23.214  0.00  0.00     0.008 A 
ATOM     24  S   UNL d   1     -48.735  15.204  22.925  0.00  0.00    -0.062 SA
ENDBRANCH  14  16
ENDBRANCH   1  13
BRANCH   2  25
ATOM     25  C   UNL d   1     -46.679  11.869  23.226  0.00  0.00     0.298 C 
ATOM     26  O   UNL d   1     -46.224  11.373  23.698  0.00  0.00    -0.259 OA
BRANCH  25  27
ATOM     27  O   UNL d   1     -47.503  11.737  23.144  0.00  0.00    -0.296 OA
ATOM     28  C   UNL d   1     -47.844  11.052  23.453  0.00  0.00     0.185 C 
ENDBRANCH  25  27
ENDBRANCH   2  25
TORSDOF 4
ENDMDL
