MODEL 1
REMARK VINA RESULT:      -3.0      0.000      0.000
REMARK  5 active torsions:
REMARK  status: ('A' for Active; 'I' for Inactive)
REMARK    1  A    between atoms: N_2  and  C_1 
REMARK       I    between atoms: N_4  and  C_5 
REMARK    2  A    between atoms: C_5  and  C_9 
REMARK    3  A    between atoms: C_18  and  N_6 
REMARK    4  A    between atoms: C_10  and  C_8 
REMARK    5  A    between atoms: C_9  and  C_10 
ROOT
ATOM      1  N   UNL d   1      33.110  20.520 -22.573  0.00  0.00    -0.269 N 
ATOM      2  C   UNL d   1      33.115  19.973 -23.212  0.00  0.00     0.265 C 
ATOM      3  N   UNL d   1      33.107  21.623 -21.351  0.00  0.00    -0.301 N 
ATOM      4  C   UNL d   1      32.991  20.273 -21.794  0.00  0.00     0.102 A 
ATOM      5  C   UNL d   1      33.227  21.323 -22.740  0.00  0.00     0.102 A 
ATOM      6  C   UNL d   1      32.990  20.817 -21.185  0.00  0.00     0.100 A 
ATOM      7  C   UNL d   1      33.227  21.887 -22.127  0.00  0.00     0.100 A 
ATOM      8  O   UNL d   1      33.235  20.237 -23.988  0.00  0.00    -0.267 OA
ENDROOT
BRANCH   2   9
ATOM      9  C   UNL d   1      32.998  19.169 -23.056  0.00  0.00     0.062 C 
BRANCH   9  10
ATOM     10  C   UNL d   1      33.084  18.598 -23.651  0.00  0.00     0.011 C 
BRANCH  10  11
ATOM     11  C   UNL d   1      32.758  17.840 -23.582  0.00  0.00     0.031 A 
ATOM     12  S   UNL d   1      32.002  17.552 -23.775  0.00  0.00    -0.064 SA
ATOM     13  C   UNL d   1      31.998  16.747 -23.582  0.00  0.00     0.156 A 
ATOM     14  C   UNL d   1      32.715  16.552 -23.286  0.00  0.00     0.031 A 
ATOM     15  C   UNL d   1      33.201  17.211 -23.276  0.00  0.00     0.009 A 
BRANCH  13  16
ATOM     16  N   UNL d   1      31.356  16.199 -23.673  0.00  0.00    -0.107 N 
ATOM     17  O   UNL d   1      30.778  16.167 -23.093  0.00  0.00    -0.531 OA
ATOM     18  O   UNL d   1      31.335  15.717 -24.345  0.00  0.00    -0.531 OA
ENDBRANCH  13  16
ENDBRANCH  10  11
ENDBRANCH   9  10
ENDBRANCH   2   9
BRANCH   3  19
ATOM     19  C   UNL d   1      33.106  22.174 -20.738  0.00  0.00     0.064 A 
ATOM     20  C   UNL d   1      33.102  21.922 -19.963  0.00  0.00     0.018 A 
ATOM     21  C   UNL d   1      33.101  22.483 -19.337  0.00  0.00     0.002 A 
ATOM     22  C   UNL d   1      33.103  23.277 -19.516  0.00  0.00     0.000 A 
ATOM     23  C   UNL d   1      33.106  23.536 -20.299  0.00  0.00     0.002 A 
ATOM     24  C   UNL d   1      33.108  22.981 -20.909  0.00  0.00     0.018 A 
ENDBRANCH   3  19
TORSDOF 5
ENDMDL
MODEL 2
REMARK VINA RESULT:      -1.9      2.293      5.646
REMARK  5 active torsions:
REMARK  status: ('A' for Active; 'I' for Inactive)
REMARK    1  A    between atoms: N_2  and  C_1 
REMARK       I    between atoms: N_4  and  C_5 
REMARK    2  A    between atoms: C_5  and  C_9 
REMARK    3  A    between atoms: C_18  and  N_6 
REMARK    4  A    between atoms: C_10  and  C_8 
REMARK    5  A    between atoms: C_9  and  C_10 
ROOT
ATOM      1  N   UNL d   1      33.020  19.923 -23.954  0.00  0.00    -0.269 N 
ATOM      2  C   UNL d   1      33.156  20.754 -23.947  0.00  0.00     0.265 C 
ATOM      3  N   UNL d   1      32.753  18.301 -24.013  0.00  0.00    -0.301 N 
ATOM      4  C   UNL d   1      32.969  19.488 -23.254  0.00  0.00     0.102 A 
ATOM      5  C   UNL d   1      32.936  19.544 -24.685  0.00  0.00     0.102 A 
ATOM      6  C   UNL d   1      32.837  18.682 -23.279  0.00  0.00     0.100 A 
ATOM      7  C   UNL d   1      32.801  18.723 -24.724  0.00  0.00     0.100 A 
ATOM      8  O   UNL d   1      33.204  21.176 -24.658  0.00  0.00    -0.267 OA
ENDROOT
BRANCH   2   9
ATOM      9  C   UNL d   1      33.241  21.142 -23.221  0.00  0.00     0.062 C 
BRANCH   9  10
ATOM     10  C   UNL d   1      33.237  21.970 -23.173  0.00  0.00     0.011 C 
BRANCH  10  11
ATOM     11  C   UNL d   1      33.145  22.367 -22.452  0.00  0.00     0.031 A 
ATOM     12  S   UNL d   1      33.058  22.077 -21.678  0.00  0.00    -0.064 SA
ATOM     13  C   UNL d   1      32.988  22.737 -21.183  0.00  0.00     0.156 A 
ATOM     14  C   UNL d   1      33.031  23.397 -21.632  0.00  0.00     0.031 A 
ATOM     15  C   UNL d   1      33.128  23.194 -22.419  0.00  0.00     0.009 A 
BRANCH  13  16
ATOM     16  N   UNL d   1      32.889  22.740 -20.340  0.00  0.00    -0.107 N 
ATOM     17  O   UNL d   1      33.199  22.120 -19.903  0.00  0.00    -0.531 OA
ATOM     18  O   UNL d   1      32.482  23.368 -19.988  0.00  0.00    -0.531 OA
ENDBRANCH  13  16
ENDBRANCH  10  11
ENDBRANCH   9  10
ENDBRANCH   2   9
BRANCH   3  19
ATOM     19  C   UNL d   1      32.619  17.488 -24.040  0.00  0.00     0.064 A 
ATOM     20  C   UNL d   1      33.122  17.005 -24.464  0.00  0.00     0.018 A 
ATOM     21  C   UNL d   1      32.986  16.176 -24.492  0.00  0.00     0.002 A 
ATOM     22  C   UNL d   1      32.349  15.865 -24.093  0.00  0.00     0.000 A 
ATOM     23  C   UNL d   1      31.838  16.349 -23.664  0.00  0.00     0.002 A 
ATOM     24  C   UNL d   1      31.976  17.162 -23.639  0.00  0.00     0.018 A 
ENDBRANCH   3  19
TORSDOF 5
ENDMDL
MODEL 3
REMARK VINA RESULT:      -1.9      2.793      5.843
REMARK  5 active torsions:
REMARK  status: ('A' for Active; 'I' for Inactive)
REMARK    1  A    between atoms: N_2  and  C_1 
REMARK       I    between atoms: N_4  and  C_5 
REMARK    2  A    between atoms: C_5  and  C_9 
REMARK    3  A    between atoms: C_18  and  N_6 
REMARK    4  A    between atoms: C_10  and  C_8 
REMARK    5  A    between atoms: C_9  and  C_10 
ROOT
ATOM      1  N   UNL d   1      33.056  21.130 -22.071  0.00  0.00    -0.269 N 
ATOM      2  C   UNL d   1      33.036  21.928 -21.801  0.00  0.00     0.265 C 
ATOM      3  N   UNL d   1      33.092  19.587 -22.640  0.00  0.00    -0.301 N 
ATOM      4  C   UNL d   1      33.105  20.497 -21.543  0.00  0.00     0.102 A 
ATOM      5  C   UNL d   1      33.025  20.989 -22.887  0.00  0.00     0.102 A 
ATOM      6  C   UNL d   1      33.123  19.730 -21.822  0.00  0.00     0.100 A 
ATOM      7  C   UNL d   1      33.043  20.211 -23.183  0.00  0.00     0.100 A 
ATOM      8  O   UNL d   1      32.987  22.552 -22.344  0.00  0.00    -0.267 OA
ENDROOT
BRANCH   2   9
ATOM      9  C   UNL d   1      33.067  22.079 -20.988  0.00  0.00     0.062 C 
BRANCH   9  10
ATOM     10  C   UNL d   1      32.570  22.643 -20.638  0.00  0.00     0.011 C 
BRANCH  10  11
ATOM     11  C   UNL d   1      32.708  22.934 -19.874  0.00  0.00     0.031 A 
ATOM     12  S   UNL d   1      32.395  22.703 -19.139  0.00  0.00    -0.064 SA
ATOM     13  C   UNL d   1      32.740  23.196 -18.570  0.00  0.00     0.156 A 
ATOM     14  C   UNL d   1      33.237  23.702 -18.937  0.00  0.00     0.031 A 
ATOM     15  C   UNL d   1      33.235  23.559 -19.744  0.00  0.00     0.009 A 
BRANCH  13  16
ATOM     16  N   UNL d   1      32.604  23.187 -17.732  0.00  0.00    -0.107 N 
ATOM     17  O   UNL d   1      33.201  22.921 -17.237  0.00  0.00    -0.531 OA
ATOM     18  O   UNL d   1      31.874  23.447 -17.442  0.00  0.00    -0.531 OA
ENDBRANCH  13  16
ENDBRANCH  10  11
ENDBRANCH   9  10
ENDBRANCH   2   9
BRANCH   3  19
ATOM     19  C   UNL d   1      33.110  18.813 -22.923  0.00  0.00     0.064 A 
ATOM     20  C   UNL d   1      33.102  18.187 -22.401  0.00  0.00     0.018 A 
ATOM     21  C   UNL d   1      33.120  17.397 -22.689  0.00  0.00     0.002 A 
ATOM     22  C   UNL d   1      33.146  17.268 -23.492  0.00  0.00     0.000 A 
ATOM     23  C   UNL d   1      33.155  17.899 -24.023  0.00  0.00     0.002 A 
ATOM     24  C   UNL d   1      33.136  18.671 -23.735  0.00  0.00     0.018 A 
ENDBRANCH   3  19
TORSDOF 5
ENDMDL
