MODEL 1
REMARK VINA RESULT:      58.3      0.000      0.000
REMARK  5 active torsions:
REMARK  status: ('A' for Active; 'I' for Inactive)
REMARK    1  A    between atoms: C_6  and  C_1 
REMARK       I    between atoms: C_7  and  N_8 
REMARK    2  A    between atoms: C_16  and  C_7 
REMARK    3  A    between atoms: N_8  and  C_14 
REMARK    4  A    between atoms: O_15  and  C_16 
REMARK    5  A    between atoms: C_21  and  O_15 
ROOT
ATOM      1  C   UNL d   1     -50.484  26.292  33.472  0.00  0.00     0.024 A 
ATOM      2  C   UNL d   1     -49.672  26.158  33.455  0.00  0.00     0.004 A 
ATOM      3  C   UNL d   1     -50.807  27.028  33.516  0.00  0.00     0.004 A 
ATOM      4  C   UNL d   1     -49.475  27.589  33.530  0.00  0.00     0.085 A 
ATOM      5  C   UNL d   1     -50.303  27.706  33.546  0.00  0.00     0.019 A 
ATOM      6  C   UNL d   1     -49.169  26.835  33.485  0.00  0.00     0.019 A 
ENDROOT
BRANCH   4   7
ATOM      7  N   UNL d   1     -48.951  28.294  33.562  0.00  0.00    -0.206 NA
ATOM      8  C   UNL d   1     -48.744  28.597  34.326  0.00  0.00     0.304 C 
ATOM      9  O   UNL d   1     -49.005  28.269  35.026  0.00  0.00    -0.263 OA
BRANCH   8  10
ATOM     10  C   UNL d   1     -48.244  29.268  34.357  0.00  0.00     0.185 C 
BRANCH  10  11
ATOM     11  O   UNL d   1     -47.647  29.296  34.916  0.00  0.00    -0.300 OA
BRANCH  11  12
ATOM     12  C   UNL d   1     -47.429  30.038  35.246  0.00  0.00     0.100 A 
ATOM     13  C   UNL d   1     -47.683  30.256  36.000  0.00  0.00     0.025 A 
ATOM     14  C   UNL d   1     -47.473  30.973  36.319  0.00  0.00     0.002 A 
ATOM     15  C   UNL d   1     -47.003  31.491  35.893  0.00  0.00     0.000 A 
ATOM     16  C   UNL d   1     -46.743  31.285  35.138  0.00  0.00     0.002 A 
ATOM     17  C   UNL d   1     -46.954  30.568  34.818  0.00  0.00     0.025 A 
ENDBRANCH  11  12
ENDBRANCH  10  11
ENDBRANCH   8  10
ENDBRANCH   4   7
BRANCH   1  18
ATOM     18  C   UNL d   1     -50.983  25.622  33.442  0.00  0.00     0.111 A 
ATOM     19  N   UNL d   1     -50.732  24.857  33.393  0.00  0.00    -0.239 NA
ATOM     20  C   UNL d   1     -51.383  24.376  33.377  0.00  0.00     0.088 A 
ATOM     21  C   UNL d   1     -51.486  23.562  33.331  0.00  0.00     0.020 A 
ATOM     22  C   UNL d   1     -52.061  24.878  33.417  0.00  0.00     0.049 A 
ATOM     23  C   UNL d   1     -52.226  23.241  33.325  0.00  0.00     0.002 A 
ATOM     24  C   UNL d   1     -52.904  23.744  33.366  0.00  0.00     0.001 A 
ATOM     25  C   UNL d   1     -52.826  24.555  33.412  0.00  0.00     0.008 A 
ATOM     26  C   UNL d   1     -53.670  23.420  33.361  0.00  0.00     0.000 C 
ATOM     27  S   UNL d   1     -51.803  25.650  33.458  0.00  0.00    -0.066 SA
ENDBRANCH   1  18
TORSDOF 5
ENDMDL
