MODEL 1
REMARK VINA RESULT:      -2.8      0.000      0.000
REMARK  6 active torsions:
REMARK  status: ('A' for Active; 'I' for Inactive)
REMARK       I    between atoms: N_2  and  C_1 
REMARK    1  A    between atoms: C_5  and  C_1 
REMARK    2  A    between atoms: C_3  and  N_2 
REMARK    3  A    between atoms: O_14  and  C_10 
REMARK    4  A    between atoms: C_18  and  O_14 
REMARK    5  A    between atoms: C_19  and  C_18 
REMARK    6  A    between atoms: C_20  and  C_19 
ROOT
ATOM      1  C   UNL d   1      59.320   0.050  29.374  0.00  0.00     0.058 A 
ATOM      2  C   UNL d   1      59.532   0.021  30.171  0.00  0.00     0.007 A 
ATOM      3  C   UNL d   1      58.542   0.133  29.166  0.00  0.00     0.007 A 
ATOM      4  C   UNL d   1      58.164   0.160  30.556  0.00  0.00     0.100 A 
ATOM      5  C   UNL d   1      58.951   0.076  30.750  0.00  0.00     0.025 A 
ATOM      6  C   UNL d   1      57.962   0.188  29.731  0.00  0.00     0.025 A 
ENDROOT
BRANCH   1   7
ATOM      7  C   UNL d   1      59.925  -0.008  28.802  0.00  0.00     0.281 C 
ATOM      8  N   UNL d   1      60.125  -0.731  28.462  0.00  0.00    -0.189 NA
ATOM      9  O   UNL d   1      60.328   0.671  28.577  0.00  0.00    -0.265 OA
BRANCH   8  10
ATOM     10  C   UNL d   1      59.712  -1.427  28.693  0.00  0.00     0.166 A 
ATOM     11  N   UNL d   1      60.119  -1.962  29.182  0.00  0.00    -0.227 NA
ATOM     12  C   UNL d   1      59.749  -2.636  29.418  0.00  0.00     0.083 A 
ATOM     13  C   UNL d   1      60.112  -3.239  29.927  0.00  0.00     0.021 C 
ATOM     14  C   UNL d   1      58.959  -2.778  29.163  0.00  0.00     0.019 A 
ATOM     15  C   UNL d   1      58.572  -2.229  28.676  0.00  0.00     0.005 A 
ATOM     16  C   UNL d   1      58.970  -1.566  28.457  0.00  0.00     0.039 A 
ENDBRANCH   8  10
ENDBRANCH   1   7
BRANCH   4  17
ATOM     17  O   UNL d   1      57.574   0.216  31.137  0.00  0.00    -0.305 OA
BRANCH  17  18
ATOM     18  C   UNL d   1      57.345  -0.439  31.580  0.00  0.00     0.123 C 
BRANCH  18  19
ATOM     19  C   UNL d   1      56.690  -0.383  32.074  0.00  0.00     0.027 C 
BRANCH  19  20
ATOM     20  C   UNL d   1      56.300  -1.093  32.293  0.00  0.00     0.002 C 
ATOM     21  C   UNL d   1      56.058  -1.210  33.075  0.00  0.00     0.000 C 
ENDBRANCH  19  20
ENDBRANCH  18  19
ENDBRANCH  17  18
ENDBRANCH   4  17
TORSDOF 6
ENDMDL
MODEL 2
REMARK VINA RESULT:      -2.0      1.299      1.896
REMARK  6 active torsions:
REMARK  status: ('A' for Active; 'I' for Inactive)
REMARK       I    between atoms: N_2  and  C_1 
REMARK    1  A    between atoms: C_5  and  C_1 
REMARK    2  A    between atoms: C_3  and  N_2 
REMARK    3  A    between atoms: O_14  and  C_10 
REMARK    4  A    between atoms: C_18  and  O_14 
REMARK    5  A    between atoms: C_19  and  C_18 
REMARK    6  A    between atoms: C_20  and  C_19 
ROOT
ATOM      1  C   UNL d   1      57.911   0.098  29.754  0.00  0.00     0.058 A 
ATOM      2  C   UNL d   1      57.833   0.682  30.333  0.00  0.00     0.007 A 
ATOM      3  C   UNL d   1      57.772  -0.677  29.942  0.00  0.00     0.007 A 
ATOM      4  C   UNL d   1      57.473  -0.304  31.302  0.00  0.00     0.100 A 
ATOM      5  C   UNL d   1      57.616   0.472  31.098  0.00  0.00     0.025 A 
ATOM      6  C   UNL d   1      57.557  -0.893  30.695  0.00  0.00     0.025 A 
ENDROOT
BRANCH   1   7
ATOM      7  C   UNL d   1      58.132   0.332  28.985  0.00  0.00     0.281 C 
ATOM      8  N   UNL d   1      58.920   0.326  28.746  0.00  0.00    -0.189 NA
ATOM      9  O   UNL d   1      57.551   0.573  28.458  0.00  0.00    -0.265 OA
BRANCH   8  10
ATOM     10  C   UNL d   1      59.516   0.079  29.286  0.00  0.00     0.166 A 
ATOM     11  N   UNL d   1      59.834  -0.681  29.176  0.00  0.00    -0.227 NA
ATOM     12  C   UNL d   1      60.405  -0.943  29.678  0.00  0.00     0.083 A 
ATOM     13  C   UNL d   1      60.781  -1.724  29.622  0.00  0.00     0.021 C 
ATOM     14  C   UNL d   1      60.664  -0.438  30.300  0.00  0.00     0.019 A 
ATOM     15  C   UNL d   1      60.332   0.317  30.391  0.00  0.00     0.005 A 
ATOM     16  C   UNL d   1      59.763   0.549  29.873  0.00  0.00     0.039 A 
ENDBRANCH   8  10
ENDBRANCH   1   7
BRANCH   4  17
ATOM     17  O   UNL d   1      57.254  -0.520  32.072  0.00  0.00    -0.305 OA
BRANCH  17  18
ATOM     18  C   UNL d   1      56.470  -0.485  32.320  0.00  0.00     0.123 C 
BRANCH  18  19
ATOM     19  C   UNL d   1      56.301  -0.490  33.125  0.00  0.00     0.027 C 
BRANCH  19  20
ATOM     20  C   UNL d   1      55.519  -0.301  33.365  0.00  0.00     0.002 C 
ATOM     21  C   UNL d   1      55.295  -0.384  34.156  0.00  0.00     0.000 C 
ENDBRANCH  19  20
ENDBRANCH  18  19
ENDBRANCH  17  18
ENDBRANCH   4  17
TORSDOF 6
ENDMDL
