MODEL 1
REMARK VINA RESULT:     -10.5      0.000      0.000
REMARK  5 active torsions:
REMARK  status: ('A' for Active; 'I' for Inactive)
REMARK    1  A    between atoms: N_2  and  C_14 
REMARK    2  A    between atoms: C_17  and  N_4 
REMARK    3  A    between atoms: C_15  and  C_9 
REMARK    4  A    between atoms: C_14  and  O_16 
REMARK    5  A    between atoms: O_16  and  C_15 
ROOT
ATOM      1  C   UNL d   1      52.930  32.898  53.367  0.00  0.00     0.114 A 
ATOM      2  C   UNL d   1      52.507  32.300  52.988  0.00  0.00     0.044 A 
ATOM      3  N   UNL d   1      53.513  32.541  53.822  0.00  0.00    -0.224 N 
ATOM      4  N   UNL d   1      53.454  31.730  53.729  0.00  0.00    -0.165 NA
ATOM      5  S   UNL d   1      52.609  33.608  53.146  0.00  0.00    -0.062 SA
ATOM      6  C   UNL d   1      51.985  33.467  52.629  0.00  0.00     0.094 A 
ATOM      7  C   UNL d   1      51.929  32.647  52.536  0.00  0.00     0.015 A 
ATOM      8  C   UNL d   1      52.838  31.573  53.216  0.00  0.00     0.103 A 
ATOM      9  C   UNL d   1      52.585  30.835  52.968  0.00  0.00     0.022 C 
ENDROOT
BRANCH   6  10
ATOM     10  C   UNL d   1      51.509  34.034  52.273  0.00  0.00     0.307 C 
ATOM     11  O   UNL d   1      51.749  34.389  51.564  0.00  0.00    -0.258 OA
BRANCH  10  12
ATOM     12  O   UNL d   1      50.790  34.250  52.619  0.00  0.00    -0.252 OA
BRANCH  12  13
ATOM     13  C   UNL d   1      50.083  34.153  52.199  0.00  0.00     0.216 C 
BRANCH  13  14
ATOM     14  N   UNL d   1      49.452  34.671  52.328  0.00  0.00    -0.218 N 
ATOM     15  C   UNL d   1      49.289  35.065  53.028  0.00  0.00     0.269 A 
ATOM     16  C   UNL d   1      48.610  35.524  52.915  0.00  0.00     0.061 A 
ATOM     17  O   UNL d   1      49.726  35.015  53.731  0.00  0.00    -0.267 OA
ATOM     18  C   UNL d   1      48.191  36.029  53.412  0.00  0.00     0.005 A 
ATOM     19  C   UNL d   1      48.356  35.409  52.137  0.00  0.00     0.061 A 
ATOM     20  C   UNL d   1      47.523  36.417  53.138  0.00  0.00     0.000 A 
ATOM     21  C   UNL d   1      47.269  36.302  52.359  0.00  0.00     0.000 A 
ATOM     22  C   UNL d   1      47.683  35.798  51.855  0.00  0.00     0.005 A 
ATOM     23  C   UNL d   1      48.878  34.878  51.766  0.00  0.00     0.269 A 
ATOM     24  O   UNL d   1      48.833  34.609  50.991  0.00  0.00    -0.267 OA
ENDBRANCH  13  14
ENDBRANCH  12  13
ENDBRANCH  10  12
ENDBRANCH   6  10
BRANCH   3  25
ATOM     25  C   UNL d   1      54.064  32.934  54.294  0.00  0.00     0.083 A 
ATOM     26  C   UNL d   1      54.762  33.206  53.960  0.00  0.00     0.019 A 
ATOM     27  C   UNL d   1      55.313  33.599  54.432  0.00  0.00     0.002 A 
ATOM     28  C   UNL d   1      55.165  33.719  55.237  0.00  0.00     0.000 A 
ATOM     29  C   UNL d   1      54.455  33.441  55.570  0.00  0.00     0.002 A 
ATOM     30  C   UNL d   1      53.905  33.050  55.103  0.00  0.00     0.019 A 
ENDBRANCH   3  25
TORSDOF 5
ENDMDL
MODEL 2
REMARK VINA RESULT:     -10.0      1.134      2.070
REMARK  5 active torsions:
REMARK  status: ('A' for Active; 'I' for Inactive)
REMARK    1  A    between atoms: N_2  and  C_14 
REMARK    2  A    between atoms: C_17  and  N_4 
REMARK    3  A    between atoms: C_15  and  C_9 
REMARK    4  A    between atoms: C_14  and  O_16 
REMARK    5  A    between atoms: O_16  and  C_15 
ROOT
ATOM      1  C   UNL d   1      52.561  33.772  53.409  0.00  0.00     0.114 A 
ATOM      2  C   UNL d   1      52.475  34.562  53.629  0.00  0.00     0.044 A 
ATOM      3  N   UNL d   1      53.193  33.461  53.830  0.00  0.00    -0.224 N 
ATOM      4  N   UNL d   1      53.500  34.051  54.308  0.00  0.00    -0.165 NA
ATOM      5  S   UNL d   1      51.988  33.604  52.861  0.00  0.00    -0.062 SA
ATOM      6  C   UNL d   1      51.539  34.280  52.731  0.00  0.00     0.094 A 
ATOM      7  C   UNL d   1      51.851  34.874  53.215  0.00  0.00     0.015 A 
ATOM      8  C   UNL d   1      53.063  34.732  54.191  0.00  0.00     0.103 A 
ATOM      9  C   UNL d   1      53.179  35.455  54.557  0.00  0.00     0.022 C 
ENDROOT
BRANCH   6  10
ATOM     10  C   UNL d   1      50.902  34.352  52.217  0.00  0.00     0.307 C 
ATOM     11  O   UNL d   1      50.935  34.003  51.467  0.00  0.00    -0.258 OA
BRANCH  10  12
ATOM     12  O   UNL d   1      50.228  34.772  52.448  0.00  0.00    -0.252 OA
BRANCH  12  13
ATOM     13  C   UNL d   1      49.476  34.452  52.313  0.00  0.00     0.216 C 
BRANCH  13  14
ATOM     14  N   UNL d   1      48.814  34.948  52.296  0.00  0.00    -0.218 N 
ATOM     15  C   UNL d   1      48.268  34.999  51.688  0.00  0.00     0.269 A 
ATOM     16  C   UNL d   1      47.697  35.560  51.897  0.00  0.00     0.061 A 
ATOM     17  O   UNL d   1      48.280  34.565  50.981  0.00  0.00    -0.267 OA
ATOM     18  C   UNL d   1      47.026  35.842  51.514  0.00  0.00     0.005 A 
ATOM     19  C   UNL d   1      47.899  35.855  52.643  0.00  0.00     0.061 A 
ATOM     20  C   UNL d   1      46.558  36.414  51.868  0.00  0.00     0.000 A 
ATOM     21  C   UNL d   1      46.759  36.708  52.614  0.00  0.00     0.000 A 
ATOM     22  C   UNL d   1      47.430  36.432  53.006  0.00  0.00     0.005 A 
ATOM     23  C   UNL d   1      48.595  35.476  52.896  0.00  0.00     0.269 A 
ATOM     24  O   UNL d   1      48.989  35.602  53.606  0.00  0.00    -0.267 OA
ENDBRANCH  13  14
ENDBRANCH  12  13
ENDBRANCH  10  12
ENDBRANCH   6  10
BRANCH   3  25
ATOM     25  C   UNL d   1      53.473  32.687  53.780  0.00  0.00     0.083 A 
ATOM     26  C   UNL d   1      53.087  32.090  54.192  0.00  0.00     0.019 A 
ATOM     27  C   UNL d   1      53.366  31.316  54.142  0.00  0.00     0.002 A 
ATOM     28  C   UNL d   1      54.031  31.138  53.681  0.00  0.00     0.000 A 
ATOM     29  C   UNL d   1      54.416  31.747  53.266  0.00  0.00     0.002 A 
ATOM     30  C   UNL d   1      54.140  32.519  53.314  0.00  0.00     0.019 A 
ENDBRANCH   3  25
TORSDOF 5
ENDMDL
MODEL 3
REMARK VINA RESULT:      -9.7      1.749      6.347
REMARK  5 active torsions:
REMARK  status: ('A' for Active; 'I' for Inactive)
REMARK    1  A    between atoms: N_2  and  C_14 
REMARK    2  A    between atoms: C_17  and  N_4 
REMARK    3  A    between atoms: C_15  and  C_9 
REMARK    4  A    between atoms: C_14  and  O_16 
REMARK    5  A    between atoms: O_16  and  C_15 
ROOT
ATOM      1  C   UNL d   1      47.614  35.665  52.761  0.00  0.00     0.114 A 
ATOM      2  C   UNL d   1      48.090  35.899  53.393  0.00  0.00     0.044 A 
ATOM      3  N   UNL d   1      46.866  35.982  52.881  0.00  0.00    -0.224 N 
ATOM      4  N   UNL d   1      46.875  36.409  53.579  0.00  0.00    -0.165 NA
ATOM      5  S   UNL d   1      48.066  35.212  52.265  0.00  0.00    -0.062 SA
ATOM      6  C   UNL d   1      48.825  35.156  52.574  0.00  0.00     0.094 A 
ATOM      7  C   UNL d   1      48.831  35.588  53.280  0.00  0.00     0.015 A 
ATOM      8  C   UNL d   1      47.624  36.363  53.901  0.00  0.00     0.103 A 
ATOM      9  C   UNL d   1      47.878  36.709  54.598  0.00  0.00     0.022 C 
ENDROOT
BRANCH   6  10
ATOM     10  C   UNL d   1      49.458  34.748  52.246  0.00  0.00     0.307 C 
ATOM     11  O   UNL d   1      49.427  34.506  51.454  0.00  0.00    -0.258 OA
BRANCH  10  12
ATOM     12  O   UNL d   1      50.125  34.578  52.704  0.00  0.00    -0.252 OA
BRANCH  12  13
ATOM     13  C   UNL d   1      50.753  34.148  52.375  0.00  0.00     0.216 C 
BRANCH  13  14
ATOM     14  N   UNL d   1      51.418  33.973  52.834  0.00  0.00    -0.218 N 
ATOM     15  C   UNL d   1      51.541  33.283  53.258  0.00  0.00     0.269 A 
ATOM     16  C   UNL d   1      52.274  33.338  53.637  0.00  0.00     0.061 A 
ATOM     17  O   UNL d   1      51.023  32.637  53.303  0.00  0.00    -0.267 OA
ATOM     18  C   UNL d   1      52.686  32.824  54.130  0.00  0.00     0.005 A 
ATOM     19  C   UNL d   1      52.602  34.071  53.442  0.00  0.00     0.061 A 
ATOM     20  C   UNL d   1      53.420  33.037  54.428  0.00  0.00     0.000 A 
ATOM     21  C   UNL d   1      53.747  33.770  54.232  0.00  0.00     0.000 A 
ATOM     22  C   UNL d   1      53.342  34.291  53.739  0.00  0.00     0.005 A 
ATOM     23  C   UNL d   1      52.072  34.472  52.941  0.00  0.00     0.269 A 
ATOM     24  O   UNL d   1      52.176  35.218  52.615  0.00  0.00    -0.267 OA
ENDBRANCH  13  14
ENDBRANCH  12  13
ENDBRANCH  10  12
ENDBRANCH   6  10
BRANCH   3  25
ATOM     25  C   UNL d   1      46.216  35.886  52.382  0.00  0.00     0.083 A 
ATOM     26  C   UNL d   1      46.139  36.366  51.720  0.00  0.00     0.019 A 
ATOM     27  C   UNL d   1      45.490  36.270  51.221  0.00  0.00     0.002 A 
ATOM     28  C   UNL d   1      44.917  35.695  51.384  0.00  0.00     0.000 A 
ATOM     29  C   UNL d   1      45.001  35.212  52.056  0.00  0.00     0.002 A 
ATOM     30  C   UNL d   1      45.647  35.305  52.555  0.00  0.00     0.019 A 
ENDBRANCH   3  25
TORSDOF 5
ENDMDL
MODEL 4
REMARK VINA RESULT:      -8.2      1.507      2.201
REMARK  5 active torsions:
REMARK  status: ('A' for Active; 'I' for Inactive)
REMARK    1  A    between atoms: N_2  and  C_14 
REMARK    2  A    between atoms: C_17  and  N_4 
REMARK    3  A    between atoms: C_15  and  C_9 
REMARK    4  A    between atoms: C_14  and  O_16 
REMARK    5  A    between atoms: O_16  and  C_15 
ROOT
ATOM      1  C   UNL d   1      51.523  33.961  53.190  0.00  0.00     0.114 A 
ATOM      2  C   UNL d   1      51.232  33.236  52.927  0.00  0.00     0.044 A 
ATOM      3  N   UNL d   1      52.226  33.819  53.590  0.00  0.00    -0.224 N 
ATOM      4  N   UNL d   1      52.372  33.013  53.578  0.00  0.00    -0.165 NA
ATOM      5  S   UNL d   1      51.006  34.537  52.953  0.00  0.00    -0.062 SA
ATOM      6  C   UNL d   1      50.387  34.185  52.541  0.00  0.00     0.094 A 
ATOM      7  C   UNL d   1      50.538  33.370  52.530  0.00  0.00     0.015 A 
ATOM      8  C   UNL d   1      51.765  32.647  53.171  0.00  0.00     0.103 A 
ATOM      9  C   UNL d   1      51.689  31.845  53.027  0.00  0.00     0.022 C 
ENDROOT
BRANCH   6  10
ATOM     10  C   UNL d   1      49.743  34.567  52.205  0.00  0.00     0.307 C 
ATOM     11  O   UNL d   1      49.666  34.600  51.381  0.00  0.00    -0.258 OA
BRANCH  10  12
ATOM     12  O   UNL d   1      49.171  34.920  52.687  0.00  0.00    -0.252 OA
BRANCH  12  13
ATOM     13  C   UNL d   1      48.661  35.491  52.372  0.00  0.00     0.216 C 
BRANCH  13  14
ATOM     14  N   UNL d   1      47.996  35.732  52.800  0.00  0.00    -0.218 N 
ATOM     15  C   UNL d   1      47.217  35.565  52.612  0.00  0.00     0.269 A 
ATOM     16  C   UNL d   1      46.731  35.910  53.186  0.00  0.00     0.061 A 
ATOM     17  O   UNL d   1      46.954  35.125  51.960  0.00  0.00    -0.267 OA
ATOM     18  C   UNL d   1      45.914  35.929  53.287  0.00  0.00     0.005 A 
ATOM     19  C   UNL d   1      47.221  36.293  53.731  0.00  0.00     0.061 A 
ATOM     20  C   UNL d   1      45.586  36.325  53.925  0.00  0.00     0.000 A 
ATOM     21  C   UNL d   1      46.077  36.708  54.469  0.00  0.00     0.000 A 
ATOM     22  C   UNL d   1      46.895  36.695  54.376  0.00  0.00     0.005 A 
ATOM     23  C   UNL d   1      48.011  36.185  53.495  0.00  0.00     0.269 A 
ATOM     24  O   UNL d   1      48.679  36.473  53.877  0.00  0.00    -0.267 OA
ENDBRANCH  13  14
ENDBRANCH  12  13
ENDBRANCH  10  12
ENDBRANCH   6  10
BRANCH   3  25
ATOM     25  C   UNL d   1      52.703  34.390  53.945  0.00  0.00     0.083 A 
ATOM     26  C   UNL d   1      52.800  34.387  54.761  0.00  0.00     0.019 A 
ATOM     27  C   UNL d   1      53.277  34.959  55.115  0.00  0.00     0.002 A 
ATOM     28  C   UNL d   1      53.658  35.533  54.655  0.00  0.00     0.000 A 
ATOM     29  C   UNL d   1      53.555  35.530  53.830  0.00  0.00     0.002 A 
ATOM     30  C   UNL d   1      53.081  34.962  53.474  0.00  0.00     0.019 A 
ENDBRANCH   3  25
TORSDOF 5
ENDMDL
