MODEL 1
REMARK VINA RESULT:      40.1      0.000      0.000
REMARK  5 active torsions:
REMARK  status: ('A' for Active; 'I' for Inactive)
REMARK    1  A    between atoms: C_11  and  N_1 
REMARK    2  A    between atoms: S_14  and  C_2 
REMARK    3  A    between atoms: C_12  and  C_3 
REMARK    4  A    between atoms: C_8  and  C_12 
REMARK    5  A    between atoms: C_20  and  S_14 
ROOT
ATOM      1  N   UNL d   1      14.171  13.367  -2.200  0.00  0.00    -0.269 N 
ATOM      2  C   UNL d   1      14.394  13.003  -1.510  0.00  0.00     0.201 A 
ATOM      3  C   UNL d   1      14.390  14.157  -2.145  0.00  0.00     0.172 A 
ATOM      4  N   UNL d   1      14.748  13.544  -1.021  0.00  0.00    -0.121 NA
ATOM      5  N   UNL d   1      14.747  14.266  -1.417  0.00  0.00    -0.128 NA
ENDROOT
BRANCH   3   6
ATOM      6  C   UNL d   1      14.237  14.665  -2.759  0.00  0.00     0.059 C 
BRANCH   6   7
ATOM      7  C   UNL d   1      14.540  15.428  -2.739  0.00  0.00     0.094 A 
ATOM      8  C   UNL d   1      14.651  15.808  -2.020  0.00  0.00     0.082 A 
ATOM      9  C   UNL d   1      14.955  16.575  -2.003  0.00  0.00     0.285 A 
ATOM     10  O   UNL d   1      15.071  16.968  -1.267  0.00  0.00    -0.265 OA
ATOM     11  N   UNL d   1      15.146  16.954  -2.720  0.00  0.00    -0.152 NA
ATOM     12  C   UNL d   1      15.034  16.574  -3.433  0.00  0.00     0.371 A 
ATOM     13  N   UNL d   1      14.727  15.802  -3.443  0.00  0.00    -0.191 NA
ATOM     14  O   UNL d   1      15.226  16.959  -4.137  0.00  0.00    -0.242 OA
ENDBRANCH   6   7
ENDBRANCH   3   6
BRANCH   1  15
ATOM     15  C   UNL d   1      13.797  12.984  -2.820  0.00  0.00     0.067 A 
ATOM     16  C   UNL d   1      13.486  13.426  -3.447  0.00  0.00     0.018 A 
ATOM     17  C   UNL d   1      13.106  13.038  -4.078  0.00  0.00     0.001 A 
ATOM     18  C   UNL d   1      12.790  13.485  -4.715  0.00  0.00     0.000 C 
ATOM     19  C   UNL d   1      13.042  12.217  -4.071  0.00  0.00     0.000 A 
ATOM     20  C   UNL d   1      13.354  11.781  -3.443  0.00  0.00     0.002 A 
ATOM     21  C   UNL d   1      13.731  12.165  -2.819  0.00  0.00     0.018 A 
ENDBRANCH   1  15
BRANCH   2  22
ATOM     22  S   UNL d   1      14.272  12.188  -1.336  0.00  0.00    -0.048 SA
BRANCH  22  23
ATOM     23  C   UNL d   1      14.330  11.924  -0.547  0.00  0.00     0.032 C 
ATOM     24  C   UNL d   1      15.075  11.780  -0.215  0.00  0.00     0.007 C 
ATOM     25  C   UNL d   1      13.642  11.809  -0.105  0.00  0.00     0.007 C 
ENDBRANCH  22  23
ENDBRANCH   2  22
TORSDOF 5
ENDMDL
MODEL 2
REMARK VINA RESULT:      41.6      2.039      3.758
REMARK  5 active torsions:
REMARK  status: ('A' for Active; 'I' for Inactive)
REMARK    1  A    between atoms: C_11  and  N_1 
REMARK    2  A    between atoms: S_14  and  C_2 
REMARK    3  A    between atoms: C_12  and  C_3 
REMARK    4  A    between atoms: C_8  and  C_12 
REMARK    5  A    between atoms: C_20  and  S_14 
ROOT
ATOM      1  N   UNL d   1      14.127  14.160  -2.973  0.00  0.00    -0.269 N 
ATOM      2  C   UNL d   1      14.404  14.916  -2.876  0.00  0.00     0.201 A 
ATOM      3  C   UNL d   1      14.381  13.718  -2.328  0.00  0.00     0.172 A 
ATOM      4  N   UNL d   1      14.826  14.963  -2.184  0.00  0.00    -0.121 NA
ATOM      5  N   UNL d   1      14.813  14.214  -1.841  0.00  0.00    -0.128 NA
ENDROOT
BRANCH   3   6
ATOM      6  C   UNL d   1      14.187  12.932  -2.272  0.00  0.00     0.059 C 
BRANCH   6   7
ATOM      7  C   UNL d   1      14.216  12.559  -1.540  0.00  0.00     0.094 A 
ATOM      8  C   UNL d   1      13.521  12.360  -1.152  0.00  0.00     0.082 A 
ATOM      9  C   UNL d   1      13.554  11.986  -0.418  0.00  0.00     0.285 A 
ATOM     10  O   UNL d   1      12.843  11.780  -0.015  0.00  0.00    -0.265 OA
ATOM     11  N   UNL d   1      14.296  11.815  -0.080  0.00  0.00    -0.152 NA
ATOM     12  C   UNL d   1      14.984  12.013  -0.469  0.00  0.00     0.371 A 
ATOM     13  N   UNL d   1      14.945  12.390  -1.208  0.00  0.00    -0.191 NA
ATOM     14  O   UNL d   1      15.715  11.838  -0.124  0.00  0.00    -0.242 OA
ENDBRANCH   6   7
ENDBRANCH   3   6
BRANCH   1  15
ATOM     15  C   UNL d   1      13.678  13.915  -3.613  0.00  0.00     0.067 A 
ATOM     16  C   UNL d   1      13.685  13.118  -3.838  0.00  0.00     0.018 A 
ATOM     17  C   UNL d   1      13.228  12.868  -4.488  0.00  0.00     0.001 A 
ATOM     18  C   UNL d   1      13.234  12.060  -4.717  0.00  0.00     0.000 C 
ATOM     19  C   UNL d   1      12.774  13.417  -4.901  0.00  0.00     0.000 A 
ATOM     20  C   UNL d   1      12.772  14.211  -4.672  0.00  0.00     0.002 A 
ATOM     21  C   UNL d   1      13.223  14.458  -4.029  0.00  0.00     0.018 A 
ENDBRANCH   1  15
BRANCH   2  22
ATOM     22  S   UNL d   1      14.268  15.550  -3.414  0.00  0.00    -0.048 SA
BRANCH  22  23
ATOM     23  C   UNL d   1      14.818  16.176  -3.456  0.00  0.00     0.032 C 
ATOM     24  C   UNL d   1      14.795  16.782  -2.892  0.00  0.00     0.007 C 
ATOM     25  C   UNL d   1      15.380  16.184  -4.061  0.00  0.00     0.007 C 
ENDBRANCH  22  23
ENDBRANCH   2  22
TORSDOF 5
ENDMDL
MODEL 3
REMARK VINA RESULT:      42.0      1.819      3.550
REMARK  5 active torsions:
REMARK  status: ('A' for Active; 'I' for Inactive)
REMARK    1  A    between atoms: C_11  and  N_1 
REMARK    2  A    between atoms: S_14  and  C_2 
REMARK    3  A    between atoms: C_12  and  C_3 
REMARK    4  A    between atoms: C_8  and  C_12 
REMARK    5  A    between atoms: C_20  and  S_14 
ROOT
ATOM      1  N   UNL d   1      14.420  13.960  -1.733  0.00  0.00    -0.269 N 
ATOM      2  C   UNL d   1      14.674  14.715  -1.581  0.00  0.00     0.201 A 
ATOM      3  C   UNL d   1      14.079  13.959  -2.480  0.00  0.00     0.172 A 
ATOM      4  N   UNL d   1      14.501  15.192  -2.214  0.00  0.00    -0.121 NA
ATOM      5  N   UNL d   1      14.128  14.720  -2.777  0.00  0.00    -0.128 NA
ENDROOT
BRANCH   3   6
ATOM      6  C   UNL d   1      13.771  13.273  -2.786  0.00  0.00     0.059 C 
BRANCH   6   7
ATOM      7  C   UNL d   1      13.582  13.234  -3.584  0.00  0.00     0.094 A 
ATOM      8  C   UNL d   1      13.276  13.892  -3.967  0.00  0.00     0.082 A 
ATOM      9  C   UNL d   1      13.087  13.850  -4.769  0.00  0.00     0.285 A 
ATOM     10  O   UNL d   1      12.772  14.523  -5.167  0.00  0.00    -0.265 OA
ATOM     11  N   UNL d   1      13.211  13.135  -5.180  0.00  0.00    -0.152 NA
ATOM     12  C   UNL d   1      13.515  12.484  -4.796  0.00  0.00     0.371 A 
ATOM     13  N   UNL d   1      13.704  12.533  -3.989  0.00  0.00    -0.191 NA
ATOM     14  O   UNL d   1      13.634  11.781  -5.214  0.00  0.00    -0.242 OA
ENDBRANCH   6   7
ENDBRANCH   3   6
BRANCH   1  15
ATOM     15  C   UNL d   1      14.506  13.334  -1.211  0.00  0.00     0.067 A 
ATOM     16  C   UNL d   1      13.842  12.893  -0.988  0.00  0.00     0.018 A 
ATOM     17  C   UNL d   1      13.929  12.256  -0.458  0.00  0.00     0.001 A 
ATOM     18  C   UNL d   1      13.256  11.808  -0.230  0.00  0.00     0.000 C 
ATOM     19  C   UNL d   1      14.674  12.072  -0.161  0.00  0.00     0.000 A 
ATOM     20  C   UNL d   1      15.333  12.516  -0.388  0.00  0.00     0.002 A 
ATOM     21  C   UNL d   1      15.247  13.146  -0.912  0.00  0.00     0.018 A 
ENDBRANCH   1  15
BRANCH   2  22
ATOM     22  S   UNL d   1      15.058  14.959  -0.872  0.00  0.00    -0.048 SA
BRANCH  22  23
ATOM     23  C   UNL d   1      15.313  15.750  -0.795  0.00  0.00     0.032 C 
ATOM     24  C   UNL d   1      15.099  16.309  -1.367  0.00  0.00     0.007 C 
ATOM     25  C   UNL d   1      15.778  15.967  -0.148  0.00  0.00     0.007 C 
ENDBRANCH  22  23
ENDBRANCH   2  22
TORSDOF 5
ENDMDL
