MODEL 1
REMARK VINA RESULT:      -7.8      0.000      0.000
REMARK  4 active torsions:
REMARK  status: ('A' for Active; 'I' for Inactive)
REMARK    1  A    between atoms: C_6  and  N_3 
REMARK    2  A    between atoms: C_13  and  N_4 
REMARK    3  A    between atoms: C_5  and  C_6 
REMARK       I    between atoms: N_10  and  C_5 
REMARK    4  A    between atoms: C_14  and  N_10 
ROOT
ATOM      1  C   UNL d   1      54.373  33.465  54.349  0.00  0.00     0.322 A 
ATOM      2  C   UNL d   1      54.117  34.144  54.741  0.00  0.00     0.322 A 
ATOM      3  N   UNL d   1      53.898  33.111  53.781  0.00  0.00    -0.262 N 
ATOM      4  N   UNL d   1      53.385  34.471  54.565  0.00  0.00    -0.267 N 
ATOM      5  C   UNL d   1      53.162  33.438  53.603  0.00  0.00     0.102 A 
ATOM      6  O   UNL d   1      55.111  33.138  54.529  0.00  0.00    -0.261 OA
ATOM      7  O   UNL d   1      54.599  34.497  55.313  0.00  0.00    -0.261 OA
ATOM      8  C   UNL d   1      52.906  34.118  53.995  0.00  0.00     0.102 A 
ENDROOT
BRANCH   3   9
ATOM      9  C   UNL d   1      54.152  32.435  53.391  0.00  0.00     0.146 C 
BRANCH   9  10
ATOM     10  C   UNL d   1      53.668  31.775  53.369  0.00  0.00     0.297 C 
ATOM     11  N   UNL d   1      53.944  31.040  53.597  0.00  0.00    -0.207 NA
ATOM     12  O   UNL d   1      52.888  31.859  53.111  0.00  0.00    -0.264 OA
BRANCH  11  13
ATOM     13  C   UNL d   1      53.451  30.380  53.572  0.00  0.00     0.085 A 
ATOM     14  C   UNL d   1      53.011  30.128  52.928  0.00  0.00     0.019 A 
ATOM     15  C   UNL d   1      52.606  29.454  53.150  0.00  0.00     0.002 A 
ATOM     16  C   UNL d   1      52.788  29.285  53.924  0.00  0.00     0.002 A 
ATOM     17  C   UNL d   1      53.316  29.858  54.196  0.00  0.00     0.019 A 
ENDBRANCH  11  13
ENDBRANCH   9  10
ENDBRANCH   3   9
BRANCH   4  18
ATOM     18  C   UNL d   1      53.129  35.150  54.957  0.00  0.00     0.083 C 
ATOM     19  C   UNL d   1      52.566  35.644  54.603  0.00  0.00     0.021 C 
ENDBRANCH   4  18
TORSDOF 4
ENDMDL
MODEL 2
REMARK VINA RESULT:      -7.7      1.233      4.276
REMARK  4 active torsions:
REMARK  status: ('A' for Active; 'I' for Inactive)
REMARK    1  A    between atoms: C_6  and  N_3 
REMARK    2  A    between atoms: C_13  and  N_4 
REMARK    3  A    between atoms: C_5  and  C_6 
REMARK       I    between atoms: N_10  and  C_5 
REMARK    4  A    between atoms: C_14  and  N_10 
ROOT
ATOM      1  C   UNL d   1      52.897  30.883  52.886  0.00  0.00     0.322 A 
ATOM      2  C   UNL d   1      52.901  30.125  53.212  0.00  0.00     0.322 A 
ATOM      3  N   UNL d   1      53.256  31.505  53.282  0.00  0.00    -0.262 N 
ATOM      4  N   UNL d   1      53.263  29.988  53.935  0.00  0.00    -0.267 N 
ATOM      5  C   UNL d   1      53.621  31.369  54.009  0.00  0.00     0.102 A 
ATOM      6  O   UNL d   1      52.531  31.017  52.156  0.00  0.00    -0.261 OA
ATOM      7  O   UNL d   1      52.538  29.500  52.809  0.00  0.00    -0.261 OA
ATOM      8  C   UNL d   1      53.625  30.612  54.335  0.00  0.00     0.102 A 
ENDROOT
BRANCH   3   9
ATOM      9  C   UNL d   1      53.253  32.259  52.958  0.00  0.00     0.146 C 
BRANCH   9  10
ATOM     10  C   UNL d   1      53.058  32.901  53.429  0.00  0.00     0.297 C 
ATOM     11  N   UNL d   1      53.537  33.562  53.461  0.00  0.00    -0.207 NA
ATOM     12  O   UNL d   1      52.365  32.872  53.877  0.00  0.00    -0.264 OA
BRANCH  11  13
ATOM     13  C   UNL d   1      53.334  34.204  53.937  0.00  0.00     0.085 A 
ATOM     14  C   UNL d   1      53.565  34.322  54.714  0.00  0.00     0.019 A 
ATOM     15  C   UNL d   1      53.238  35.027  54.968  0.00  0.00     0.002 A 
ATOM     16  C   UNL d   1      52.807  35.348  54.358  0.00  0.00     0.002 A 
ATOM     17  C   UNL d   1      52.862  34.840  53.709  0.00  0.00     0.019 A 
ENDBRANCH  11  13
ENDBRANCH   9  10
ENDBRANCH   3   9
BRANCH   4  18
ATOM     18  C   UNL d   1      53.267  29.230  54.261  0.00  0.00     0.083 C 
ATOM     19  C   UNL d   1      53.374  29.132  55.076  0.00  0.00     0.021 C 
ENDBRANCH   4  18
TORSDOF 4
ENDMDL
MODEL 3
REMARK VINA RESULT:      -7.6      1.303      1.806
REMARK  4 active torsions:
REMARK  status: ('A' for Active; 'I' for Inactive)
REMARK    1  A    between atoms: C_6  and  N_3 
REMARK    2  A    between atoms: C_13  and  N_4 
REMARK    3  A    between atoms: C_5  and  C_6 
REMARK       I    between atoms: N_10  and  C_5 
REMARK    4  A    between atoms: C_14  and  N_10 
ROOT
ATOM      1  C   UNL d   1      52.329  33.249  52.807  0.00  0.00     0.322 A 
ATOM      2  C   UNL d   1      52.280  34.007  53.130  0.00  0.00     0.322 A 
ATOM      3  N   UNL d   1      52.898  32.722  53.074  0.00  0.00    -0.262 N 
ATOM      4  N   UNL d   1      52.801  34.238  53.720  0.00  0.00    -0.267 N 
ATOM      5  C   UNL d   1      53.422  32.952  53.667  0.00  0.00     0.102 A 
ATOM      6  O   UNL d   1      51.802  33.020  52.212  0.00  0.00    -0.261 OA
ATOM      7  O   UNL d   1      51.705  34.536  52.858  0.00  0.00    -0.261 OA
ATOM      8  C   UNL d   1      53.373  33.710  53.990  0.00  0.00     0.102 A 
ENDROOT
BRANCH   3   9
ATOM      9  C   UNL d   1      52.946  31.968  52.752  0.00  0.00     0.146 C 
BRANCH   9  10
ATOM     10  C   UNL d   1      53.198  31.344  53.221  0.00  0.00     0.297 C 
ATOM     11  N   UNL d   1      52.739  30.674  53.316  0.00  0.00    -0.207 NA
ATOM     12  O   UNL d   1      53.929  31.399  53.601  0.00  0.00    -0.264 OA
BRANCH  11  13
ATOM     13  C   UNL d   1      52.999  30.051  53.788  0.00  0.00     0.085 A 
ATOM     14  C   UNL d   1      52.840  29.949  54.585  0.00  0.00     0.019 A 
ATOM     15  C   UNL d   1      53.206  29.260  54.827  0.00  0.00     0.002 A 
ATOM     16  C   UNL d   1      53.590  28.932  54.190  0.00  0.00     0.002 A 
ATOM     17  C   UNL d   1      53.466  29.420  53.536  0.00  0.00     0.019 A 
ENDBRANCH  11  13
ENDBRANCH   9  10
ENDBRANCH   3   9
BRANCH   4  18
ATOM     18  C   UNL d   1      52.753  34.995  54.043  0.00  0.00     0.083 C 
ATOM     19  C   UNL d   1      53.166  35.176  54.737  0.00  0.00     0.021 C 
ENDBRANCH   4  18
TORSDOF 4
ENDMDL
MODEL 4
REMARK VINA RESULT:      -7.5      2.149      3.669
REMARK  4 active torsions:
REMARK  status: ('A' for Active; 'I' for Inactive)
REMARK    1  A    between atoms: C_6  and  N_3 
REMARK    2  A    between atoms: C_13  and  N_4 
REMARK    3  A    between atoms: C_5  and  C_6 
REMARK       I    between atoms: N_10  and  C_5 
REMARK    4  A    between atoms: C_14  and  N_10 
ROOT
ATOM      1  C   UNL d   1      53.186  32.415  53.492  0.00  0.00     0.322 A 
ATOM      2  C   UNL d   1      53.713  32.370  54.125  0.00  0.00     0.322 A 
ATOM      3  N   UNL d   1      52.910  33.144  53.236  0.00  0.00    -0.262 N 
ATOM      4  N   UNL d   1      53.965  33.054  54.503  0.00  0.00    -0.267 N 
ATOM      5  C   UNL d   1      53.161  33.832  53.614  0.00  0.00     0.102 A 
ATOM      6  O   UNL d   1      52.935  31.723  53.114  0.00  0.00    -0.261 OA
ATOM      7  O   UNL d   1      53.990  31.634  54.381  0.00  0.00    -0.261 OA
ATOM      8  C   UNL d   1      53.688  33.787  54.247  0.00  0.00     0.102 A 
ENDROOT
BRANCH   3   9
ATOM      9  C   UNL d   1      52.385  33.189  52.606  0.00  0.00     0.146 C 
BRANCH   9  10
ATOM     10  C   UNL d   1      51.787  33.749  52.617  0.00  0.00     0.297 C 
ATOM     11  N   UNL d   1      51.002  33.528  52.669  0.00  0.00    -0.207 NA
ATOM     12  O   UNL d   1      51.987  34.549  52.575  0.00  0.00    -0.264 OA
BRANCH  11  13
ATOM     13  C   UNL d   1      50.406  34.097  52.680  0.00  0.00     0.085 A 
ATOM     14  C   UNL d   1      50.147  34.515  53.335  0.00  0.00     0.019 A 
ATOM     15  C   UNL d   1      49.550  35.018  53.092  0.00  0.00     0.002 A 
ATOM     16  C   UNL d   1      49.435  34.916  52.293  0.00  0.00     0.002 A 
ATOM     17  C   UNL d   1      49.965  34.343  52.027  0.00  0.00     0.019 A 
ENDBRANCH  11  13
ENDBRANCH   9  10
ENDBRANCH   3   9
BRANCH   4  18
ATOM     18  C   UNL d   1      54.492  33.009  55.136  0.00  0.00     0.083 C 
ATOM     19  C   UNL d   1      54.897  33.686  55.385  0.00  0.00     0.021 C 
ENDBRANCH   4  18
TORSDOF 4
ENDMDL
MODEL 5
REMARK VINA RESULT:      -6.7      2.291      3.586
REMARK  4 active torsions:
REMARK  status: ('A' for Active; 'I' for Inactive)
REMARK    1  A    between atoms: C_6  and  N_3 
REMARK    2  A    between atoms: C_13  and  N_4 
REMARK    3  A    between atoms: C_5  and  C_6 
REMARK       I    between atoms: N_10  and  C_5 
REMARK    4  A    between atoms: C_14  and  N_10 
ROOT
ATOM      1  C   UNL d   1      51.527  33.814  52.180  0.00  0.00     0.322 A 
ATOM      2  C   UNL d   1      50.807  34.210  52.103  0.00  0.00     0.322 A 
ATOM      3  N   UNL d   1      51.758  33.515  52.908  0.00  0.00    -0.262 N 
ATOM      4  N   UNL d   1      50.318  34.308  52.755  0.00  0.00    -0.267 N 
ATOM      5  C   UNL d   1      51.268  33.613  53.564  0.00  0.00     0.102 A 
ATOM      6  O   UNL d   1      52.017  33.717  51.521  0.00  0.00    -0.261 OA
ATOM      7  O   UNL d   1      50.577  34.509  51.367  0.00  0.00    -0.261 OA
ATOM      8  C   UNL d   1      50.549  34.009  53.487  0.00  0.00     0.102 A 
ENDROOT
BRANCH   3   9
ATOM      9  C   UNL d   1      52.474  33.121  52.985  0.00  0.00     0.146 C 
BRANCH   9  10
ATOM     10  C   UNL d   1      53.007  33.360  53.560  0.00  0.00     0.297 C 
ATOM     11  N   UNL d   1      53.545  32.835  53.882  0.00  0.00    -0.207 NA
ATOM     12  O   UNL d   1      52.996  34.145  53.815  0.00  0.00    -0.264 OA
BRANCH  11  13
ATOM     13  C   UNL d   1      54.078  33.082  54.460  0.00  0.00     0.085 A 
ATOM     14  C   UNL d   1      54.003  32.969  55.267  0.00  0.00     0.019 A 
ATOM     15  C   UNL d   1      54.656  33.302  55.629  0.00  0.00     0.002 A 
ATOM     16  C   UNL d   1      55.136  33.621  55.055  0.00  0.00     0.002 A 
ATOM     17  C   UNL d   1      54.782  33.488  54.321  0.00  0.00     0.019 A 
ENDBRANCH  11  13
ENDBRANCH   9  10
ENDBRANCH   3   9
BRANCH   4  18
ATOM     18  C   UNL d   1      49.598  34.704  52.678  0.00  0.00     0.083 C 
ATOM     19  C   UNL d   1      49.314  35.169  53.301  0.00  0.00     0.021 C 
ENDBRANCH   4  18
TORSDOF 4
ENDMDL
MODEL 6
REMARK VINA RESULT:      -5.3     10.350     11.071
REMARK  4 active torsions:
REMARK  status: ('A' for Active; 'I' for Inactive)
REMARK    1  A    between atoms: C_6  and  N_3 
REMARK    2  A    between atoms: C_13  and  N_4 
REMARK    3  A    between atoms: C_5  and  C_6 
REMARK       I    between atoms: N_10  and  C_5 
REMARK    4  A    between atoms: C_14  and  N_10 
ROOT
ATOM      1  C   UNL d   1      44.533  30.673  60.251  0.00  0.00     0.322 A 
ATOM      2  C   UNL d   1      44.600  30.756  61.069  0.00  0.00     0.322 A 
ATOM      3  N   UNL d   1      44.432  29.930  59.918  0.00  0.00    -0.262 N 
ATOM      4  N   UNL d   1      44.566  30.096  61.555  0.00  0.00    -0.267 N 
ATOM      5  C   UNL d   1      44.398  29.266  60.404  0.00  0.00     0.102 A 
ATOM      6  O   UNL d   1      44.568  31.341  59.764  0.00  0.00    -0.261 OA
ATOM      7  O   UNL d   1      44.702  31.507  61.401  0.00  0.00    -0.261 OA
ATOM      8  C   UNL d   1      44.464  29.349  61.223  0.00  0.00     0.102 A 
ENDROOT
BRANCH   3   9
ATOM      9  C   UNL d   1      44.366  29.848  59.104  0.00  0.00     0.146 C 
BRANCH   9  10
ATOM     10  C   UNL d   1      44.803  29.272  58.719  0.00  0.00     0.297 C 
ATOM     11  N   UNL d   1      44.439  28.685  58.281  0.00  0.00    -0.207 NA
ATOM     12  O   UNL d   1      45.627  29.288  58.778  0.00  0.00    -0.264 OA
BRANCH  11  13
ATOM     13  C   UNL d   1      44.885  28.109  57.897  0.00  0.00     0.085 A 
ATOM     14  C   UNL d   1      45.170  27.417  58.229  0.00  0.00     0.019 A 
ATOM     15  C   UNL d   1      45.582  27.012  57.649  0.00  0.00     0.002 A 
ATOM     16  C   UNL d   1      45.555  27.446  56.962  0.00  0.00     0.002 A 
ATOM     17  C   UNL d   1      45.122  28.133  57.107  0.00  0.00     0.019 A 
ENDBRANCH  11  13
ENDBRANCH   9  10
ENDBRANCH   3   9
BRANCH   4  18
ATOM     18  C   UNL d   1      44.633  30.179  62.373  0.00  0.00     0.083 C 
ATOM     19  C   UNL d   1      44.626  29.509  62.858  0.00  0.00     0.021 C 
ENDBRANCH   4  18
TORSDOF 4
ENDMDL
MODEL 7
REMARK VINA RESULT:      -5.2      9.962     11.268
REMARK  4 active torsions:
REMARK  status: ('A' for Active; 'I' for Inactive)
REMARK    1  A    between atoms: C_6  and  N_3 
REMARK    2  A    between atoms: C_13  and  N_4 
REMARK    3  A    between atoms: C_5  and  C_6 
REMARK       I    between atoms: N_10  and  C_5 
REMARK    4  A    between atoms: C_14  and  N_10 
ROOT
ATOM      1  C   UNL d   1      45.132  26.705  58.444  0.00  0.00     0.322 A 
ATOM      2  C   UNL d   1      44.891  26.055  57.996  0.00  0.00     0.322 A 
ATOM      3  N   UNL d   1      45.272  27.427  58.082  0.00  0.00    -0.262 N 
ATOM      4  N   UNL d   1      44.789  26.128  57.185  0.00  0.00    -0.267 N 
ATOM      5  C   UNL d   1      45.171  27.502  57.268  0.00  0.00     0.102 A 
ATOM      6  O   UNL d   1      45.234  26.627  59.262  0.00  0.00    -0.261 OA
ATOM      7  O   UNL d   1      44.750  25.328  58.365  0.00  0.00    -0.261 OA
ATOM      8  C   UNL d   1      44.929  26.853  56.820  0.00  0.00     0.102 A 
ENDROOT
BRANCH   3   9
ATOM      9  C   UNL d   1      45.513  28.073  58.528  0.00  0.00     0.146 C 
BRANCH   9  10
ATOM     10  C   UNL d   1      45.128  28.792  58.438  0.00  0.00     0.297 C 
ATOM     11  N   UNL d   1      45.531  29.499  58.514  0.00  0.00    -0.207 NA
ATOM     12  O   UNL d   1      44.320  28.795  58.269  0.00  0.00    -0.264 OA
BRANCH  11  13
ATOM     13  C   UNL d   1      45.138  30.218  58.422  0.00  0.00     0.085 A 
ATOM     14  C   UNL d   1      44.766  30.645  59.014  0.00  0.00     0.019 A 
ATOM     15  C   UNL d   1      44.451  31.319  58.675  0.00  0.00     0.002 A 
ATOM     16  C   UNL d   1      44.624  31.316  57.881  0.00  0.00     0.002 A 
ATOM     17  C   UNL d   1      45.053  30.631  57.713  0.00  0.00     0.019 A 
ENDBRANCH  11  13
ENDBRANCH   9  10
ENDBRANCH   3   9
BRANCH   4  18
ATOM     18  C   UNL d   1      44.547  25.479  56.737  0.00  0.00     0.083 C 
ATOM     19  C   UNL d   1      44.647  25.484  55.916  0.00  0.00     0.021 C 
ENDBRANCH   4  18
TORSDOF 4
ENDMDL
MODEL 8
REMARK VINA RESULT:      -5.1      9.864     10.353
REMARK  4 active torsions:
REMARK  status: ('A' for Active; 'I' for Inactive)
REMARK    1  A    between atoms: C_6  and  N_3 
REMARK    2  A    between atoms: C_13  and  N_4 
REMARK    3  A    between atoms: C_5  and  C_6 
REMARK       I    between atoms: N_10  and  C_5 
REMARK    4  A    between atoms: C_14  and  N_10 
ROOT
ATOM      1  C   UNL d   1      44.879  30.113  57.685  0.00  0.00     0.322 A 
ATOM      2  C   UNL d   1      44.872  30.582  58.364  0.00  0.00     0.322 A 
ATOM      3  N   UNL d   1      44.974  29.300  57.746  0.00  0.00    -0.262 N 
ATOM      4  N   UNL d   1      44.959  30.238  59.104  0.00  0.00    -0.267 N 
ATOM      5  C   UNL d   1      45.062  28.954  58.488  0.00  0.00     0.102 A 
ATOM      6  O   UNL d   1      44.791  30.463  56.941  0.00  0.00    -0.261 OA
ATOM      7  O   UNL d   1      44.776  31.401  58.299  0.00  0.00    -0.261 OA
ATOM      8  C   UNL d   1      45.055  29.422  59.167  0.00  0.00     0.102 A 
ENDROOT
BRANCH   3   9
ATOM      9  C   UNL d   1      44.982  28.834  57.070  0.00  0.00     0.146 C 
BRANCH   9  10
ATOM     10  C   UNL d   1      45.035  28.019  57.142  0.00  0.00     0.297 C 
ATOM     11  N   UNL d   1      44.465  27.528  56.824  0.00  0.00    -0.207 NA
ATOM     12  O   UNL d   1      45.680  27.695  57.545  0.00  0.00    -0.264 OA
BRANCH  11  13
ATOM     13  C   UNL d   1      44.526  26.709  56.900  0.00  0.00     0.085 A 
ATOM     14  C   UNL d   1      44.314  26.268  57.557  0.00  0.00     0.019 A 
ATOM     15  C   UNL d   1      44.468  25.482  57.390  0.00  0.00     0.002 A 
ATOM     16  C   UNL d   1      44.772  25.431  56.638  0.00  0.00     0.002 A 
ATOM     17  C   UNL d   1      44.812  26.194  56.324  0.00  0.00     0.019 A 
ENDBRANCH  11  13
ENDBRANCH   9  10
ENDBRANCH   3   9
BRANCH   4  18
ATOM     18  C   UNL d   1      44.952  30.707  59.783  0.00  0.00     0.083 C 
ATOM     19  C   UNL d   1      44.955  30.352  60.530  0.00  0.00     0.021 C 
ENDBRANCH   4  18
TORSDOF 4
ENDMDL
