MODEL 1
REMARK VINA RESULT:       5.3      0.000      0.000
REMARK  5 active torsions:
REMARK  status: ('A' for Active; 'I' for Inactive)
REMARK    1  A    between atoms: C_3  and  C_1 
REMARK    2  A    between atoms: S_2  and  C_3 
REMARK    3  A    between atoms: C_8  and  S_2 
REMARK    4  A    between atoms: C_9  and  C_3 
REMARK    5  A    between atoms: N_7  and  C_4 
ROOT
ATOM      1  C   UNL d   1     -42.138-122.672 -49.964  0.00  0.00     0.128 A 
ATOM      2  C   UNL d   1     -42.924-122.693 -49.717  0.00  0.00     0.166 A 
ATOM      3  N   UNL d   1     -41.540-122.914 -49.455  0.00  0.00    -0.240 NA
ATOM      4  N   UNL d   1     -43.111-122.959 -48.954  0.00  0.00    -0.225 NA
ATOM      5  C   UNL d   1     -41.728-123.175 -48.702  0.00  0.00     0.099 A 
ATOM      6  C   UNL d   1     -42.510-123.198 -48.453  0.00  0.00     0.101 A 
ATOM      7  C   UNL d   1     -42.693-123.464 -47.690  0.00  0.00     0.021 A 
ATOM      8  C   UNL d   1     -41.126-123.417 -48.193  0.00  0.00     0.021 A 
ATOM      9  C   UNL d   1     -42.091-123.703 -47.188  0.00  0.00     0.002 A 
ATOM     10  C   UNL d   1     -41.310-123.680 -47.438  0.00  0.00     0.002 A 
ENDROOT
BRANCH   1  11
ATOM     11  C   UNL d   1     -41.950-122.409 -50.720  0.00  0.00     0.129 C 
BRANCH  11  12
ATOM     12  S   UNL d   1     -41.563-122.989 -51.277  0.00  0.00     0.213 S 
ATOM     13  O   UNL d   1     -41.131-123.678 -50.912  0.00  0.00    -0.217 OA
ATOM     14  O   UNL d   1     -41.405-123.267 -50.511  0.00  0.00    -0.217 OA
BRANCH  12  15
ATOM     15  C   UNL d   1     -41.510-123.037 -52.106  0.00  0.00     0.088 A 
ATOM     16  C   UNL d   1     -41.343-122.362 -52.548  0.00  0.00     0.011 A 
ATOM     17  C   UNL d   1     -41.290-122.406 -53.374  0.00  0.00     0.001 A 
ATOM     18  C   UNL d   1     -41.124-121.737 -53.810  0.00  0.00     0.000 C 
ATOM     19  C   UNL d   1     -41.406-123.135 -53.751  0.00  0.00     0.000 A 
ATOM     20  C   UNL d   1     -41.575-123.817 -53.299  0.00  0.00     0.001 A 
ATOM     21  C   UNL d   1     -41.626-123.763 -52.480  0.00  0.00     0.011 A 
ENDBRANCH  12  15
ENDBRANCH  11  12
BRANCH  11  22
ATOM     22  C   UNL d   1     -42.067-121.637 -51.084  0.00  0.00     0.135 C 
ATOM     23  N   UNL d   1     -41.598-120.894 -50.957  0.00  0.00    -0.146 N 
ENDBRANCH  11  22
ENDBRANCH   1  11
BRANCH   2  24
ATOM     24  N   UNL d   1     -43.524-122.447 -50.239  0.00  0.00    -0.288 N 
ATOM     25  C   UNL d   1     -44.076-122.952 -50.611  0.00  0.00     0.082 A 
ATOM     26  C   UNL d   1     -44.575-122.475 -51.086  0.00  0.00     0.021 A 
ATOM     27  C   UNL d   1     -44.327-121.683 -51.002  0.00  0.00     0.021 A 
ATOM     28  C   UNL d   1     -43.674-121.669 -50.476  0.00  0.00     0.082 A 
ENDBRANCH   2  24
TORSDOF 5
ENDMDL
