MODEL 1
REMARK VINA RESULT:      -4.9      0.000      0.000
REMARK  0 active torsions:
REMARK  status: ('A' for Active; 'I' for Inactive)
ROOT
ATOM      1  N   UNL d   1      56.113  -1.463  32.586  0.00  0.00    -0.208 NA
ATOM      2  C   UNL d   1      56.633  -1.458  31.946  0.00  0.00     0.279 A 
ATOM      3  C   UNL d   1      56.692  -0.030  31.998  0.00  0.00     0.006 A 
ATOM      4  C   UNL d   1      56.922  -0.743  31.652  0.00  0.00     0.058 A 
ATOM      5  C   UNL d   1      55.881  -0.747  32.935  0.00  0.00     0.085 A 
ATOM      6  C   UNL d   1      56.175  -0.031  32.636  0.00  0.00     0.018 A 
ATOM      7  O   UNL d   1      56.862  -2.173  31.600  0.00  0.00    -0.265 OA
ATOM      8  C   UNL d   1      56.979   0.677  31.707  0.00  0.00     0.000 A 
ATOM      9  C   UNL d   1      57.437  -0.734  31.018  0.00  0.00     0.005 A 
ATOM     10  C   UNL d   1      55.948   0.681  32.980  0.00  0.00     0.002 A 
ATOM     11  C   UNL d   1      55.362  -0.747  33.576  0.00  0.00     0.019 A 
ATOM     12  C   UNL d   1      57.491   0.680  31.076  0.00  0.00     0.000 A 
ATOM     13  C   UNL d   1      57.725  -0.023  30.725  0.00  0.00     0.000 A 
ATOM     14  C   UNL d   1      55.425   0.679  33.625  0.00  0.00     0.000 A 
ATOM     15  C   UNL d   1      55.133  -0.033  33.922  0.00  0.00     0.002 A 
ENDROOT
TORSDOF 0
ENDMDL
MODEL 2
REMARK VINA RESULT:      -4.9      1.429      2.977
REMARK  0 active torsions:
REMARK  status: ('A' for Active; 'I' for Inactive)
ROOT
ATOM      1  N   UNL d   1      57.715   0.681  32.743  0.00  0.00    -0.208 NA
ATOM      2  C   UNL d   1      57.196   0.364  33.299  0.00  0.00     0.279 A 
ATOM      3  C   UNL d   1      56.724  -0.577  32.331  0.00  0.00     0.006 A 
ATOM      4  C   UNL d   1      56.702  -0.263  33.095  0.00  0.00     0.058 A 
ATOM      5  C   UNL d   1      57.740   0.367  31.975  0.00  0.00     0.085 A 
ATOM      6  C   UNL d   1      57.240  -0.264  31.774  0.00  0.00     0.018 A 
ATOM      7  O   UNL d   1      57.174   0.679  34.063  0.00  0.00    -0.265 OA
ATOM      8  C   UNL d   1      56.234  -1.199  32.130  0.00  0.00     0.000 A 
ATOM      9  C   UNL d   1      56.186  -0.580  33.643  0.00  0.00     0.005 A 
ATOM     10  C   UNL d   1      57.261  -0.578  31.015  0.00  0.00     0.002 A 
ATOM     11  C   UNL d   1      58.257   0.681  31.415  0.00  0.00     0.019 A 
ATOM     12  C   UNL d   1      55.723  -1.510  32.680  0.00  0.00     0.000 A 
ATOM     13  C   UNL d   1      55.693  -1.205  33.441  0.00  0.00     0.000 A 
ATOM     14  C   UNL d   1      57.783  -0.261  30.451  0.00  0.00     0.000 A 
ATOM     15  C   UNL d   1      58.280   0.367  30.651  0.00  0.00     0.002 A 
ENDROOT
TORSDOF 0
ENDMDL
MODEL 3
REMARK VINA RESULT:      -4.5      1.702      1.962
REMARK  0 active torsions:
REMARK  status: ('A' for Active; 'I' for Inactive)
ROOT
ATOM      1  N   UNL d   1      56.948   0.682  34.445  0.00  0.00    -0.208 NA
ATOM      2  C   UNL d   1      57.528   0.682  33.859  0.00  0.00     0.279 A 
ATOM      3  C   UNL d   1      56.515   0.682  32.848  0.00  0.00     0.006 A 
ATOM      4  C   UNL d   1      57.313   0.682  33.062  0.00  0.00     0.058 A 
ATOM      5  C   UNL d   1      56.146   0.682  34.232  0.00  0.00     0.085 A 
ATOM      6  C   UNL d   1      55.935   0.682  33.429  0.00  0.00     0.018 A 
ATOM      7  O   UNL d   1      58.326   0.682  34.074  0.00  0.00    -0.265 OA
ATOM      8  C   UNL d   1      56.304   0.682  32.059  0.00  0.00     0.000 A 
ATOM      9  C   UNL d   1      57.885   0.682  32.479  0.00  0.00     0.005 A 
ATOM     10  C   UNL d   1      55.141   0.682  33.214  0.00  0.00     0.002 A 
ATOM     11  C   UNL d   1      55.562   0.682  34.813  0.00  0.00     0.019 A 
ATOM     12  C   UNL d   1      56.877   0.682  31.483  0.00  0.00     0.000 A 
ATOM     13  C   UNL d   1      57.672   0.682  31.686  0.00  0.00     0.000 A 
ATOM     14  C   UNL d   1      54.554   0.682  33.801  0.00  0.00     0.000 A 
ATOM     15  C   UNL d   1      54.764   0.682  34.599  0.00  0.00     0.002 A 
ENDROOT
TORSDOF 0
ENDMDL
MODEL 4
REMARK VINA RESULT:      -4.3      1.236      2.006
REMARK  0 active torsions:
REMARK  status: ('A' for Active; 'I' for Inactive)
ROOT
ATOM      1  N   UNL d   1      57.345  -1.500  30.977  0.00  0.00    -0.208 NA
ATOM      2  C   UNL d   1      57.863  -1.480  30.336  0.00  0.00     0.279 A 
ATOM      3  C   UNL d   1      57.910  -0.052  30.412  0.00  0.00     0.006 A 
ATOM      4  C   UNL d   1      58.145  -0.757  30.053  0.00  0.00     0.058 A 
ATOM      5  C   UNL d   1      57.108  -0.793  31.339  0.00  0.00     0.085 A 
ATOM      6  C   UNL d   1      57.394  -0.069  31.051  0.00  0.00     0.018 A 
ATOM      7  O   UNL d   1      58.098  -2.186  29.977  0.00  0.00    -0.265 OA
ATOM      8  C   UNL d   1      58.190   0.663  30.132  0.00  0.00     0.000 A 
ATOM      9  C   UNL d   1      58.658  -0.732  29.418  0.00  0.00     0.005 A 
ATOM     10  C   UNL d   1      57.161   0.635  31.407  0.00  0.00     0.002 A 
ATOM     11  C   UNL d   1      56.590  -0.807  31.980  0.00  0.00     0.019 A 
ATOM     12  C   UNL d   1      58.700   0.681  29.500  0.00  0.00     0.000 A 
ATOM     13  C   UNL d   1      58.939  -0.014  29.137  0.00  0.00     0.000 A 
ATOM     14  C   UNL d   1      56.640   0.618  32.053  0.00  0.00     0.000 A 
ATOM     15  C   UNL d   1      56.355  -0.102  32.339  0.00  0.00     0.002 A 
ENDROOT
TORSDOF 0
ENDMDL
MODEL 5
REMARK VINA RESULT:      -3.5      9.423      9.862
REMARK  0 active torsions:
REMARK  status: ('A' for Active; 'I' for Inactive)
ROOT
ATOM      1  N   UNL d   1      59.118  -9.446  34.463  0.00  0.00    -0.208 NA
ATOM      2  C   UNL d   1      59.145  -9.034  35.177  0.00  0.00     0.279 A 
ATOM      3  C   UNL d   1      60.451  -8.547  34.852  0.00  0.00     0.006 A 
ATOM      4  C   UNL d   1      59.810  -8.586  35.372  0.00  0.00     0.058 A 
ATOM      5  C   UNL d   1      59.760  -9.408  33.940  0.00  0.00     0.085 A 
ATOM      6  C   UNL d   1      60.427  -8.956  34.141  0.00  0.00     0.018 A 
ATOM      7  O   UNL d   1      58.504  -9.074  35.696  0.00  0.00    -0.265 OA
ATOM      8  C   UNL d   1      61.108  -8.103  35.046  0.00  0.00     0.000 A 
ATOM      9  C   UNL d   1      59.841  -8.177  36.078  0.00  0.00     0.005 A 
ATOM     10  C   UNL d   1      61.066  -8.916  33.624  0.00  0.00     0.002 A 
ATOM     11  C   UNL d   1      59.738  -9.818  33.225  0.00  0.00     0.019 A 
ATOM     12  C   UNL d   1      61.133  -7.698  35.750  0.00  0.00     0.000 A 
ATOM     13  C   UNL d   1      60.502  -7.730  36.273  0.00  0.00     0.000 A 
ATOM     14  C   UNL d   1      61.041  -9.329  32.905  0.00  0.00     0.000 A 
ATOM     15  C   UNL d   1      60.379  -9.779  32.705  0.00  0.00     0.002 A 
ENDROOT
TORSDOF 0
ENDMDL
MODEL 6
REMARK VINA RESULT:      -3.2      8.401      9.329
REMARK  0 active torsions:
REMARK  status: ('A' for Active; 'I' for Inactive)
ROOT
ATOM      1  N   UNL d   1      58.912  -8.109  36.293  0.00  0.00    -0.208 NA
ATOM      2  C   UNL d   1      58.949  -7.285  36.283  0.00  0.00     0.279 A 
ATOM      3  C   UNL d   1      60.377  -7.343  36.219  0.00  0.00     0.006 A 
ATOM      4  C   UNL d   1      59.678  -6.902  36.246  0.00  0.00     0.058 A 
ATOM      5  C   UNL d   1      59.612  -8.553  36.266  0.00  0.00     0.085 A 
ATOM      6  C   UNL d   1      60.344  -8.163  36.228  0.00  0.00     0.018 A 
ATOM      7  O   UNL d   1      58.250  -6.845  36.310  0.00  0.00    -0.265 OA
ATOM      8  C   UNL d   1      61.099  -6.963  36.182  0.00  0.00     0.000 A 
ATOM      9  C   UNL d   1      59.719  -6.087  36.236  0.00  0.00     0.005 A 
ATOM     10  C   UNL d   1      61.040  -8.600  36.201  0.00  0.00     0.002 A 
ATOM     11  C   UNL d   1      59.582  -9.377  36.275  0.00  0.00     0.019 A 
ATOM     12  C   UNL d   1      61.132  -6.151  36.172  0.00  0.00     0.000 A 
ATOM     13  C   UNL d   1      60.445  -5.705  36.199  0.00  0.00     0.000 A 
ATOM     14  C   UNL d   1      61.008  -9.430  36.211  0.00  0.00     0.000 A 
ATOM     15  C   UNL d   1      60.280  -9.817  36.248  0.00  0.00     0.002 A 
ENDROOT
TORSDOF 0
ENDMDL
MODEL 7
REMARK VINA RESULT:      -3.1      9.702     10.019
REMARK  0 active torsions:
REMARK  status: ('A' for Active; 'I' for Inactive)
ROOT
ATOM      1  N   UNL d   1      58.864  -9.499  33.803  0.00  0.00    -0.208 NA
ATOM      2  C   UNL d   1      58.917  -9.608  32.987  0.00  0.00     0.279 A 
ATOM      3  C   UNL d   1      60.345  -9.601  33.074  0.00  0.00     0.006 A 
ATOM      4  C   UNL d   1      59.655  -9.659  32.623  0.00  0.00     0.058 A 
ATOM      5  C   UNL d   1      59.555  -9.441  34.257  0.00  0.00     0.085 A 
ATOM      6  C   UNL d   1      60.296  -9.493  33.886  0.00  0.00     0.018 A 
ATOM      7  O   UNL d   1      58.227  -9.666  32.537  0.00  0.00    -0.265 OA
ATOM      8  C   UNL d   1      61.076  -9.651  32.712  0.00  0.00     0.000 A 
ATOM      9  C   UNL d   1      59.713  -9.767  31.815  0.00  0.00     0.005 A 
ATOM     10  C   UNL d   1      60.984  -9.435  34.333  0.00  0.00     0.002 A 
ATOM     11  C   UNL d   1      59.508  -9.332  35.073  0.00  0.00     0.019 A 
ATOM     12  C   UNL d   1      61.126  -9.759  31.908  0.00  0.00     0.000 A 
ATOM     13  C   UNL d   1      60.447  -9.818  31.452  0.00  0.00     0.000 A 
ATOM     14  C   UNL d   1      60.934  -9.325  35.155  0.00  0.00     0.000 A 
ATOM     15  C   UNL d   1      60.198  -9.274  35.524  0.00  0.00     0.002 A 
ENDROOT
TORSDOF 0
ENDMDL
MODEL 8
REMARK VINA RESULT:      -3.0      3.954      5.214
REMARK  0 active torsions:
REMARK  status: ('A' for Active; 'I' for Inactive)
ROOT
ATOM      1  N   UNL d   1      58.367  -2.451  29.098  0.00  0.00    -0.208 NA
ATOM      2  C   UNL d   1      58.703  -3.177  28.898  0.00  0.00     0.279 A 
ATOM      3  C   UNL d   1      59.999  -2.574  28.858  0.00  0.00     0.006 A 
ATOM      4  C   UNL d   1      59.517  -3.240  28.778  0.00  0.00     0.058 A 
ATOM      5  C   UNL d   1      58.851  -1.782  29.179  0.00  0.00     0.085 A 
ATOM      6  C   UNL d   1      59.669  -1.850  29.057  0.00  0.00     0.018 A 
ATOM      7  O   UNL d   1      58.219  -3.842  28.818  0.00  0.00    -0.265 OA
ATOM      8  C   UNL d   1      60.805  -2.637  28.739  0.00  0.00     0.000 A 
ATOM      9  C   UNL d   1      59.853  -3.957  28.579  0.00  0.00     0.005 A 
ATOM     10  C   UNL d   1      60.151  -1.188  29.136  0.00  0.00     0.002 A 
ATOM     11  C   UNL d   1      58.521  -1.053  29.379  0.00  0.00     0.019 A 
ATOM     12  C   UNL d   1      61.133  -3.354  28.541  0.00  0.00     0.000 A 
ATOM     13  C   UNL d   1      60.663  -4.020  28.460  0.00  0.00     0.000 A 
ATOM     14  C   UNL d   1      59.817  -0.455  29.338  0.00  0.00     0.000 A 
ATOM     15  C   UNL d   1      59.004  -0.388  29.459  0.00  0.00     0.002 A 
ENDROOT
TORSDOF 0
ENDMDL
MODEL 9
REMARK VINA RESULT:      -3.0      3.706      4.892
REMARK  0 active torsions:
REMARK  status: ('A' for Active; 'I' for Inactive)
ROOT
ATOM      1  N   UNL d   1      58.307  -1.397  29.449  0.00  0.00    -0.208 NA
ATOM      2  C   UNL d   1      58.509  -0.607  29.573  0.00  0.00     0.279 A 
ATOM      3  C   UNL d   1      59.862  -0.889  29.205  0.00  0.00     0.006 A 
ATOM      4  C   UNL d   1      59.284  -0.353  29.452  0.00  0.00     0.058 A 
ATOM      5  C   UNL d   1      58.886  -1.937  29.202  0.00  0.00     0.085 A 
ATOM      6  C   UNL d   1      59.664  -1.676  29.081  0.00  0.00     0.018 A 
ATOM      7  O   UNL d   1      57.930  -0.071  29.820  0.00  0.00    -0.265 OA
ATOM      8  C   UNL d   1      60.630  -0.637  29.085  0.00  0.00     0.000 A 
ATOM      9  C   UNL d   1      59.488   0.428  29.573  0.00  0.00     0.005 A 
ATOM     10  C   UNL d   1      60.241  -2.209  28.835  0.00  0.00     0.002 A 
ATOM     11  C   UNL d   1      58.689  -2.728  29.077  0.00  0.00     0.019 A 
ATOM     12  C   UNL d   1      60.826   0.142  29.207  0.00  0.00     0.000 A 
ATOM     13  C   UNL d   1      60.260   0.682  29.452  0.00  0.00     0.000 A 
ATOM     14  C   UNL d   1      60.041  -3.005  28.710  0.00  0.00     0.000 A 
ATOM     15  C   UNL d   1      59.267  -3.264  28.830  0.00  0.00     0.002 A 
ENDROOT
TORSDOF 0
ENDMDL
