MODEL 1
REMARK VINA RESULT:      60.5      0.000      0.000
REMARK  4 active torsions:
REMARK  status: ('A' for Active; 'I' for Inactive)
REMARK    1  A    between atoms: N_5  and  C_1 
REMARK    2  A    between atoms: C_10  and  C_2 
REMARK    3  A    between atoms: C_12  and  N_3 
REMARK       I    between atoms: C_8  and  N_5 
REMARK    4  A    between atoms: C_9  and  C_8 
ROOT
ATOM      1  C   UNL d   1      13.997  13.325  -2.508  0.00  0.00     0.170 A 
ATOM      2  C   UNL d   1      13.771  13.581  -3.262  0.00  0.00     0.076 A 
ATOM      3  N   UNL d   1      13.830  12.548  -2.269  0.00  0.00    -0.212 N 
ATOM      4  N   UNL d   1      13.440  12.036  -2.787  0.00  0.00    -0.161 NA
ATOM      5  C   UNL d   1      13.380  13.061  -3.776  0.00  0.00     0.218 A 
ATOM      6  C   UNL d   1      13.215  12.291  -3.540  0.00  0.00     0.140 A 
ATOM      7  O   UNL d   1      13.154  13.316  -4.529  0.00  0.00    -0.285 OA
ATOM      8  C   UNL d   1      12.823  11.779  -4.061  0.00  0.00     0.026 C 
ENDROOT
BRANCH   1   9
ATOM      9  N   UNL d   1      14.383  13.834  -1.998  0.00  0.00    -0.188 NA
ATOM     10  C   UNL d   1      15.069  14.067  -1.599  0.00  0.00     0.286 C 
ATOM     11  O   UNL d   1      15.759  13.631  -1.705  0.00  0.00    -0.265 OA
BRANCH  10  12
ATOM     12  C   UNL d   1      15.056  14.722  -1.107  0.00  0.00     0.087 A 
ATOM     13  S   UNL d   1      14.779  14.749  -0.328  0.00  0.00    -0.082 SA
ATOM     14  C   UNL d   1      14.875  15.519  -0.056  0.00  0.00     0.036 A 
ATOM     15  C   UNL d   1      15.206  15.973  -0.651  0.00  0.00     0.008 A 
ATOM     16  C   UNL d   1      15.321  15.478  -1.310  0.00  0.00     0.012 A 
ENDBRANCH  10  12
ENDBRANCH   1   9
BRANCH   2  17
ATOM     17  C   UNL d   1      13.934  14.349  -3.502  0.00  0.00     0.006 A 
ATOM     18  C   UNL d   1      13.475  14.971  -3.227  0.00  0.00     0.001 A 
ATOM     19  C   UNL d   1      13.640  15.748  -3.471  0.00  0.00     0.011 A 
ATOM     20  C   UNL d   1      14.264  15.889  -3.988  0.00  0.00     0.058 A 
ATOM     21  C   UNL d   1      14.729  15.261  -4.267  0.00  0.00     0.011 A 
ATOM     22 CL   UNL d   1      14.425  16.662  -4.227  0.00  0.00    -0.082 Cl
ATOM     23  C   UNL d   1      14.559  14.494  -4.021  0.00  0.00     0.001 A 
ENDBRANCH   2  17
BRANCH   3  24
ATOM     24  C   UNL d   1      14.054  12.292  -1.519  0.00  0.00     0.085 A 
ATOM     25  C   UNL d   1      13.500  12.288  -0.906  0.00  0.00     0.019 A 
ATOM     26  C   UNL d   1      13.728  12.029  -0.149  0.00  0.00     0.002 A 
ATOM     27  C   UNL d   1      14.496  11.779  -0.014  0.00  0.00     0.000 A 
ATOM     28  C   UNL d   1      15.046  11.786  -0.635  0.00  0.00     0.002 A 
ATOM     29  C   UNL d   1      14.822  12.042  -1.385  0.00  0.00     0.019 A 
ENDBRANCH   3  24
TORSDOF 4
ENDMDL
