MODEL 1
REMARK VINA RESULT:      39.3      0.000      0.000
REMARK  5 active torsions:
REMARK  status: ('A' for Active; 'I' for Inactive)
REMARK    1  A    between atoms: C_2  and  S_1 
REMARK    2  A    between atoms: N_3  and  S_1 
REMARK    3  A    between atoms: C_14  and  N_3 
REMARK    4  A    between atoms: C_15  and  C_14 
REMARK    5  A    between atoms: O_18  and  C_16 
ROOT
ATOM      1  S   UNL d   1      60.314  49.395  51.496  0.00  0.00     0.285 S 
ATOM      2  O   UNL d   1      59.930  49.707  52.157  0.00  0.00    -0.198 OA
ATOM      3  O   UNL d   1      61.027  49.435  51.893  0.00  0.00    -0.198 OA
ENDROOT
BRANCH   1   4
ATOM      4  C   UNL d   1      60.692  49.083  50.832  0.00  0.00     0.107 A 
ATOM      5  C   UNL d   1      60.946  48.296  50.826  0.00  0.00     0.037 A 
ATOM      6  C   UNL d   1      61.323  47.992  50.158  0.00  0.00     0.095 A 
ATOM      7  C   UNL d   1      61.445  48.474  49.497  0.00  0.00     0.024 A 
ATOM      8  C   UNL d   1      61.191  49.257  49.506  0.00  0.00     0.003 A 
ATOM      9  C   UNL d   1      60.814  49.562  50.174  0.00  0.00     0.013 A 
BRANCH   6  10
ATOM     10  O   UNL d   1      61.577  47.209  50.149  0.00  0.00    -0.328 OA
ATOM     11  C   UNL d   1      61.061  46.609  49.914  0.00  0.00     0.181 C 
ENDBRANCH   6  10
ENDBRANCH   1   4
BRANCH   1  12
ATOM     12  N   UNL d   1      59.592  49.357  51.099  0.00  0.00    -0.157 NA
BRANCH  12  13
ATOM     13  C   UNL d   1      58.916  49.700  51.441  0.00  0.00     0.112 C 
BRANCH  13  14
ATOM     14  C   UNL d   1      58.191  49.658  51.050  0.00  0.00     0.022 A 
ATOM     15  C   UNL d   1      58.175  49.594  50.228  0.00  0.00     0.028 A 
ATOM     16  C   UNL d   1      57.450  49.552  49.837  0.00  0.00     0.119 A 
ATOM     17  O   UNL d   1      57.264  49.488  49.039  0.00  0.00    -0.300 OA
ATOM     18  C   UNL d   1      56.742  49.573  50.259  0.00  0.00     0.119 A 
ATOM     19  C   UNL d   1      56.441  49.468  48.963  0.00  0.00     0.304 A 
ATOM     20  O   UNL d   1      56.128  49.522  49.730  0.00  0.00    -0.300 OA
ATOM     21  C   UNL d   1      56.767  49.637  51.086  0.00  0.00     0.026 A 
ATOM     22  C   UNL d   1      57.489  49.679  51.483  0.00  0.00     0.004 A 
ENDBRANCH  13  14
ENDBRANCH  12  13
ENDBRANCH   1  12
TORSDOF 5
ENDMDL
