MODEL 1
REMARK VINA RESULT:      -5.1      0.000      0.000
REMARK  2 active torsions:
REMARK  status: ('A' for Active; 'I' for Inactive)
REMARK    1  A    between atoms: C_2  and  N_1 
REMARK    2  A    between atoms: C_5  and  C_7 
ROOT
ATOM      1  C   UNL d   1      56.640  -0.236  32.525  0.00  0.00     0.070 A 
ATOM      2  C   UNL d   1      56.128   0.252  32.956  0.00  0.00     0.024 A 
ATOM      3  C   UNL d   1      55.505  -0.073  33.373  0.00  0.00     0.066 A 
ATOM      4  C   UNL d   1      56.529  -1.051  32.512  0.00  0.00     0.018 A 
ATOM      5  C   UNL d   1      55.389  -0.895  33.361  0.00  0.00     0.006 A 
ATOM      6  C   UNL d   1      55.901  -1.384  32.931  0.00  0.00     0.002 A 
ENDROOT
BRANCH   1   7
ATOM      7  N   UNL d   1      57.270   0.088  32.104  0.00  0.00    -0.242 N 
ATOM      8  C   UNL d   1      57.957   0.436  32.411  0.00  0.00     0.267 A 
ATOM      9  C   UNL d   1      58.429   0.682  31.788  0.00  0.00     0.066 A 
ATOM     10  O   UNL d   1      58.175   0.540  33.211  0.00  0.00    -0.267 OA
ATOM     11  C   UNL d   1      58.044   0.492  31.080  0.00  0.00     0.066 A 
ATOM     12  C   UNL d   1      57.331   0.126  31.276  0.00  0.00     0.267 A 
ATOM     13  O   UNL d   1      56.792  -0.143  30.705  0.00  0.00    -0.267 OA
ENDBRANCH   1   7
BRANCH   3  14
ATOM     14  C   UNL d   1      54.991   0.399  33.803  0.00  0.00     0.211 C 
ATOM     15  O   UNL d   1      54.299   0.682  33.466  0.00  0.00    -0.644 OA
ATOM     16  O   UNL d   1      55.179   0.590  34.588  0.00  0.00    -0.644 OA
ENDBRANCH   3  14
TORSDOF 2
ENDMDL
MODEL 2
REMARK VINA RESULT:      -5.1      1.081      2.991
REMARK  2 active torsions:
REMARK  status: ('A' for Active; 'I' for Inactive)
REMARK    1  A    between atoms: C_2  and  N_1 
REMARK    2  A    between atoms: C_5  and  C_7 
ROOT
ATOM      1  C   UNL d   1      56.002  -0.168  33.195  0.00  0.00     0.070 A 
ATOM      2  C   UNL d   1      56.413   0.308  32.655  0.00  0.00     0.024 A 
ATOM      3  C   UNL d   1      56.747  -0.024  31.987  0.00  0.00     0.066 A 
ATOM      4  C   UNL d   1      55.925  -0.976  33.066  0.00  0.00     0.018 A 
ATOM      5  C   UNL d   1      56.671  -0.840  31.853  0.00  0.00     0.006 A 
ATOM      6  C   UNL d   1      56.260  -1.316  32.393  0.00  0.00     0.002 A 
ENDROOT
BRANCH   1   7
ATOM      7  N   UNL d   1      55.664   0.164  33.869  0.00  0.00    -0.242 N 
ATOM      8  C   UNL d   1      56.046   0.372  34.574  0.00  0.00     0.267 A 
ATOM      9  C   UNL d   1      55.492   0.682  35.093  0.00  0.00     0.066 A 
ATOM     10  O   UNL d   1      56.856   0.299  34.770  0.00  0.00    -0.267 OA
ATOM     11  C   UNL d   1      54.753   0.671  34.719  0.00  0.00     0.066 A 
ATOM     12  C   UNL d   1      54.861   0.352  33.966  0.00  0.00     0.267 A 
ATOM     13  O   UNL d   1      54.238   0.254  33.426  0.00  0.00    -0.267 OA
ENDBRANCH   1   7
BRANCH   3  14
ATOM     14  C   UNL d   1      57.156   0.436  31.445  0.00  0.00     0.211 C 
ATOM     15  O   UNL d   1      57.931   0.661  31.586  0.00  0.00    -0.644 OA
ATOM     16  O   UNL d   1      56.774   0.673  30.747  0.00  0.00    -0.644 OA
ENDBRANCH   3  14
TORSDOF 2
ENDMDL
MODEL 3
REMARK VINA RESULT:      -4.4      1.032      3.326
REMARK  2 active torsions:
REMARK  status: ('A' for Active; 'I' for Inactive)
REMARK    1  A    between atoms: C_2  and  N_1 
REMARK    2  A    between atoms: C_5  and  C_7 
ROOT
ATOM      1  C   UNL d   1      56.905  -0.142  32.271  0.00  0.00     0.070 A 
ATOM      2  C   UNL d   1      57.025  -0.223  31.456  0.00  0.00     0.024 A 
ATOM      3  C   UNL d   1      57.660   0.145  31.097  0.00  0.00     0.066 A 
ATOM      4  C   UNL d   1      57.419   0.308  32.728  0.00  0.00     0.018 A 
ATOM      5  C   UNL d   1      58.182   0.601  31.554  0.00  0.00     0.006 A 
ATOM      6  C   UNL d   1      58.062   0.682  32.370  0.00  0.00     0.002 A 
ENDROOT
BRANCH   1   7
ATOM      7  N   UNL d   1      56.265  -0.512  32.637  0.00  0.00    -0.242 N 
ATOM      8  C   UNL d   1      56.097  -1.323  32.658  0.00  0.00     0.267 A 
ATOM      9  C   UNL d   1      55.406  -1.438  33.083  0.00  0.00     0.066 A 
ATOM     10  O   UNL d   1      56.527  -1.955  32.318  0.00  0.00    -0.267 OA
ATOM     11  C   UNL d   1      55.131  -0.698  33.336  0.00  0.00     0.066 A 
ATOM     12  C   UNL d   1      55.661  -0.130  33.060  0.00  0.00     0.267 A 
ATOM     13  O   UNL d   1      55.567   0.682  33.207  0.00  0.00    -0.267 OA
ENDBRANCH   1   7
BRANCH   3  14
ATOM     14  C   UNL d   1      57.791   0.073  30.290  0.00  0.00     0.211 C 
ATOM     15  O   UNL d   1      57.411   0.566  29.757  0.00  0.00    -0.644 OA
ATOM     16  O   UNL d   1      58.315  -0.510  30.017  0.00  0.00    -0.644 OA
ENDBRANCH   3  14
TORSDOF 2
ENDMDL
MODEL 4
REMARK VINA RESULT:      -4.2      8.679      9.606
REMARK  2 active torsions:
REMARK  status: ('A' for Active; 'I' for Inactive)
REMARK    1  A    between atoms: C_2  and  N_1 
REMARK    2  A    between atoms: C_5  and  C_7 
ROOT
ATOM      1  C   UNL d   1      59.518  -8.293  35.617  0.00  0.00     0.070 A 
ATOM      2  C   UNL d   1      59.666  -8.555  34.846  0.00  0.00     0.024 A 
ATOM      3  C   UNL d   1      59.445  -9.310  34.620  0.00  0.00     0.066 A 
ATOM      4  C   UNL d   1      59.149  -8.784  36.164  0.00  0.00     0.018 A 
ATOM      5  C   UNL d   1      59.073  -9.809  35.169  0.00  0.00     0.006 A 
ATOM      6  C   UNL d   1      58.925  -9.546  35.941  0.00  0.00     0.002 A 
ENDROOT
BRANCH   1   7
ATOM      7  N   UNL d   1      59.739  -7.533  35.848  0.00  0.00    -0.242 N 
ATOM      8  C   UNL d   1      59.283  -6.842  35.812  0.00  0.00     0.267 A 
ATOM      9  C   UNL d   1      59.727  -6.217  36.100  0.00  0.00     0.066 A 
ATOM     10  O   UNL d   1      58.499  -6.748  35.536  0.00  0.00    -0.267 OA
ATOM     11  C   UNL d   1      60.471  -6.508  36.322  0.00  0.00     0.066 A 
ATOM     12  C   UNL d   1      60.476  -7.318  36.166  0.00  0.00     0.267 A 
ATOM     13  O   UNL d   1      61.133  -7.801  36.319  0.00  0.00    -0.267 OA
ENDBRANCH   1   7
BRANCH   3  14
ATOM     14  C   UNL d   1      59.586  -9.582  33.859  0.00  0.00     0.211 C 
ATOM     15  O   UNL d   1      58.979  -9.625  33.310  0.00  0.00    -0.644 OA
ATOM     16  O   UNL d   1      60.354  -9.815  33.650  0.00  0.00    -0.644 OA
ENDBRANCH   3  14
TORSDOF 2
ENDMDL
MODEL 5
REMARK VINA RESULT:      -4.1      1.197      1.506
REMARK  2 active torsions:
REMARK  status: ('A' for Active; 'I' for Inactive)
REMARK    1  A    between atoms: C_2  and  N_1 
REMARK    2  A    between atoms: C_5  and  C_7 
ROOT
ATOM      1  C   UNL d   1      56.848   0.088  32.138  0.00  0.00     0.070 A 
ATOM      2  C   UNL d   1      56.707  -0.697  32.360  0.00  0.00     0.024 A 
ATOM      3  C   UNL d   1      56.035  -0.889  32.783  0.00  0.00     0.066 A 
ATOM      4  C   UNL d   1      56.316   0.682  32.338  0.00  0.00     0.018 A 
ATOM      5  C   UNL d   1      55.495  -0.293  32.988  0.00  0.00     0.006 A 
ATOM      6  C   UNL d   1      55.636   0.493  32.766  0.00  0.00     0.002 A 
ENDROOT
BRANCH   1   7
ATOM      7  N   UNL d   1      57.525   0.286  31.711  0.00  0.00    -0.242 N 
ATOM      8  C   UNL d   1      58.250   0.551  32.010  0.00  0.00     0.267 A 
ATOM      9  C   UNL d   1      58.763   0.679  31.384  0.00  0.00     0.066 A 
ATOM     10  O   UNL d   1      58.470   0.682  32.806  0.00  0.00    -0.267 OA
ATOM     11  C   UNL d   1      58.365   0.495  30.681  0.00  0.00     0.066 A 
ATOM     12  C   UNL d   1      57.603   0.253  30.884  0.00  0.00     0.267 A 
ATOM     13  O   UNL d   1      57.039   0.023  30.320  0.00  0.00    -0.267 OA
ENDBRANCH   1   7
BRANCH   3  14
ATOM     14  C   UNL d   1      55.884  -1.663  33.010  0.00  0.00     0.211 C 
ATOM     15  O   UNL d   1      55.472  -2.172  32.516  0.00  0.00    -0.644 OA
ATOM     16  O   UNL d   1      56.154  -1.928  33.748  0.00  0.00    -0.644 OA
ENDBRANCH   3  14
TORSDOF 2
ENDMDL
MODEL 6
REMARK VINA RESULT:      -3.4      1.774      2.811
REMARK  2 active torsions:
REMARK  status: ('A' for Active; 'I' for Inactive)
REMARK    1  A    between atoms: C_2  and  N_1 
REMARK    2  A    between atoms: C_5  and  C_7 
ROOT
ATOM      1  C   UNL d   1      58.067   0.016  30.637  0.00  0.00     0.070 A 
ATOM      2  C   UNL d   1      57.460  -0.480  30.907  0.00  0.00     0.024 A 
ATOM      3  C   UNL d   1      57.171  -0.397  31.667  0.00  0.00     0.066 A 
ATOM      4  C   UNL d   1      58.385   0.594  31.128  0.00  0.00     0.018 A 
ATOM      5  C   UNL d   1      57.489   0.186  32.165  0.00  0.00     0.006 A 
ATOM      6  C   UNL d   1      58.096   0.681  31.896  0.00  0.00     0.002 A 
ENDROOT
BRANCH   1   7
ATOM      7  N   UNL d   1      58.362  -0.065  29.872  0.00  0.00    -0.242 N 
ATOM      8  C   UNL d   1      59.052  -0.458  29.636  0.00  0.00     0.267 A 
ATOM      9  C   UNL d   1      59.125  -0.396  28.822  0.00  0.00     0.066 A 
ATOM     10  O   UNL d   1      59.609  -0.864  30.109  0.00  0.00    -0.267 OA
ATOM     11  C   UNL d   1      58.480   0.038  28.536  0.00  0.00     0.066 A 
ATOM     12  C   UNL d   1      58.012   0.242  29.183  0.00  0.00     0.267 A 
ATOM     13  O   UNL d   1      57.312   0.682  29.111  0.00  0.00    -0.267 OA
ENDBRANCH   1   7
BRANCH   3  14
ATOM     14  C   UNL d   1      56.570  -0.881  31.946  0.00  0.00     0.211 C 
ATOM     15  O   UNL d   1      55.919  -0.563  32.328  0.00  0.00    -0.644 OA
ATOM     16  O   UNL d   1      56.629  -1.702  31.836  0.00  0.00    -0.644 OA
ENDBRANCH   3  14
TORSDOF 2
ENDMDL
MODEL 7
REMARK VINA RESULT:      -3.3      3.185      4.649
REMARK  2 active torsions:
REMARK  status: ('A' for Active; 'I' for Inactive)
REMARK    1  A    between atoms: C_2  and  N_1 
REMARK    2  A    between atoms: C_5  and  C_7 
ROOT
ATOM      1  C   UNL d   1      59.012  -1.272  29.154  0.00  0.00     0.070 A 
ATOM      2  C   UNL d   1      58.700  -0.987  29.866  0.00  0.00     0.024 A 
ATOM      3  C   UNL d   1      58.299  -0.275  29.882  0.00  0.00     0.066 A 
ATOM      4  C   UNL d   1      58.924  -0.844  28.457  0.00  0.00     0.018 A 
ATOM      5  C   UNL d   1      58.208   0.160  29.181  0.00  0.00     0.006 A 
ATOM      6  C   UNL d   1      58.520  -0.125  28.469  0.00  0.00     0.002 A 
ENDROOT
BRANCH   1   7
ATOM      7  N   UNL d   1      59.417  -1.990  29.133  0.00  0.00    -0.242 N 
ATOM      8  C   UNL d   1      59.092  -2.750  29.081  0.00  0.00     0.267 A 
ATOM      9  C   UNL d   1      59.703  -3.297  29.078  0.00  0.00     0.066 A 
ATOM     10  O   UNL d   1      58.288  -2.972  29.037  0.00  0.00    -0.267 OA
ATOM     11  C   UNL d   1      60.420  -2.886  29.129  0.00  0.00     0.066 A 
ATOM     12  C   UNL d   1      60.242  -2.081  29.163  0.00  0.00     0.267 A 
ATOM     13  O   UNL d   1      60.826  -1.494  29.217  0.00  0.00    -0.267 OA
ENDBRANCH   1   7
BRANCH   3  14
ATOM     14  C   UNL d   1      57.985   0.018  30.581  0.00  0.00     0.211 C 
ATOM     15  O   UNL d   1      57.230  -0.191  30.822  0.00  0.00    -0.644 OA
ATOM     16  O   UNL d   1      58.442   0.532  31.045  0.00  0.00    -0.644 OA
ENDBRANCH   3  14
TORSDOF 2
ENDMDL
MODEL 8
REMARK VINA RESULT:      -2.8      9.389     10.114
REMARK  2 active torsions:
REMARK  status: ('A' for Active; 'I' for Inactive)
REMARK    1  A    between atoms: C_2  and  N_1 
REMARK    2  A    between atoms: C_5  and  C_7 
ROOT
ATOM      1  C   UNL d   1      59.830  -9.112  34.301  0.00  0.00     0.070 A 
ATOM      2  C   UNL d   1      59.148  -9.260  33.854  0.00  0.00     0.024 A 
ATOM      3  C   UNL d   1      59.211  -9.589  33.108  0.00  0.00     0.066 A 
ATOM      4  C   UNL d   1      60.574  -9.292  34.002  0.00  0.00     0.018 A 
ATOM      5  C   UNL d   1      59.960  -9.773  32.803  0.00  0.00     0.006 A 
ATOM      6  C   UNL d   1      60.642  -9.624  33.249  0.00  0.00     0.002 A 
ENDROOT
BRANCH   1   7
ATOM      7  N   UNL d   1      59.771  -8.780  35.053  0.00  0.00    -0.242 N 
ATOM      8  C   UNL d   1      59.326  -9.059  35.694  0.00  0.00     0.267 A 
ATOM      9  C   UNL d   1      59.434  -8.554  36.330  0.00  0.00     0.066 A 
ATOM     10  O   UNL d   1      58.836  -9.735  35.733  0.00  0.00    -0.267 OA
ATOM     11  C   UNL d   1      59.950  -7.949  36.096  0.00  0.00     0.066 A 
ATOM     12  C   UNL d   1      60.156  -8.090  35.310  0.00  0.00     0.267 A 
ATOM     13  O   UNL d   1      60.669  -7.595  34.884  0.00  0.00    -0.267 OA
ENDBRANCH   1   7
BRANCH   3  14
ATOM     14  C   UNL d   1      58.543  -9.741  32.656  0.00  0.00     0.211 C 
ATOM     15  O   UNL d   1      57.807  -9.817  33.006  0.00  0.00    -0.644 OA
ATOM     16  O   UNL d   1      58.622  -9.818  31.833  0.00  0.00    -0.644 OA
ENDBRANCH   3  14
TORSDOF 2
ENDMDL
MODEL 9
REMARK VINA RESULT:      -2.7      2.110      4.307
REMARK  2 active torsions:
REMARK  status: ('A' for Active; 'I' for Inactive)
REMARK    1  A    between atoms: C_2  and  N_1 
REMARK    2  A    between atoms: C_5  and  C_7 
ROOT
ATOM      1  C   UNL d   1      58.253   0.066  30.181  0.00  0.00     0.070 A 
ATOM      2  C   UNL d   1      58.512  -0.697  29.987  0.00  0.00     0.024 A 
ATOM      3  C   UNL d   1      58.661  -0.893  29.208  0.00  0.00     0.066 A 
ATOM      4  C   UNL d   1      58.144   0.632  29.595  0.00  0.00     0.018 A 
ATOM      5  C   UNL d   1      58.553  -0.324  28.614  0.00  0.00     0.006 A 
ATOM      6  C   UNL d   1      58.294   0.439  28.807  0.00  0.00     0.002 A 
ENDROOT
BRANCH   1   7
ATOM      7  N   UNL d   1      58.101   0.267  30.966  0.00  0.00    -0.242 N 
ATOM      8  C   UNL d   1      57.374   0.234  31.363  0.00  0.00     0.267 A 
ATOM      9  C   UNL d   1      57.484   0.486  32.135  0.00  0.00     0.066 A 
ATOM     10  O   UNL d   1      56.630  -0.009  31.070  0.00  0.00    -0.267 OA
ATOM     11  C   UNL d   1      58.284   0.682  32.232  0.00  0.00     0.066 A 
ATOM     12  C   UNL d   1      58.661   0.547  31.511  0.00  0.00     0.267 A 
ATOM     13  O   UNL d   1      59.472   0.682  31.396  0.00  0.00    -0.267 OA
ENDBRANCH   1   7
BRANCH   3  14
ATOM     14  C   UNL d   1      58.918  -1.645  29.002  0.00  0.00     0.211 C 
ATOM     15  O   UNL d   1      58.535  -2.311  29.286  0.00  0.00    -0.644 OA
ATOM     16  O   UNL d   1      59.575  -1.724  28.501  0.00  0.00    -0.644 OA
ENDBRANCH   3  14
TORSDOF 2
ENDMDL
