MODEL 1
REMARK VINA RESULT:      -0.6      0.000      0.000
REMARK  8 active torsions:
REMARK  status: ('A' for Active; 'I' for Inactive)
REMARK    1  A    between atoms: C_8  and  C_5 
REMARK    2  A    between atoms: S_22  and  C_6 
REMARK    3  A    between atoms: C_9  and  C_7 
REMARK    4  A    between atoms: C_12  and  C_9 
REMARK    5  A    between atoms: C_25  and  S_22 
REMARK    6  A    between atoms: O_24  and  C_26 
REMARK    7  A    between atoms: C_27  and  O_24 
REMARK    8  A    between atoms: C_26  and  C_25 
ROOT
ATOM      1  C   UNL d   1      58.069  -0.865  30.567  0.00  0.00     0.082 A 
ATOM      2  N   UNL d   1      58.012  -1.428  29.941  0.00  0.00    -0.238 NA
ATOM      3  C   UNL d   1      59.353  -1.060  29.515  0.00  0.00     0.092 A 
ATOM      4  C   UNL d   1      58.758  -0.419  30.650  0.00  0.00     0.019 A 
ATOM      5  C   UNL d   1      59.395  -0.514  30.131  0.00  0.00     0.019 A 
ATOM      6  C   UNL d   1      58.646  -1.523  29.422  0.00  0.00     0.120 A 
ATOM      7  C   UNL d   1      57.539  -0.649  31.160  0.00  0.00     0.018 A 
ATOM      8  C   UNL d   1      60.010  -1.151  28.988  0.00  0.00     0.103 C 
ATOM      9  N   UNL d   1      60.661  -1.240  28.466  0.00  0.00    -0.191 NA
ATOM     10  C   UNL d   1      58.650   0.076  31.301  0.00  0.00     0.002 A 
ATOM     11  C   UNL d   1      57.894  -0.063  31.623  0.00  0.00     0.002 A 
ENDROOT
BRANCH   5  12
ATOM     12  C   UNL d   1      60.085  -0.053  30.230  0.00  0.00     0.030 A 
ATOM     13  S   UNL d   1      60.453   0.256  29.576  0.00  0.00    -0.086 SA
ATOM     14  C   UNL d   1      61.109   0.681  29.822  0.00  0.00     0.035 A 
ATOM     15  C   UNL d   1      61.133   0.623  30.638  0.00  0.00     0.007 A 
ATOM     16  C   UNL d   1      60.497   0.168  30.880  0.00  0.00     0.007 A 
ENDBRANCH   5  12
BRANCH   6  17
ATOM     17  S   UNL d   1      58.591  -2.073  28.811  0.00  0.00    -0.065 SA
BRANCH  17  18
ATOM     18  C   UNL d   1      58.119  -2.753  28.898  0.00  0.00     0.064 C 
BRANCH  18  19
ATOM     19  C   UNL d   1      58.379  -3.497  28.590  0.00  0.00     0.130 C 
BRANCH  19  20
ATOM     20  O   UNL d   1      57.848  -4.134  28.573  0.00  0.00    -0.303 OA
BRANCH  20  21
ATOM     21  C   UNL d   1      58.149  -4.922  28.643  0.00  0.00     0.123 C 
ATOM     22  C   UNL d   1      57.657  -5.550  28.512  0.00  0.00     0.029 C 
ENDBRANCH  20  21
ENDBRANCH  19  20
ENDBRANCH  18  19
ENDBRANCH  17  18
ENDBRANCH   6  17
BRANCH   7  23
ATOM     23  C   UNL d   1      56.762  -0.959  31.293  0.00  0.00     0.008 C 
BRANCH  23  24
ATOM     24  C   UNL d   1      56.397  -0.847  32.034  0.00  0.00     0.029 A 
ATOM     25  S   UNL d   1      56.144  -0.172  32.414  0.00  0.00    -0.086 SA
ATOM     26  C   UNL d   1      55.824  -0.410  33.141  0.00  0.00     0.035 A 
ATOM     27  C   UNL d   1      55.891  -1.212  33.181  0.00  0.00     0.007 A 
ATOM     28  C   UNL d   1      56.238  -1.494  32.516  0.00  0.00     0.007 A 
ENDBRANCH  23  24
ENDBRANCH   7  23
TORSDOF 8
ENDMDL
