MODEL 1
REMARK VINA RESULT:      39.1      0.000      0.000
REMARK  8 active torsions:
REMARK  status: ('A' for Active; 'I' for Inactive)
REMARK    1  A    between atoms: N_2  and  C_1 
REMARK    2  A    between atoms: N_3  and  C_1 
REMARK    3  A    between atoms: C_6  and  C_1 
REMARK       I    between atoms: C_4  and  N_2 
REMARK       I    between atoms: C_5  and  N_3 
REMARK    4  A    between atoms: O_11  and  C_4 
REMARK    5  A    between atoms: O_12  and  C_5 
REMARK    6  A    between atoms: C_10  and  C_6 
REMARK    7  A    between atoms: C_15  and  O_11 
REMARK    8  A    between atoms: C_16  and  O_12 
ROOT
ATOM      1  C   UNL d   1     -51.391  25.272  33.679  0.00  0.00     0.211 C 
ENDROOT
BRANCH   1   2
ATOM      2  N   UNL d   1     -50.704  24.987  33.345  0.00  0.00    -0.163 NA
ATOM      3  C   UNL d   1     -50.350  24.310  33.646  0.00  0.00     0.394 C 
ATOM      4  O   UNL d   1     -50.674  23.902  34.288  0.00  0.00    -0.236 OA
BRANCH   3   5
ATOM      5  O   UNL d   1     -49.654  24.022  33.308  0.00  0.00    -0.256 OA
BRANCH   5   6
ATOM      6  C   UNL d   1     -49.010  23.808  33.794  0.00  0.00     0.128 C 
ATOM      7  C   UNL d   1     -48.496  23.206  33.566  0.00  0.00     0.029 C 
ENDBRANCH   5   6
ENDBRANCH   3   5
ENDBRANCH   1   2
BRANCH   1   8
ATOM      8  N   UNL d   1     -52.132  24.900  33.527  0.00  0.00    -0.163 NA
ATOM      9  C   UNL d   1     -52.192  24.082  33.459  0.00  0.00     0.394 C 
ATOM     10  O   UNL d   1     -51.512  23.636  33.543  0.00  0.00    -0.236 OA
BRANCH   9  11
ATOM     11  O   UNL d   1     -52.930  23.714  33.308  0.00  0.00    -0.256 OA
BRANCH  11  12
ATOM     12  C   UNL d   1     -53.398  23.806  33.779  0.00  0.00     0.128 C 
ATOM     13  C   UNL d   1     -54.185  23.549  33.588  0.00  0.00     0.029 C 
ENDBRANCH  11  12
ENDBRANCH   9  11
ENDBRANCH   1   8
BRANCH   1  14
ATOM     14  C   UNL d   1     -51.369  25.940  34.179  0.00  0.00     0.231 C 
ATOM     15  O   UNL d   1     -51.899  26.004  34.809  0.00  0.00    -0.283 OA
BRANCH  14  16
ATOM     16  C   UNL d   1     -50.806  26.558  34.048  0.00  0.00     0.042 A 
ATOM     17  C   UNL d   1     -50.938  27.110  33.455  0.00  0.00     0.003 A 
ATOM     18  C   UNL d   1     -50.402  27.715  33.316  0.00  0.00     0.000 A 
ATOM     19  C   UNL d   1     -49.706  27.772  33.790  0.00  0.00     0.000 A 
ATOM     20  C   UNL d   1     -49.586  27.220  34.376  0.00  0.00     0.000 A 
ATOM     21  C   UNL d   1     -50.129  26.613  34.509  0.00  0.00     0.003 A 
ENDBRANCH  14  16
ENDBRANCH   1  14
TORSDOF 8
ENDMDL
