MODEL 1
REMARK VINA RESULT:      -4.6      0.000      0.000
REMARK  3 active torsions:
REMARK  status: ('A' for Active; 'I' for Inactive)
REMARK    1  A    between atoms: N_7  and  C_2 
REMARK    2  A    between atoms: C_10  and  N_7 
REMARK    3  A    between atoms: C_12  and  C_10 
ROOT
ATOM      1  C   UNL d   1      58.618  -0.073  29.422  0.00  0.00     0.184 A 
ATOM      2  C   UNL d   1      58.314  -0.770  29.671  0.00  0.00     0.108 A 
ATOM      3  C   UNL d   1      59.233  -0.063  28.842  0.00  0.00     0.321 A 
ATOM      4  O   UNL d   1      59.514  -0.752  28.536  0.00  0.00    -0.272 OA
ATOM      5  C   UNL d   1      58.599  -1.482  29.361  0.00  0.00     0.042 A 
ATOM      6  C   UNL d   1      59.204  -1.473  28.789  0.00  0.00     0.105 A 
ATOM      7  O   UNL d   1      59.557   0.668  28.576  0.00  0.00    -0.257 OA
ATOM      8  N   UNL d   1      58.315   0.649  29.750  0.00  0.00    -0.141 N 
ATOM      9  C   UNL d   1      58.285  -2.191  29.618  0.00  0.00     0.004 A 
ATOM     10  C   UNL d   1      59.486  -2.173  28.483  0.00  0.00     0.025 A 
ATOM     11  C   UNL d   1      58.561  -2.902  29.316  0.00  0.00     0.000 A 
ATOM     12  C   UNL d   1      59.175  -2.893  28.736  0.00  0.00     0.002 A 
ENDROOT
BRANCH   2  13
ATOM     13  N   UNL d   1      57.713  -0.780  30.238  0.00  0.00    -0.242 NA
BRANCH  13  14
ATOM     14  C   UNL d   1      57.845  -0.396  30.943  0.00  0.00     0.099 C 
BRANCH  14  15
ATOM     15  C   UNL d   1      57.219  -0.375  31.510  0.00  0.00     0.019 A 
ATOM     16  C   UNL d   1      56.893  -1.069  31.762  0.00  0.00     0.002 A 
ATOM     17  C   UNL d   1      56.280  -1.049  32.315  0.00  0.00     0.000 A 
ATOM     18  C   UNL d   1      56.008  -0.334  32.603  0.00  0.00     0.000 A 
ATOM     19  C   UNL d   1      56.349   0.374  32.338  0.00  0.00     0.000 A 
ATOM     20  C   UNL d   1      56.962   0.351  31.785  0.00  0.00     0.002 A 
ENDBRANCH  14  15
ENDBRANCH  13  14
ENDBRANCH   2  13
TORSDOF 3
ENDMDL
MODEL 2
REMARK VINA RESULT:      -4.5      2.033      2.519
REMARK  3 active torsions:
REMARK  status: ('A' for Active; 'I' for Inactive)
REMARK    1  A    between atoms: N_7  and  C_2 
REMARK    2  A    between atoms: C_10  and  N_7 
REMARK    3  A    between atoms: C_12  and  C_10 
ROOT
ATOM      1  C   UNL d   1      58.961   0.676  31.795  0.00  0.00     0.184 A 
ATOM      2  C   UNL d   1      58.269   0.674  31.391  0.00  0.00     0.108 A 
ATOM      3  C   UNL d   1      59.694   0.680  31.375  0.00  0.00     0.321 A 
ATOM      4  O   UNL d   1      59.703   0.681  30.571  0.00  0.00    -0.272 OA
ATOM      5  C   UNL d   1      58.271   0.675  30.563  0.00  0.00     0.042 A 
ATOM      6  C   UNL d   1      58.994   0.678  30.150  0.00  0.00     0.105 A 
ATOM      7  O   UNL d   1      60.425   0.682  31.795  0.00  0.00    -0.257 OA
ATOM      8  N   UNL d   1      58.941   0.675  32.643  0.00  0.00    -0.141 N 
ATOM      9  C   UNL d   1      57.563   0.673  30.156  0.00  0.00     0.004 A 
ATOM     10  C   UNL d   1      58.997   0.679  29.336  0.00  0.00     0.025 A 
ATOM     11  C   UNL d   1      57.555   0.674  29.336  0.00  0.00     0.000 A 
ATOM     12  C   UNL d   1      58.288   0.677  28.917  0.00  0.00     0.002 A 
ENDROOT
BRANCH   2  13
ATOM     13  N   UNL d   1      57.552   0.671  31.801  0.00  0.00    -0.242 NA
BRANCH  13  14
ATOM     14  C   UNL d   1      57.424   0.080  32.346  0.00  0.00     0.099 C 
BRANCH  14  15
ATOM     15  C   UNL d   1      56.651   0.008  32.681  0.00  0.00     0.019 A 
ATOM     16  C   UNL d   1      56.315   0.650  33.036  0.00  0.00     0.002 A 
ATOM     17  C   UNL d   1      55.560   0.578  33.363  0.00  0.00     0.000 A 
ATOM     18  C   UNL d   1      55.160  -0.133  33.328  0.00  0.00     0.000 A 
ATOM     19  C   UNL d   1      55.514  -0.788  32.960  0.00  0.00     0.000 A 
ATOM     20  C   UNL d   1      56.269  -0.714  32.634  0.00  0.00     0.002 A 
ENDBRANCH  14  15
ENDBRANCH  13  14
ENDBRANCH   2  13
TORSDOF 3
ENDMDL
MODEL 3
REMARK VINA RESULT:      -4.4      1.783      2.236
REMARK  3 active torsions:
REMARK  status: ('A' for Active; 'I' for Inactive)
REMARK    1  A    between atoms: N_7  and  C_2 
REMARK    2  A    between atoms: C_10  and  N_7 
REMARK    3  A    between atoms: C_12  and  C_10 
ROOT
ATOM      1  C   UNL d   1      58.077   0.590  29.906  0.00  0.00     0.184 A 
ATOM      2  C   UNL d   1      58.311   0.606  30.672  0.00  0.00     0.108 A 
ATOM      3  C   UNL d   1      58.654   0.599  29.289  0.00  0.00     0.321 A 
ATOM      4  O   UNL d   1      59.438   0.624  29.465  0.00  0.00    -0.272 OA
ATOM      5  C   UNL d   1      59.116   0.631  30.860  0.00  0.00     0.042 A 
ATOM      6  C   UNL d   1      59.684   0.640  30.252  0.00  0.00     0.105 A 
ATOM      7  O   UNL d   1      58.413   0.583  28.481  0.00  0.00    -0.257 OA
ATOM      8  N   UNL d   1      57.247   0.564  29.730  0.00  0.00    -0.141 N 
ATOM      9  C   UNL d   1      59.349   0.647  31.643  0.00  0.00     0.004 A 
ATOM     10  C   UNL d   1      60.477   0.666  30.435  0.00  0.00     0.025 A 
ATOM     11  C   UNL d   1      60.145   0.672  31.839  0.00  0.00     0.000 A 
ATOM     12  C   UNL d   1      60.722   0.682  31.221  0.00  0.00     0.002 A 
ENDROOT
BRANCH   2  13
ATOM     13  N   UNL d   1      57.747   0.596  31.276  0.00  0.00    -0.242 NA
BRANCH  13  14
ATOM     14  C   UNL d   1      57.350  -0.099  31.420  0.00  0.00     0.099 C 
BRANCH  14  15
ATOM     15  C   UNL d   1      56.792  -0.116  32.054  0.00  0.00     0.019 A 
ATOM     16  C   UNL d   1      56.432  -0.813  32.243  0.00  0.00     0.002 A 
ATOM     17  C   UNL d   1      55.887  -0.829  32.863  0.00  0.00     0.000 A 
ATOM     18  C   UNL d   1      55.714  -0.148  33.279  0.00  0.00     0.000 A 
ATOM     19  C   UNL d   1      56.089   0.565  33.077  0.00  0.00     0.000 A 
ATOM     20  C   UNL d   1      56.634   0.578  32.457  0.00  0.00     0.002 A 
ENDBRANCH  14  15
ENDBRANCH  13  14
ENDBRANCH   2  13
TORSDOF 3
ENDMDL
MODEL 4
REMARK VINA RESULT:      -3.7      3.119      5.391
REMARK  3 active torsions:
REMARK  status: ('A' for Active; 'I' for Inactive)
REMARK    1  A    between atoms: N_7  and  C_2 
REMARK    2  A    between atoms: C_10  and  N_7 
REMARK    3  A    between atoms: C_12  and  C_10 
ROOT
ATOM      1  C   UNL d   1      56.976   0.681  34.331  0.00  0.00     0.184 A 
ATOM      2  C   UNL d   1      56.460   0.681  33.719  0.00  0.00     0.108 A 
ATOM      3  C   UNL d   1      56.689   0.680  35.126  0.00  0.00     0.321 A 
ATOM      4  O   UNL d   1      55.898   0.680  35.273  0.00  0.00    -0.272 OA
ATOM      5  C   UNL d   1      55.645   0.681  33.864  0.00  0.00     0.042 A 
ATOM      6  C   UNL d   1      55.362   0.681  34.647  0.00  0.00     0.105 A 
ATOM      7  O   UNL d   1      57.229   0.680  35.774  0.00  0.00    -0.257 OA
ATOM      8  N   UNL d   1      57.809   0.681  34.166  0.00  0.00    -0.141 N 
ATOM      9  C   UNL d   1      55.122   0.682  33.236  0.00  0.00     0.004 A 
ATOM     10  C   UNL d   1      54.561   0.681  34.790  0.00  0.00     0.025 A 
ATOM     11  C   UNL d   1      54.313   0.682  33.369  0.00  0.00     0.000 A 
ATOM     12  C   UNL d   1      54.026   0.681  34.164  0.00  0.00     0.002 A 
ENDROOT
BRANCH   2  13
ATOM     13  N   UNL d   1      56.740   0.682  32.942  0.00  0.00    -0.242 NA
BRANCH  13  14
ATOM     14  C   UNL d   1      57.107   0.011  32.666  0.00  0.00     0.099 C 
BRANCH  14  15
ATOM     15  C   UNL d   1      57.333  -0.014  31.852  0.00  0.00     0.019 A 
ATOM     16  C   UNL d   1      57.592   0.662  31.495  0.00  0.00     0.002 A 
ATOM     17  C   UNL d   1      57.813   0.637  30.700  0.00  0.00     0.000 A 
ATOM     18  C   UNL d   1      57.769  -0.063  30.280  0.00  0.00     0.000 A 
ATOM     19  C   UNL d   1      57.501  -0.752  30.656  0.00  0.00     0.000 A 
ATOM     20  C   UNL d   1      57.281  -0.725  31.452  0.00  0.00     0.002 A 
ENDBRANCH  14  15
ENDBRANCH  13  14
ENDBRANCH   2  13
TORSDOF 3
ENDMDL
MODEL 5
REMARK VINA RESULT:      -3.3      0.907      1.890
REMARK  3 active torsions:
REMARK  status: ('A' for Active; 'I' for Inactive)
REMARK    1  A    between atoms: N_7  and  C_2 
REMARK    2  A    between atoms: C_10  and  N_7 
REMARK    3  A    between atoms: C_12  and  C_10 
ROOT
ATOM      1  C   UNL d   1      58.510  -1.774  29.531  0.00  0.00     0.184 A 
ATOM      2  C   UNL d   1      58.577  -0.990  29.684  0.00  0.00     0.108 A 
ATOM      3  C   UNL d   1      59.079  -2.158  29.039  0.00  0.00     0.321 A 
ATOM      4  O   UNL d   1      59.689  -1.741  28.721  0.00  0.00    -0.272 OA
ATOM      5  C   UNL d   1      59.202  -0.556  29.360  0.00  0.00     0.042 A 
ATOM      6  C   UNL d   1      59.762  -0.934  28.875  0.00  0.00     0.105 A 
ATOM      7  O   UNL d   1      59.013  -2.982  28.874  0.00  0.00    -0.257 OA
ATOM      8  N   UNL d   1      57.863  -2.205  29.871  0.00  0.00    -0.141 N 
ATOM      9  C   UNL d   1      59.266   0.243  29.519  0.00  0.00     0.004 A 
ATOM     10  C   UNL d   1      60.378  -0.508  28.555  0.00  0.00     0.025 A 
ATOM     11  C   UNL d   1      59.882   0.682  29.203  0.00  0.00     0.000 A 
ATOM     12  C   UNL d   1      60.451   0.298  28.710  0.00  0.00     0.002 A 
ENDROOT
BRANCH   2  13
ATOM     13  N   UNL d   1      58.020  -0.615  30.166  0.00  0.00    -0.242 NA
BRANCH  13  14
ATOM     14  C   UNL d   1      57.829  -0.964  30.875  0.00  0.00     0.099 C 
BRANCH  14  15
ATOM     15  C   UNL d   1      57.320  -0.543  31.402  0.00  0.00     0.019 A 
ATOM     16  C   UNL d   1      56.774  -0.954  31.832  0.00  0.00     0.002 A 
ATOM     17  C   UNL d   1      56.275  -0.543  32.347  0.00  0.00     0.000 A 
ATOM     18  C   UNL d   1      56.335   0.268  32.419  0.00  0.00     0.000 A 
ATOM     19  C   UNL d   1      56.899   0.682  31.973  0.00  0.00     0.000 A 
ATOM     20  C   UNL d   1      57.396   0.269  31.459  0.00  0.00     0.002 A 
ENDBRANCH  14  15
ENDBRANCH  13  14
ENDBRANCH   2  13
TORSDOF 3
ENDMDL
MODEL 6
REMARK VINA RESULT:      -2.4      3.061      5.161
REMARK  3 active torsions:
REMARK  status: ('A' for Active; 'I' for Inactive)
REMARK    1  A    between atoms: N_7  and  C_2 
REMARK    2  A    between atoms: C_10  and  N_7 
REMARK    3  A    between atoms: C_12  and  C_10 
ROOT
ATOM      1  C   UNL d   1      55.598   0.667  33.281  0.00  0.00     0.184 A 
ATOM      2  C   UNL d   1      56.397   0.667  33.328  0.00  0.00     0.108 A 
ATOM      3  C   UNL d   1      55.134   0.673  33.987  0.00  0.00     0.321 A 
ATOM      4  O   UNL d   1      55.490   0.678  34.708  0.00  0.00    -0.272 OA
ATOM      5  C   UNL d   1      56.770   0.672  34.067  0.00  0.00     0.042 A 
ATOM      6  C   UNL d   1      56.313   0.677  34.762  0.00  0.00     0.105 A 
ATOM      7  O   UNL d   1      54.292   0.674  33.944  0.00  0.00    -0.257 OA
ATOM      8  N   UNL d   1      55.231   0.663  32.516  0.00  0.00    -0.141 N 
ATOM      9  C   UNL d   1      57.586   0.671  34.109  0.00  0.00     0.004 A 
ATOM     10  C   UNL d   1      56.678   0.682  35.490  0.00  0.00     0.025 A 
ATOM     11  C   UNL d   1      57.964   0.676  34.837  0.00  0.00     0.000 A 
ATOM     12  C   UNL d   1      57.500   0.681  35.543  0.00  0.00     0.002 A 
ENDROOT
BRANCH   2  13
ATOM     13  N   UNL d   1      56.851   0.662  32.638  0.00  0.00    -0.242 NA
BRANCH  13  14
ATOM     14  C   UNL d   1      56.939  -0.043  32.242  0.00  0.00     0.099 C 
BRANCH  14  15
ATOM     15  C   UNL d   1      57.366  -0.040  31.513  0.00  0.00     0.019 A 
ATOM     16  C   UNL d   1      57.432  -0.727  31.093  0.00  0.00     0.002 A 
ATOM     17  C   UNL d   1      57.849  -0.724  30.380  0.00  0.00     0.000 A 
ATOM     18  C   UNL d   1      58.191  -0.035  30.104  0.00  0.00     0.000 A 
ATOM     19  C   UNL d   1      58.119   0.666  30.543  0.00  0.00     0.000 A 
ATOM     20  C   UNL d   1      57.701   0.660  31.256  0.00  0.00     0.002 A 
ENDBRANCH  14  15
ENDBRANCH  13  14
ENDBRANCH   2  13
TORSDOF 3
ENDMDL
