MODEL 1
REMARK VINA RESULT:      -7.9      0.000      0.000
REMARK  6 active torsions:
REMARK  status: ('A' for Active; 'I' for Inactive)
REMARK       I    between atoms: N_2  and  C_1 
REMARK       I    between atoms: N_7  and  C_1 
REMARK    1  A    between atoms: C_4  and  N_2 
REMARK       I    between atoms: C_3  and  N_8 
REMARK    2  A    between atoms: C_6  and  C_3 
REMARK    3  A    between atoms: N_5  and  C_12 
REMARK    4  A    between atoms: C_12  and  C_6 
REMARK    5  A    between atoms: N_8  and  N_7 
REMARK    6  A    between atoms: O_14  and  C_10 
ROOT
ATOM      1  C   UNL d   1      51.629  33.661  53.131  0.00  0.00     0.387 C 
ATOM      2  N   UNL d   1      52.209  33.165  52.809  0.00  0.00    -0.188 NA
ATOM      3  N   UNL d   1      50.987  33.880  52.682  0.00  0.00    -0.085 NA
ATOM      4  O   UNL d   1      51.708  33.930  53.909  0.00  0.00    -0.241 OA
ENDROOT
BRANCH   3   5
ATOM      5  N   UNL d   1      50.408  34.376  53.004  0.00  0.00    -0.101 NA
ATOM      6  C   UNL d   1      49.770  34.622  52.542  0.00  0.00     0.298 C 
ATOM      7  O   UNL d   1      49.712  34.372  51.758  0.00  0.00    -0.264 OA
BRANCH   6   8
ATOM      8  C   UNL d   1      49.197  35.115  52.867  0.00  0.00     0.083 C 
BRANCH   8   9
ATOM      9  C   UNL d   1      48.613  35.431  52.384  0.00  0.00     0.085 C 
BRANCH   9  10
ATOM     10  N   UNL d   1      47.989  35.860  52.714  0.00  0.00    -0.299 N 
ATOM     11  C   UNL d   1      48.063  36.171  53.466  0.00  0.00     0.107 A 
ATOM     12  C   UNL d   1      47.440  36.599  53.795  0.00  0.00     0.142 A 
ATOM     13  O   UNL d   1      46.743  36.709  53.361  0.00  0.00    -0.300 OA
ATOM     14  C   UNL d   1      46.670  36.394  52.603  0.00  0.00     0.142 A 
ATOM     15  C   UNL d   1      47.293  35.970  52.281  0.00  0.00     0.107 A 
ENDBRANCH   9  10
ENDBRANCH   8   9
ENDBRANCH   6   8
ENDBRANCH   3   5
BRANCH   2  16
ATOM     16  C   UNL d   1      52.860  32.941  53.263  0.00  0.00     0.108 A 
ATOM     17  C   UNL d   1      53.133  32.169  53.240  0.00  0.00     0.112 A 
ATOM     18  C   UNL d   1      53.777  31.942  53.686  0.00  0.00     0.026 A 
ATOM     19  C   UNL d   1      54.160  32.494  54.168  0.00  0.00     0.002 A 
ATOM     20  C   UNL d   1      53.889  33.274  54.194  0.00  0.00     0.002 A 
ATOM     21  C   UNL d   1      53.237  33.498  53.741  0.00  0.00     0.021 A 
BRANCH  17  22
ATOM     22  O   UNL d   1      52.751  31.620  52.760  0.00  0.00    -0.327 OA
ATOM     23  C   UNL d   1      52.940  30.817  52.831  0.00  0.00     0.181 C 
ENDBRANCH  17  22
ENDBRANCH   2  16
TORSDOF 6
ENDMDL
MODEL 2
REMARK VINA RESULT:      -7.0      1.015      1.562
REMARK  6 active torsions:
REMARK  status: ('A' for Active; 'I' for Inactive)
REMARK       I    between atoms: N_2  and  C_1 
REMARK       I    between atoms: N_7  and  C_1 
REMARK    1  A    between atoms: C_4  and  N_2 
REMARK       I    between atoms: C_3  and  N_8 
REMARK    2  A    between atoms: C_6  and  C_3 
REMARK    3  A    between atoms: N_5  and  C_12 
REMARK    4  A    between atoms: C_12  and  C_6 
REMARK    5  A    between atoms: N_8  and  N_7 
REMARK    6  A    between atoms: O_14  and  C_10 
ROOT
ATOM      1  C   UNL d   1      51.570  33.440  53.212  0.00  0.00     0.387 C 
ATOM      2  N   UNL d   1      52.320  33.394  53.561  0.00  0.00    -0.188 NA
ATOM      3  N   UNL d   1      51.149  34.135  53.243  0.00  0.00    -0.085 NA
ATOM      4  O   UNL d   1      51.255  32.775  52.833  0.00  0.00    -0.241 OA
ENDROOT
BRANCH   3   5
ATOM      5  N   UNL d   1      50.400  34.180  52.894  0.00  0.00    -0.101 NA
ATOM      6  C   UNL d   1      49.920  34.838  53.026  0.00  0.00     0.298 C 
ATOM      7  O   UNL d   1      50.191  35.451  53.508  0.00  0.00    -0.264 OA
BRANCH   6   8
ATOM      8  C   UNL d   1      49.177  34.877  52.677  0.00  0.00     0.083 C 
BRANCH   8   9
ATOM      9  C   UNL d   1      48.756  35.582  52.696  0.00  0.00     0.085 C 
BRANCH   9  10
ATOM     10  N   UNL d   1      48.015  35.634  52.335  0.00  0.00    -0.299 N 
ATOM     11  C   UNL d   1      47.905  35.322  51.589  0.00  0.00     0.107 A 
ATOM     12  C   UNL d   1      47.165  35.374  51.228  0.00  0.00     0.142 A 
ATOM     13  O   UNL d   1      46.539  35.742  51.626  0.00  0.00    -0.300 OA
ATOM     14  C   UNL d   1      46.653  36.057  52.379  0.00  0.00     0.142 A 
ATOM     15  C   UNL d   1      47.391  36.003  52.732  0.00  0.00     0.107 A 
ENDBRANCH   9  10
ENDBRANCH   8   9
ENDBRANCH   6   8
ENDBRANCH   3   5
BRANCH   2  16
ATOM     16  C   UNL d   1      52.748  32.690  53.531  0.00  0.00     0.108 A 
ATOM     17  C   UNL d   1      53.391  32.577  54.026  0.00  0.00     0.112 A 
ATOM     18  C   UNL d   1      53.818  31.883  54.000  0.00  0.00     0.026 A 
ATOM     19  C   UNL d   1      53.604  31.285  53.471  0.00  0.00     0.002 A 
ATOM     20  C   UNL d   1      52.957  31.395  52.970  0.00  0.00     0.002 A 
ATOM     21  C   UNL d   1      52.528  32.099  53.000  0.00  0.00     0.021 A 
BRANCH  17  22
ATOM     22  O   UNL d   1      53.604  33.172  54.553  0.00  0.00    -0.327 OA
ATOM     23  C   UNL d   1      54.254  33.059  55.054  0.00  0.00     0.181 C 
ENDBRANCH  17  22
ENDBRANCH   2  16
TORSDOF 6
ENDMDL
MODEL 3
REMARK VINA RESULT:      -5.5      9.537     10.860
REMARK  6 active torsions:
REMARK  status: ('A' for Active; 'I' for Inactive)
REMARK       I    between atoms: N_2  and  C_1 
REMARK       I    between atoms: N_7  and  C_1 
REMARK    1  A    between atoms: C_4  and  N_2 
REMARK       I    between atoms: C_3  and  N_8 
REMARK    2  A    between atoms: C_6  and  C_3 
REMARK    3  A    between atoms: N_5  and  C_12 
REMARK    4  A    between atoms: C_12  and  C_6 
REMARK    5  A    between atoms: N_8  and  N_7 
REMARK    6  A    between atoms: O_14  and  C_10 
ROOT
ATOM      1  C   UNL d   1      44.900  28.520  57.151  0.00  0.00     0.387 C 
ATOM      2  N   UNL d   1      44.942  29.043  57.792  0.00  0.00    -0.188 NA
ATOM      3  N   UNL d   1      44.980  27.720  57.273  0.00  0.00    -0.085 NA
ATOM      4  O   UNL d   1      44.776  28.817  56.389  0.00  0.00    -0.241 OA
ENDROOT
BRANCH   3   5
ATOM      5  N   UNL d   1      44.938  27.198  56.633  0.00  0.00    -0.101 NA
ATOM      6  C   UNL d   1      44.902  26.384  56.763  0.00  0.00     0.298 C 
ATOM      7  O   UNL d   1      44.908  26.093  57.535  0.00  0.00    -0.264 OA
BRANCH   6   8
ATOM      8  C   UNL d   1      44.861  25.870  56.123  0.00  0.00     0.083 C 
BRANCH   8   9
ATOM      9  C   UNL d   1      44.781  25.064  56.254  0.00  0.00     0.085 C 
BRANCH   9  10
ATOM     10  N   UNL d   1      44.757  24.539  55.617  0.00  0.00    -0.299 N 
ATOM     11  C   UNL d   1      44.365  24.750  54.932  0.00  0.00     0.107 A 
ATOM     12  C   UNL d   1      44.341  24.226  54.296  0.00  0.00     0.142 A 
ATOM     13  O   UNL d   1      44.714  23.489  54.356  0.00  0.00    -0.300 OA
ATOM     14  C   UNL d   1      45.109  23.278  55.048  0.00  0.00     0.142 A 
ATOM     15  C   UNL d   1      45.130  23.803  55.677  0.00  0.00     0.107 A 
ENDBRANCH   9  10
ENDBRANCH   8   9
ENDBRANCH   6   8
ENDBRANCH   3   5
BRANCH   2  16
ATOM     16  C   UNL d   1      44.860  29.854  57.670  0.00  0.00     0.108 A 
ATOM     17  C   UNL d   1      44.935  30.375  58.298  0.00  0.00     0.112 A 
ATOM     18  C   UNL d   1      44.855  31.178  58.184  0.00  0.00     0.026 A 
ATOM     19  C   UNL d   1      44.698  31.474  57.428  0.00  0.00     0.002 A 
ATOM     20  C   UNL d   1      44.622  30.953  56.792  0.00  0.00     0.002 A 
ATOM     21  C   UNL d   1      44.704  30.141  56.913  0.00  0.00     0.021 A 
BRANCH  17  22
ATOM     22  O   UNL d   1      45.091  30.081  59.051  0.00  0.00    -0.327 OA
ATOM     23  C   UNL d   1      45.050  30.588  59.704  0.00  0.00     0.181 C 
ENDBRANCH  17  22
ENDBRANCH   2  16
TORSDOF 6
ENDMDL
MODEL 4
REMARK VINA RESULT:      -5.2     10.057     10.670
REMARK  6 active torsions:
REMARK  status: ('A' for Active; 'I' for Inactive)
REMARK       I    between atoms: N_2  and  C_1 
REMARK       I    between atoms: N_7  and  C_1 
REMARK    1  A    between atoms: C_4  and  N_2 
REMARK       I    between atoms: C_3  and  N_8 
REMARK    2  A    between atoms: C_6  and  C_3 
REMARK    3  A    between atoms: N_5  and  C_12 
REMARK    4  A    between atoms: C_12  and  C_6 
REMARK    5  A    between atoms: N_8  and  N_7 
REMARK    6  A    between atoms: O_14  and  C_10 
ROOT
ATOM      1  C   UNL d   1      44.850  25.603  56.184  0.00  0.00     0.387 C 
ATOM      2  N   UNL d   1      45.062  24.805  56.130  0.00  0.00    -0.188 NA
ATOM      3  N   UNL d   1      45.028  26.026  56.855  0.00  0.00    -0.085 NA
ATOM      4  O   UNL d   1      44.457  25.965  55.552  0.00  0.00    -0.241 OA
ENDROOT
BRANCH   3   5
ATOM      5  N   UNL d   1      44.816  26.824  56.909  0.00  0.00    -0.101 NA
ATOM      6  C   UNL d   1      45.081  27.282  57.542  0.00  0.00     0.298 C 
ATOM      7  O   UNL d   1      45.558  26.940  58.122  0.00  0.00    -0.264 OA
BRANCH   6   8
ATOM      8  C   UNL d   1      44.868  28.074  57.591  0.00  0.00     0.083 C 
BRANCH   8   9
ATOM      9  C   UNL d   1      45.350  28.601  57.995  0.00  0.00     0.085 C 
BRANCH   9  10
ATOM     10  N   UNL d   1      45.134  29.395  58.065  0.00  0.00    -0.299 N 
ATOM     11  C   UNL d   1      44.840  29.793  57.415  0.00  0.00     0.107 A 
ATOM     12  C   UNL d   1      44.623  30.586  57.484  0.00  0.00     0.142 A 
ATOM     13  O   UNL d   1      44.705  30.972  58.211  0.00  0.00    -0.300 OA
ATOM     14  C   UNL d   1      45.002  30.568  58.866  0.00  0.00     0.142 A 
ATOM     15  C   UNL d   1      45.216  29.781  58.791  0.00  0.00     0.107 A 
ENDBRANCH   9  10
ENDBRANCH   8   9
ENDBRANCH   6   8
ENDBRANCH   3   5
BRANCH   2  16
ATOM     16  C   UNL d   1      44.882  24.374  55.450  0.00  0.00     0.108 A 
ATOM     17  C   UNL d   1      45.085  23.582  55.397  0.00  0.00     0.112 A 
ATOM     18  C   UNL d   1      44.910  23.151  54.728  0.00  0.00     0.026 A 
ATOM     19  C   UNL d   1      44.523  23.514  54.093  0.00  0.00     0.002 A 
ATOM     20  C   UNL d   1      44.316  24.312  54.142  0.00  0.00     0.002 A 
ATOM     21  C   UNL d   1      44.496  24.742  54.821  0.00  0.00     0.021 A 
BRANCH  17  22
ATOM     22  O   UNL d   1      45.470  23.221  56.029  0.00  0.00    -0.327 OA
ATOM     23  C   UNL d   1      45.548  22.397  56.042  0.00  0.00     0.181 C 
ENDBRANCH  17  22
ENDBRANCH   2  16
TORSDOF 6
ENDMDL
MODEL 5
REMARK VINA RESULT:      -4.9     10.635     11.675
REMARK  6 active torsions:
REMARK  status: ('A' for Active; 'I' for Inactive)
REMARK       I    between atoms: N_2  and  C_1 
REMARK       I    between atoms: N_7  and  C_1 
REMARK    1  A    between atoms: C_4  and  N_2 
REMARK       I    between atoms: C_3  and  N_8 
REMARK    2  A    between atoms: C_6  and  C_3 
REMARK    3  A    between atoms: N_5  and  C_12 
REMARK    4  A    between atoms: C_12  and  C_6 
REMARK    5  A    between atoms: N_8  and  N_7 
REMARK    6  A    between atoms: O_14  and  C_10 
ROOT
ATOM      1  C   UNL d   1      44.924  26.504  56.724  0.00  0.00     0.387 C 
ATOM      2  N   UNL d   1      45.140  26.773  57.477  0.00  0.00    -0.188 NA
ATOM      3  N   UNL d   1      44.979  25.713  56.544  0.00  0.00    -0.085 NA
ATOM      4  O   UNL d   1      44.653  27.044  56.159  0.00  0.00    -0.241 OA
ENDROOT
BRANCH   3   5
ATOM      5  N   UNL d   1      44.763  25.444  55.792  0.00  0.00    -0.101 NA
ATOM      6  C   UNL d   1      44.806  24.640  55.610  0.00  0.00     0.298 C 
ATOM      7  O   UNL d   1      45.065  24.105  56.184  0.00  0.00    -0.264 OA
BRANCH   6   8
ATOM      8  C   UNL d   1      44.590  24.378  54.862  0.00  0.00     0.083 C 
BRANCH   8   9
ATOM      9  C   UNL d   1      44.897  23.674  54.574  0.00  0.00     0.085 C 
BRANCH   9  10
ATOM     10  N   UNL d   1      44.705  23.416  53.813  0.00  0.00    -0.299 N 
ATOM     11  C   UNL d   1      44.664  23.955  53.201  0.00  0.00     0.107 A 
ATOM     12  C   UNL d   1      44.472  23.698  52.442  0.00  0.00     0.142 A 
ATOM     13  O   UNL d   1      44.322  22.896  52.305  0.00  0.00    -0.300 OA
ATOM     14  C   UNL d   1      44.364  22.353  52.924  0.00  0.00     0.142 A 
ATOM     15  C   UNL d   1      44.555  22.615  53.677  0.00  0.00     0.107 A 
ENDBRANCH   9  10
ENDBRANCH   8   9
ENDBRANCH   6   8
ENDBRANCH   3   5
BRANCH   2  16
ATOM     16  C   UNL d   1      45.084  27.575  57.661  0.00  0.00     0.108 A 
ATOM     17  C   UNL d   1      44.995  27.814  58.440  0.00  0.00     0.112 A 
ATOM     18  C   UNL d   1      44.940  28.606  58.627  0.00  0.00     0.026 A 
ATOM     19  C   UNL d   1      44.974  29.176  58.029  0.00  0.00     0.002 A 
ATOM     20  C   UNL d   1      45.064  28.939  57.243  0.00  0.00     0.002 A 
ATOM     21  C   UNL d   1      45.119  28.137  57.059  0.00  0.00     0.021 A 
BRANCH  17  22
ATOM     22  O   UNL d   1      44.962  27.247  59.035  0.00  0.00    -0.327 OA
ATOM     23  C   UNL d   1      44.687  27.461  59.786  0.00  0.00     0.181 C 
ENDBRANCH  17  22
ENDBRANCH   2  16
TORSDOF 6
ENDMDL
