MODEL 1
REMARK VINA RESULT:      52.7      0.000      0.000
REMARK  4 active torsions:
REMARK  status: ('A' for Active; 'I' for Inactive)
REMARK    1  A    between atoms: C_9  and  C_1 
REMARK    2  A    between atoms: C_8  and  C_6 
REMARK    3  A    between atoms: C_14  and  C_9 
REMARK    4  A    between atoms: C_15  and  C_10 
ROOT
ATOM      1  C   UNL d   1      13.660  12.787  -2.476  0.00  0.00     0.089 A 
ATOM      2  C   UNL d   1      13.524  13.172  -3.746  0.00  0.00     0.048 A 
ATOM      3  C   UNL d   1      13.435  12.542  -3.220  0.00  0.00     0.114 A 
ATOM      4  C   UNL d   1      13.809  13.814  -3.311  0.00  0.00     0.112 A 
ATOM      5  S   UNL d   1      13.892  13.571  -2.523  0.00  0.00    -0.063 SA
ATOM      6  C   UNL d   1      13.386  13.250  -4.558  0.00  0.00     0.076 A 
ATOM      7  N   UNL d   1      13.952  14.526  -3.693  0.00  0.00    -0.239 NA
ATOM      8  C   UNL d   1      13.819  14.611  -4.492  0.00  0.00     0.082 A 
ATOM      9  C   UNL d   1      13.533  13.969  -4.927  0.00  0.00     0.023 A 
ATOM     10  N   UNL d   1      13.158  11.780  -3.428  0.00  0.00    -0.147 N 
ENDROOT
BRANCH   1  11
ATOM     11  C   UNL d   1      13.654  12.328  -1.795  0.00  0.00     0.203 C 
ATOM     12  O   UNL d   1      13.077  11.781  -1.680  0.00  0.00    -0.286 OA
BRANCH  11  13
ATOM     13  C   UNL d   1      14.250  12.435  -1.229  0.00  0.00     0.040 A 
ATOM     14  C   UNL d   1      14.132  12.913  -0.570  0.00  0.00     0.003 A 
ATOM     15  C   UNL d   1      14.723  13.013  -0.020  0.00  0.00     0.000 A 
ATOM     16  C   UNL d   1      15.460  12.626  -0.123  0.00  0.00     0.000 A 
ATOM     17  C   UNL d   1      15.582  12.153  -0.773  0.00  0.00     0.000 A 
ATOM     18  C   UNL d   1      14.988  12.048  -1.333  0.00  0.00     0.003 A 
ENDBRANCH  11  13
ENDBRANCH   1  11
BRANCH   6  19
ATOM     19  C   UNL d   1      13.101  12.610  -4.992  0.00  0.00     0.419 C 
ATOM     20  F   UNL d   1      12.820  11.979  -5.420  0.00  0.00    -0.166 F 
ATOM     21  F   UNL d   1      12.772  12.288  -4.301  0.00  0.00    -0.166 F 
ATOM     22  F   UNL d   1      13.427  12.929  -5.676  0.00  0.00    -0.166 F 
ENDBRANCH   6  19
BRANCH   8  23
ATOM     23  C   UNL d   1      13.962  15.323  -4.876  0.00  0.00     0.018 A 
ATOM     24  C   UNL d   1      13.452  15.565  -5.483  0.00  0.00     0.002 A 
ATOM     25  C   UNL d   1      13.576  16.279  -5.884  0.00  0.00     0.000 A 
ATOM     26  C   UNL d   1      14.231  16.755  -5.662  0.00  0.00     0.000 A 
ATOM     27  C   UNL d   1      14.740  16.513  -5.054  0.00  0.00     0.000 A 
ATOM     28  C   UNL d   1      14.594  15.796  -4.670  0.00  0.00     0.002 A 
ENDBRANCH   8  23
TORSDOF 4
ENDMDL
MODEL 2
REMARK VINA RESULT:      53.0      1.324      4.265
REMARK  4 active torsions:
REMARK  status: ('A' for Active; 'I' for Inactive)
REMARK    1  A    between atoms: C_9  and  C_1 
REMARK    2  A    between atoms: C_8  and  C_6 
REMARK    3  A    between atoms: C_14  and  C_9 
REMARK    4  A    between atoms: C_15  and  C_10 
ROOT
ATOM      1  C   UNL d   1      13.728  14.815  -3.918  0.00  0.00     0.089 A 
ATOM      2  C   UNL d   1      13.691  13.557  -3.477  0.00  0.00     0.048 A 
ATOM      3  C   UNL d   1      13.480  14.060  -4.097  0.00  0.00     0.114 A 
ATOM      4  C   UNL d   1      14.075  14.018  -2.909  0.00  0.00     0.112 A 
ATOM      5  S   UNL d   1      14.096  14.799  -3.186  0.00  0.00    -0.063 SA
ATOM      6  C   UNL d   1      13.586  12.746  -3.352  0.00  0.00     0.076 A 
ATOM      7  N   UNL d   1      14.349  13.661  -2.223  0.00  0.00    -0.239 NA
ATOM      8  C   UNL d   1      14.250  12.864  -2.092  0.00  0.00     0.082 A 
ATOM      9  C   UNL d   1      13.866  12.403  -2.660  0.00  0.00     0.023 A 
ATOM     10  N   UNL d   1      13.078  13.822  -4.792  0.00  0.00    -0.147 N 
ENDROOT
BRANCH   1  11
ATOM     11  C   UNL d   1      13.626  15.481  -4.389  0.00  0.00     0.203 C 
ATOM     12  O   UNL d   1      12.908  15.646  -4.708  0.00  0.00    -0.286 OA
BRANCH  11  13
ATOM     13  C   UNL d   1      14.273  15.980  -4.530  0.00  0.00     0.040 A 
ATOM     14  C   UNL d   1      14.567  16.093  -5.290  0.00  0.00     0.003 A 
ATOM     15  C   UNL d   1      15.202  16.583  -5.420  0.00  0.00     0.000 A 
ATOM     16  C   UNL d   1      15.563  16.980  -4.775  0.00  0.00     0.000 A 
ATOM     17  C   UNL d   1      15.276  16.872  -4.021  0.00  0.00     0.000 A 
ATOM     18  C   UNL d   1      14.634  16.376  -3.885  0.00  0.00     0.003 A 
ENDBRANCH  11  13
ENDBRANCH   1  11
BRANCH   6  19
ATOM     19  C   UNL d   1      13.203  12.286  -3.919  0.00  0.00     0.419 C 
ATOM     20  F   UNL d   1      12.825  11.833  -4.478  0.00  0.00    -0.166 F 
ATOM     21  F   UNL d   1      12.791  11.889  -3.318  0.00  0.00    -0.166 F 
ATOM     22  F   UNL d   1      13.611  12.680  -4.514  0.00  0.00    -0.166 F 
ENDBRANCH   6  19
BRANCH   8  23
ATOM     23  C   UNL d   1      14.525  12.506  -1.405  0.00  0.00     0.018 A 
ATOM     24  C   UNL d   1      13.979  12.195  -0.865  0.00  0.00     0.002 A 
ATOM     25  C   UNL d   1      14.232  11.830  -0.166  0.00  0.00     0.000 A 
ATOM     26  C   UNL d   1      15.056  11.782  -0.015  0.00  0.00     0.000 A 
ATOM     27  C   UNL d   1      15.602  12.094  -0.555  0.00  0.00     0.000 A 
ATOM     28  C   UNL d   1      15.323  12.453  -1.245  0.00  0.00     0.002 A 
ENDBRANCH   8  23
TORSDOF 4
ENDMDL
