MODEL 1
REMARK VINA RESULT:      65.6      0.000      0.000
REMARK  4 active torsions:
REMARK  status: ('A' for Active; 'I' for Inactive)
REMARK    1  A    between atoms: C_6  and  C_1 
REMARK       I    between atoms: N_9  and  C_6 
REMARK       I    between atoms: C_8  and  N_10 
REMARK    2  A    between atoms: C_11  and  C_8 
REMARK    3  A    between atoms: N_10  and  N_9 
REMARK    4  A    between atoms: O_22  and  C_13 
ROOT
ATOM      1  C   UNL d   1     -48.273  29.674  34.940  0.00  0.00     0.123 A 
ATOM      2  C   UNL d   1     -47.744  29.890  35.535  0.00  0.00     0.305 A 
ATOM      3  O   UNL d   1     -47.473  30.650  35.578  0.00  0.00    -0.271 OA
ATOM      4  C   UNL d   1     -48.517  30.224  34.404  0.00  0.00     0.012 A 
ATOM      5  C   UNL d   1     -47.720  31.236  35.025  0.00  0.00     0.125 A 
ATOM      6  C   UNL d   1     -48.249  31.020  34.430  0.00  0.00     0.025 A 
ATOM      7  O   UNL d   1     -47.496  29.342  36.074  0.00  0.00    -0.259 OA
ATOM      8  C   UNL d   1     -47.449  32.017  35.061  0.00  0.00     0.117 A 
ATOM      9  C   UNL d   1     -48.493  31.591  33.887  0.00  0.00     0.002 A 
ATOM     10  C   UNL d   1     -48.225  32.374  33.918  0.00  0.00     0.002 A 
ATOM     11  C   UNL d   1     -47.696  32.590  34.512  0.00  0.00     0.026 A 
ENDROOT
BRANCH   1  12
ATOM     12  C   UNL d   1     -48.560  28.908  34.877  0.00  0.00     0.302 C 
ATOM     13  N   UNL d   1     -49.006  28.716  34.207  0.00  0.00    -0.102 NA
ATOM     14  O   UNL d   1     -48.405  28.333  35.480  0.00  0.00    -0.263 OA
BRANCH  13  15
ATOM     15  N   UNL d   1     -49.301  27.965  34.123  0.00  0.00    -0.102 NA
ATOM     16  C   UNL d   1     -49.985  27.844  33.667  0.00  0.00     0.297 C 
ATOM     17  O   UNL d   1     -50.359  28.467  33.306  0.00  0.00    -0.264 OA
BRANCH  16  18
ATOM     18  C   UNL d   1     -50.288  27.091  33.577  0.00  0.00     0.059 A 
ATOM     19  C   UNL d   1     -49.797  26.441  33.548  0.00  0.00     0.005 A 
ATOM     20  C   UNL d   1     -50.095  25.684  33.459  0.00  0.00     0.007 A 
ATOM     21  C   UNL d   1     -50.899  25.557  33.396  0.00  0.00     0.035 A 
ATOM     22  C   UNL d   1     -51.410  26.222  33.425  0.00  0.00     0.007 A 
ATOM     23 BR   UNL d   1     -51.191  24.795  33.306  0.00  0.00    -0.049 Br
ATOM     24  C   UNL d   1     -51.112  26.979  33.514  0.00  0.00     0.005 A 
ENDBRANCH  16  18
ENDBRANCH  13  15
ENDBRANCH   1  12
BRANCH   8  25
ATOM     25  O   UNL d   1     -46.925  32.231  35.649  0.00  0.00    -0.326 OA
ATOM     26  C   UNL d   1     -46.445  32.876  35.554  0.00  0.00     0.181 C 
ENDBRANCH   8  25
TORSDOF 4
ENDMDL
