MODEL 1
REMARK VINA RESULT:      42.7      0.000      0.000
REMARK  5 active torsions:
REMARK  status: ('A' for Active; 'I' for Inactive)
REMARK    1  A    between atoms: N_6  and  S_1 
REMARK    2  A    between atoms: C_11  and  S_1 
REMARK    3  A    between atoms: N_2  and  C_16 
REMARK       I    between atoms: C_9  and  N_8 
REMARK    4  A    between atoms: C_10  and  C_9 
REMARK    5  A    between atoms: C_16  and  C_10 
ROOT
ATOM      1  N   UNL d   1      46.021 -18.433  41.275  0.00  0.00    -0.226 N 
ATOM      2  N   UNL d   1      45.829 -17.706  39.811  0.00  0.00    -0.269 N 
ATOM      3  C   UNL d   1      45.725 -17.338  39.079  0.00  0.00     0.267 C 
ATOM      4  C   UNL d   1      45.314 -18.052  41.093  0.00  0.00     0.111 A 
ATOM      5  C   UNL d   1      46.647 -18.454  40.719  0.00  0.00     0.111 A 
ATOM      6  C   UNL d   1      45.218 -17.688  40.359  0.00  0.00     0.103 A 
ATOM      7  C   UNL d   1      46.551 -18.089  39.986  0.00  0.00     0.103 A 
ATOM      8  O   UNL d   1      46.336 -17.353  38.524  0.00  0.00    -0.267 OA
ENDROOT
BRANCH   3   9
ATOM      9  C   UNL d   1      45.016 -16.960  38.905  0.00  0.00     0.082 C 
BRANCH   9  10
ATOM     10  C   UNL d   1      44.725 -16.980  38.134  0.00  0.00     0.105 C 
BRANCH  10  11
ATOM     11  N   UNL d   1      44.787 -16.305  37.657  0.00  0.00    -0.228 N 
ATOM     12  N   UNL d   1      45.470 -15.866  37.511  0.00  0.00    -0.165 NA
ATOM     13  C   UNL d   1      45.280 -15.241  37.007  0.00  0.00     0.103 A 
ATOM     14  C   UNL d   1      45.801 -14.664  36.719  0.00  0.00     0.022 C 
ATOM     15  C   UNL d   1      44.474 -15.290  36.837  0.00  0.00     0.037 A 
ATOM     16  C   UNL d   1      44.167 -15.947  37.238  0.00  0.00     0.084 A 
ATOM     17  C   UNL d   1      44.049 -14.777  36.354  0.00  0.00     0.003 C 
ATOM     18  C   UNL d   1      43.378 -16.195  37.217  0.00  0.00     0.021 C 
ENDBRANCH  10  11
ENDBRANCH   9  10
ENDBRANCH   3   9
BRANCH   1  19
ATOM     19  S   UNL d   1      46.117 -18.799  42.012  0.00  0.00     0.271 S 
ATOM     20  O   UNL d   1      46.543 -19.417  41.650  0.00  0.00    -0.200 OA
ATOM     21  O   UNL d   1      45.696 -18.188  42.371  0.00  0.00    -0.200 OA
BRANCH  19  22
ATOM     22  C   UNL d   1      46.214 -19.168  42.754  0.00  0.00     0.104 A 
ATOM     23  C   UNL d   1      46.022 -19.959  42.840  0.00  0.00     0.014 A 
ATOM     24  C   UNL d   1      46.116 -20.328  43.572  0.00  0.00     0.012 A 
ATOM     25  C   UNL d   1      46.406 -19.897  44.221  0.00  0.00     0.058 A 
ATOM     26  C   UNL d   1      46.601 -19.091  44.132  0.00  0.00     0.012 A 
ATOM     27 CL   UNL d   1      46.501 -20.261  44.955  0.00  0.00    -0.082 Cl
ATOM     28  C   UNL d   1      46.505 -18.723  43.391  0.00  0.00     0.014 A 
ENDBRANCH  19  22
ENDBRANCH   1  19
TORSDOF 5
ENDMDL
