MODEL 1
REMARK VINA RESULT:      -5.2      0.000      0.000
REMARK  5 active torsions:
REMARK  status: ('A' for Active; 'I' for Inactive)
REMARK    1  A    between atoms: C_5  and  C_1 
REMARK    2  A    between atoms: N_15  and  C_4 
REMARK       I    between atoms: N_9  and  C_5 
REMARK    3  A    between atoms: C_7  and  N_9 
REMARK    4  A    between atoms: C_18  and  N_15 
REMARK    5  A    between atoms: C_16  and  C_18 
ROOT
ATOM      1  C   UNL d   1     -41.583-122.443 -51.573  0.00  0.00     0.128 A 
ATOM      2  N   UNL d   1     -41.123-121.633 -52.921  0.00  0.00    -0.200 NA
ATOM      3  C   UNL d   1     -41.241-121.700 -51.509  0.00  0.00     0.196 A 
ATOM      4  C   UNL d   1     -41.464-122.377 -52.984  0.00  0.00     0.196 A 
ATOM      5  S   UNL d   1     -41.691-122.776 -52.321  0.00  0.00    -0.041 SA
ATOM      6  N   UNL d   1     -41.130-121.361 -50.768  0.00  0.00    -0.126 N 
ENDROOT
BRANCH   1   7
ATOM      7  C   UNL d   1     -41.813-122.847 -50.888  0.00  0.00     0.290 C 
ATOM      8  N   UNL d   1     -42.503-122.608 -50.481  0.00  0.00    -0.186 NA
ATOM      9  O   UNL d   1     -41.370-123.484 -50.601  0.00  0.00    -0.264 OA
BRANCH   8  10
ATOM     10  C   UNL d   1     -42.740-123.009 -49.792  0.00  0.00     0.194 A 
ATOM     11  N   UNL d   1     -43.371-123.510 -49.590  0.00  0.00    -0.107 NA
ATOM     12  O   UNL d   1     -43.434-123.817 -48.832  0.00  0.00    -0.210 OA
ATOM     13  C   UNL d   1     -42.852-123.622 -48.251  0.00  0.00     0.128 A 
ATOM     14  C   UNL d   1     -42.225-123.124 -48.454  0.00  0.00     0.068 A 
ATOM     15  C   UNL d   1     -42.726-123.817 -47.443  0.00  0.00     0.029 C 
ENDBRANCH   8  10
ENDBRANCH   1   7
BRANCH   4  16
ATOM     16  N   UNL d   1     -41.573-122.710 -53.727  0.00  0.00    -0.220 NA
BRANCH  16  17
ATOM     17  C   UNL d   1     -41.717-122.221 -54.375  0.00  0.00     0.101 C 
BRANCH  17  18
ATOM     18  C   UNL d   1     -42.054-122.531 -55.052  0.00  0.00     0.021 C 
ATOM     19  C   UNL d   1     -42.440-122.033 -55.584  0.00  0.00     0.002 C 
ENDBRANCH  17  18
ENDBRANCH  16  17
ENDBRANCH   4  16
TORSDOF 5
ENDMDL
