MODEL 1
REMARK VINA RESULT:      50.5      0.000      0.000
REMARK  4 active torsions:
REMARK  status: ('A' for Active; 'I' for Inactive)
REMARK    1  A    between atoms: C_8  and  C_4 
REMARK       I    between atoms: C_7  and  N_10 
REMARK    2  A    between atoms: C_16  and  C_7 
REMARK    3  A    between atoms: N_10  and  C_13 
REMARK    4  A    between atoms: C_17  and  C_16 
ROOT
ATOM      1  C   UNL d   1      59.494  49.323  50.885  0.00  0.00     0.021 A 
ATOM      2  C   UNL d   1      60.034  48.849  50.473  0.00  0.00     0.021 A 
ATOM      3  C   UNL d   1      60.801  48.761  50.752  0.00  0.00     0.085 A 
ATOM      4  C   UNL d   1      59.727  49.708  51.576  0.00  0.00     0.002 A 
ATOM      5  C   UNL d   1      60.496  49.624  51.861  0.00  0.00     0.002 A 
ATOM      6  C   UNL d   1      61.037  49.146  51.444  0.00  0.00     0.019 A 
ENDROOT
BRANCH   1   7
ATOM      7  C   UNL d   1      58.723  49.410  50.605  0.00  0.00     0.118 A 
ATOM      8  N   UNL d   1      58.502  49.477  49.819  0.00  0.00    -0.059 NA
ATOM      9  C   UNL d   1      57.683  49.554  49.796  0.00  0.00     0.735 A 
ATOM     10  N   UNL d   1      57.396  49.536  50.564  0.00  0.00    -0.136 N 
ATOM     11  N   UNL d   1      57.166  49.640  49.153  0.00  0.00    -0.059 NA
ATOM     12  C   UNL d   1      58.040  49.446  51.068  0.00  0.00     0.118 A 
ATOM     13  C   UNL d   1      56.588  49.602  50.703  0.00  0.00     0.100 A 
ATOM     14  C   UNL d   1      56.070  49.687  50.073  0.00  0.00     0.041 A 
ATOM     15  C   UNL d   1      56.357  49.706  49.305  0.00  0.00     0.119 A 
ENDBRANCH   1   7
BRANCH   3  16
ATOM     16  N   UNL d   1      61.335  48.288  50.339  0.00  0.00    -0.208 NA
ATOM     17  C   UNL d   1      61.247  47.466  50.337  0.00  0.00     0.275 C 
ATOM     18  O   UNL d   1      60.626  47.119  50.748  0.00  0.00    -0.266 OA
BRANCH  17  19
ATOM     19  C   UNL d   1      61.777  46.995  49.928  0.00  0.00     0.036 C 
BRANCH  19  20
ATOM     20  C   UNL d   1      61.600  46.203  49.803  0.00  0.00     0.023 C 
ATOM     21  C   UNL d   1      61.375  45.912  50.553  0.00  0.00     0.004 C 
ATOM     22  C   UNL d   1      61.726  46.071  49.009  0.00  0.00     0.004 C 
ATOM     23  C   UNL d   1      61.420  45.403  49.682  0.00  0.00     0.004 C 
ENDBRANCH  19  20
ENDBRANCH  17  19
ENDBRANCH   3  16
TORSDOF 4
ENDMDL
