MODEL 1
REMARK VINA RESULT:      -5.9      0.000      0.000
REMARK  4 active torsions:
REMARK  status: ('A' for Active; 'I' for Inactive)
REMARK    1  A    between atoms: N_2  and  C_1 
REMARK    2  A    between atoms: C_4  and  C_1 
REMARK    3  A    between atoms: C_8  and  N_2 
REMARK    4  A    between atoms: N_7  and  C_6 
ROOT
ATOM      1  C   UNL d   1     -41.613-122.952 -50.585  0.00  0.00     0.064 A 
ATOM      2  C   UNL d   1     -41.286-122.609 -52.161  0.00  0.00     0.083 A 
ATOM      3  C   UNL d   1     -41.292-123.533 -51.077  0.00  0.00     0.019 A 
ATOM      4  C   UNL d   1     -41.769-122.200 -50.885  0.00  0.00     0.019 A 
ATOM      5  C   UNL d   1     -41.127-123.364 -51.868  0.00  0.00     0.021 A 
ATOM      6  C   UNL d   1     -41.607-122.022 -51.674  0.00  0.00     0.021 A 
ENDROOT
BRANCH   2   7
ATOM      7  N   UNL d   1     -41.123-122.434 -52.952  0.00  0.00    -0.233 NA
BRANCH   7   8
ATOM      8  C   UNL d   1     -41.445-122.906 -53.550  0.00  0.00     0.153 C 
ATOM      9  S   UNL d   1     -41.505-123.724 -53.449  0.00  0.00    -0.056 SA
BRANCH   8  10
ATOM     10  C   UNL d   1     -41.709-122.554 -54.256  0.00  0.00     0.109 A 
ATOM     11  N   UNL d   1     -42.492-122.279 -54.312  0.00  0.00    -0.242 NA
ATOM     12  C   UNL d   1     -42.759-121.930 -55.010  0.00  0.00     0.099 A 
ATOM     13  C   UNL d   1     -42.246-121.854 -55.652  0.00  0.00     0.021 A 
ATOM     14  C   UNL d   1     -41.464-122.128 -55.596  0.00  0.00     0.003 A 
ATOM     15  C   UNL d   1     -41.198-122.478 -54.898  0.00  0.00     0.021 A 
ENDBRANCH   8  10
ENDBRANCH   7   8
ENDBRANCH   2   7
BRANCH   1  16
ATOM     16  N   UNL d   1     -41.779-123.120 -49.794  0.00  0.00    -0.301 N 
ATOM     17  C   UNL d   1     -41.169-123.338 -49.280  0.00  0.00     0.100 C 
ATOM     18  C   UNL d   1     -42.555-123.070 -49.518  0.00  0.00     0.100 C 
ENDBRANCH   1  16
TORSDOF 4
ENDMDL
MODEL 2
REMARK VINA RESULT:      -4.8      1.375      2.337
REMARK  4 active torsions:
REMARK  status: ('A' for Active; 'I' for Inactive)
REMARK    1  A    between atoms: N_2  and  C_1 
REMARK    2  A    between atoms: C_4  and  C_1 
REMARK    3  A    between atoms: C_8  and  N_2 
REMARK    4  A    between atoms: N_7  and  C_6 
ROOT
ATOM      1  C   UNL d   1     -42.055-123.367 -48.487  0.00  0.00     0.064 A 
ATOM      2  C   UNL d   1     -41.752-123.543 -50.095  0.00  0.00     0.083 A 
ATOM      3  C   UNL d   1     -41.352-123.720 -48.739  0.00  0.00     0.019 A 
ATOM      4  C   UNL d   1     -42.605-123.103 -49.043  0.00  0.00     0.019 A 
ATOM      5  C   UNL d   1     -41.197-123.810 -49.545  0.00  0.00     0.021 A 
ATOM      6  C   UNL d   1     -42.458-123.189 -49.849  0.00  0.00     0.021 A 
ENDROOT
BRANCH   2   7
ATOM      7  N   UNL d   1     -41.602-123.631 -50.902  0.00  0.00    -0.233 NA
BRANCH   7   8
ATOM      8  C   UNL d   1     -41.356-122.978 -51.346  0.00  0.00     0.153 C 
ATOM      9  S   UNL d   1     -41.123-122.281 -50.968  0.00  0.00    -0.056 SA
BRANCH   8  10
ATOM     10  C   UNL d   1     -41.345-123.023 -52.177  0.00  0.00     0.109 A 
ATOM     11  N   UNL d   1     -41.547-122.357 -52.629  0.00  0.00    -0.242 NA
ATOM     12  C   UNL d   1     -41.537-122.397 -53.454  0.00  0.00     0.099 A 
ATOM     13  C   UNL d   1     -41.325-123.102 -53.827  0.00  0.00     0.021 A 
ATOM     14  C   UNL d   1     -41.123-123.769 -53.374  0.00  0.00     0.003 A 
ATOM     15  C   UNL d   1     -41.133-123.728 -52.550  0.00  0.00     0.021 A 
ENDBRANCH   8  10
ENDBRANCH   7   8
ENDBRANCH   2   7
BRANCH   1  16
ATOM     16  N   UNL d   1     -42.211-123.277 -47.681  0.00  0.00    -0.301 N 
ATOM     17  C   UNL d   1     -41.668-122.887 -47.195  0.00  0.00     0.100 C 
ATOM     18  C   UNL d   1     -42.911-123.578 -47.363  0.00  0.00     0.100 C 
ENDBRANCH   1  16
TORSDOF 4
ENDMDL
