MODEL 1
REMARK VINA RESULT:      14.3      0.000      0.000
REMARK  3 active torsions:
REMARK  status: ('A' for Active; 'I' for Inactive)
REMARK    1  A    between atoms: C_2  and  C_1 
REMARK    2  A    between atoms: N_5  and  C_2 
REMARK    3  A    between atoms: C_9  and  N_5 
ROOT
ATOM      1  C   UNL d   1      59.172  49.686  50.835  0.00  0.00     0.139 C 
ATOM      2  S   UNL d   1      59.281  49.707  50.012  0.00  0.00    -0.057 SA
ENDROOT
BRANCH   1   3
ATOM      3  C   UNL d   1      59.827  49.655  51.340  0.00  0.00     0.074 A 
ATOM      4  C   UNL d   1      60.647  49.569  51.094  0.00  0.00     0.129 A 
ATOM      5  O   UNL d   1      61.132  49.563  51.804  0.00  0.00    -0.211 OA
ATOM      6  C   UNL d   1      60.912  49.504  50.323  0.00  0.00     0.029 C 
ATOM      7  N   UNL d   1      60.616  49.644  52.483  0.00  0.00    -0.125 NA
ATOM      8  C   UNL d   1      59.809  49.701  52.199  0.00  0.00     0.132 A 
ENDBRANCH   1   3
BRANCH   1   9
ATOM      9  N   UNL d   1      58.412  49.697  51.147  0.00  0.00    -0.235 NA
BRANCH   9  10
ATOM     10  C   UNL d   1      57.762  49.671  50.645  0.00  0.00     0.082 A 
ATOM     11  C   UNL d   1      57.004  49.645  50.962  0.00  0.00     0.019 A 
ATOM     12  C   UNL d   1      56.359  49.619  50.460  0.00  0.00     0.002 A 
ATOM     13  C   UNL d   1      56.465  49.619  49.651  0.00  0.00     0.000 A 
ATOM     14  C   UNL d   1      57.229  49.645  49.337  0.00  0.00     0.002 A 
ATOM     15  C   UNL d   1      57.881  49.671  49.843  0.00  0.00     0.019 A 
ENDBRANCH   9  10
ENDBRANCH   1   9
TORSDOF 3
ENDMDL
MODEL 2
REMARK VINA RESULT:      16.3      1.583      3.464
REMARK  3 active torsions:
REMARK  status: ('A' for Active; 'I' for Inactive)
REMARK    1  A    between atoms: C_2  and  C_1 
REMARK    2  A    between atoms: N_5  and  C_2 
REMARK    3  A    between atoms: C_9  and  N_5 
ROOT
ATOM      1  C   UNL d   1      58.250  49.653  50.331  0.00  0.00     0.139 C 
ATOM      2  S   UNL d   1      58.570  49.705  49.567  0.00  0.00    -0.057 SA
ENDROOT
BRANCH   1   3
ATOM      3  C   UNL d   1      57.436  49.547  50.435  0.00  0.00     0.074 A 
ATOM      4  C   UNL d   1      56.853  49.485  49.805  0.00  0.00     0.129 A 
ATOM      5  O   UNL d   1      56.084  49.379  50.173  0.00  0.00    -0.211 OA
ATOM      6  C   UNL d   1      57.009  49.520  49.003  0.00  0.00     0.029 C 
ATOM      7  N   UNL d   1      56.189  49.376  51.022  0.00  0.00    -0.125 NA
ATOM      8  C   UNL d   1      57.025  49.480  51.187  0.00  0.00     0.132 A 
ENDBRANCH   1   3
BRANCH   1   9
ATOM      9  N   UNL d   1      58.745  49.707  50.985  0.00  0.00    -0.235 NA
BRANCH   9  10
ATOM     10  C   UNL d   1      59.557  49.622  50.894  0.00  0.00     0.082 A 
ATOM     11  C   UNL d   1      59.893  49.706  50.148  0.00  0.00     0.019 A 
ATOM     12  C   UNL d   1      60.702  49.620  50.060  0.00  0.00     0.002 A 
ATOM     13  C   UNL d   1      61.172  49.454  50.706  0.00  0.00     0.000 A 
ATOM     14  C   UNL d   1      60.829  49.372  51.454  0.00  0.00     0.002 A 
ATOM     15  C   UNL d   1      60.014  49.457  51.543  0.00  0.00     0.019 A 
ENDBRANCH   9  10
ENDBRANCH   1   9
TORSDOF 3
ENDMDL
