MODEL 1
REMARK VINA RESULT:      45.4      0.000      0.000
REMARK  7 active torsions:
REMARK  status: ('A' for Active; 'I' for Inactive)
REMARK    1  A    between atoms: C_2  and  N_1 
REMARK    2  A    between atoms: C_4  and  O_6 
REMARK    3  A    between atoms: C_11  and  C_4 
REMARK    4  A    between atoms: O_6  and  C_12 
REMARK    5  A    between atoms: O_10  and  C_11 
REMARK    6  A    between atoms: C_13  and  O_10 
REMARK    7  A    between atoms: C_21  and  C_16 
ROOT
ATOM      1  C   UNL d   1      60.453  49.417  50.863  0.00  0.00     0.325 C 
ATOM      2  O   UNL d   1      60.302  49.664  51.642  0.00  0.00    -0.256 OA
ENDROOT
BRANCH   1   3
ATOM      3  O   UNL d   1      59.993  49.700  50.238  0.00  0.00    -0.272 OA
BRANCH   3   4
ATOM      4  C   UNL d   1      59.170  49.655  50.280  0.00  0.00     0.103 A 
ATOM      5  C   UNL d   1      58.798  49.558  51.007  0.00  0.00     0.026 A 
ATOM      6  C   UNL d   1      57.957  49.513  51.032  0.00  0.00     0.026 A 
ATOM      7  C   UNL d   1      57.506  49.565  50.348  0.00  0.00     0.127 A 
ATOM      8  C   UNL d   1      57.893  49.665  49.598  0.00  0.00     0.026 A 
ATOM      9  C   UNL d   1      58.730  49.708  49.589  0.00  0.00     0.026 A 
BRANCH   7  10
ATOM     10  N   UNL d   1      56.684  49.519  50.389  0.00  0.00    -0.114 N 
ATOM     11  O   UNL d   1      56.199  49.276  49.762  0.00  0.00    -0.532 OA
ATOM     12  O   UNL d   1      56.241  49.706  51.049  0.00  0.00    -0.532 OA
ENDBRANCH   7  10
ENDBRANCH   3   4
ENDBRANCH   1   3
BRANCH   1  13
ATOM     13  C   UNL d   1      61.067  48.887  50.714  0.00  0.00     0.191 C 
BRANCH  13  14
ATOM     14  O   UNL d   1      61.116  48.182  51.142  0.00  0.00    -0.300 OA
BRANCH  14  15
ATOM     15  C   UNL d   1      61.166  47.436  50.732  0.00  0.00     0.100 A 
ATOM     16  C   UNL d   1      61.737  47.320  50.152  0.00  0.00     0.025 A 
ATOM     17  C   UNL d   1      61.784  46.599  49.754  0.00  0.00     0.002 A 
ATOM     18  C   UNL d   1      61.261  45.993  49.937  0.00  0.00     0.000 A 
ATOM     19  C   UNL d   1      60.685  46.105  50.519  0.00  0.00     0.002 A 
ATOM     20  C   UNL d   1      60.638  46.827  50.917  0.00  0.00     0.025 A 
BRANCH  18  21
ATOM     21  C   UNL d   1      61.309  45.251  49.529  0.00  0.00     0.000 C 
ATOM     22  C   UNL d   1      61.951  44.748  49.662  0.00  0.00     0.000 C 
ENDBRANCH  18  21
ENDBRANCH  14  15
ENDBRANCH  13  14
ENDBRANCH   1  13
TORSDOF 7
ENDMDL
MODEL 2
REMARK VINA RESULT:      45.7      1.800      4.589
REMARK  7 active torsions:
REMARK  status: ('A' for Active; 'I' for Inactive)
REMARK    1  A    between atoms: C_2  and  N_1 
REMARK    2  A    between atoms: C_4  and  O_6 
REMARK    3  A    between atoms: C_11  and  C_4 
REMARK    4  A    between atoms: O_6  and  C_12 
REMARK    5  A    between atoms: O_10  and  C_11 
REMARK    6  A    between atoms: C_13  and  O_10 
REMARK    7  A    between atoms: C_21  and  C_16 
ROOT
ATOM      1  C   UNL d   1      60.809  48.986  50.808  0.00  0.00     0.325 C 
ATOM      2  O   UNL d   1      61.273  49.490  51.279  0.00  0.00    -0.256 OA
ENDROOT
BRANCH   1   3
ATOM      3  O   UNL d   1      61.165  48.408  50.338  0.00  0.00    -0.272 OA
BRANCH   3   4
ATOM      4  C   UNL d   1      61.090  47.611  50.538  0.00  0.00     0.103 A 
ATOM      5  C   UNL d   1      61.317  47.028  50.005  0.00  0.00     0.026 A 
ATOM      6  C   UNL d   1      61.233  46.220  50.225  0.00  0.00     0.026 A 
ATOM      7  C   UNL d   1      60.930  46.005  50.958  0.00  0.00     0.127 A 
ATOM      8  C   UNL d   1      60.697  46.610  51.507  0.00  0.00     0.026 A 
ATOM      9  C   UNL d   1      60.786  47.410  51.273  0.00  0.00     0.026 A 
BRANCH   7  10
ATOM     10  N   UNL d   1      60.855  45.209  51.158  0.00  0.00    -0.114 N 
ATOM     11  O   UNL d   1      60.154  44.773  51.075  0.00  0.00    -0.532 OA
ATOM     12  O   UNL d   1      61.455  44.747  51.461  0.00  0.00    -0.532 OA
ENDBRANCH   7  10
ENDBRANCH   3   4
ENDBRANCH   1   3
BRANCH   1  13
ATOM     13  C   UNL d   1      59.988  49.066  50.810  0.00  0.00     0.191 C 
BRANCH  13  14
ATOM     14  O   UNL d   1      59.634  49.707  50.426  0.00  0.00    -0.300 OA
BRANCH  14  15
ATOM     15  C   UNL d   1      58.792  49.707  50.285  0.00  0.00     0.100 A 
ATOM     16  C   UNL d   1      58.503  49.707  49.515  0.00  0.00     0.025 A 
ATOM     17  C   UNL d   1      57.689  49.708  49.378  0.00  0.00     0.002 A 
ATOM     18  C   UNL d   1      57.165  49.707  50.011  0.00  0.00     0.000 A 
ATOM     19  C   UNL d   1      57.453  49.707  50.786  0.00  0.00     0.002 A 
ATOM     20  C   UNL d   1      58.267  49.707  50.922  0.00  0.00     0.025 A 
BRANCH  18  21
ATOM     21  C   UNL d   1      56.329  49.708  49.871  0.00  0.00     0.000 C 
ATOM     22  C   UNL d   1      56.034  49.477  49.134  0.00  0.00     0.000 C 
ENDBRANCH  18  21
ENDBRANCH  14  15
ENDBRANCH  13  14
ENDBRANCH   1  13
TORSDOF 7
ENDMDL
