MODEL 1
REMARK VINA RESULT:      23.9      0.000      0.000
REMARK  6 active torsions:
REMARK  status: ('A' for Active; 'I' for Inactive)
REMARK    1  A    between atoms: C_12  and  C_4 
REMARK    2  A    between atoms: N_16  and  C_5 
REMARK    3  A    between atoms: N_11  and  C_24 
REMARK    4  A    between atoms: C_27  and  N_16 
REMARK    5  A    between atoms: C_24  and  C_25 
REMARK    6  A    between atoms: C_25  and  C_27 
ROOT
ATOM      1  N   UNL d   1      46.387 -17.750  43.707  0.00  0.00    -0.195 N 
ATOM      2  C   UNL d   1      46.466 -18.461  43.290  0.00  0.00     0.167 A 
ATOM      3  N   UNL d   1      46.316 -17.149  43.157  0.00  0.00    -0.163 NA
ATOM      4  C   UNL d   1      46.441 -18.283  42.493  0.00  0.00     0.055 A 
ATOM      5  C   UNL d   1      46.392 -17.755  44.526  0.00  0.00     0.167 A 
ATOM      6  C   UNL d   1      46.350 -17.489  42.410  0.00  0.00     0.104 A 
ATOM      7  N   UNL d   1      46.548 -19.165  43.700  0.00  0.00    -0.227 NA
ATOM      8  C   UNL d   1      46.476 -18.472  44.939  0.00  0.00     0.058 A 
ATOM      9  C   UNL d   1      46.553 -19.168  44.532  0.00  0.00     0.086 A 
ATOM     10  C   UNL d   1      46.301 -17.087  41.688  0.00  0.00     0.023 C 
ATOM     11  C   UNL d   1      46.637 -19.890  44.953  0.00  0.00     0.021 C 
ENDROOT
BRANCH   5  12
ATOM     12  N   UNL d   1      46.314 -17.044  44.943  0.00  0.00    -0.225 NA
BRANCH  12  13
ATOM     13  C   UNL d   1      45.715 -16.520  44.744  0.00  0.00     0.102 C 
BRANCH  13  14
ATOM     14  C   UNL d   1      45.841 -15.705  44.816  0.00  0.00     0.040 C 
BRANCH  14  15
ATOM     15  C   UNL d   1      45.235 -15.173  44.646  0.00  0.00     0.083 C 
BRANCH  15  16
ATOM     16  N   UNL d   1      45.405 -14.378  44.514  0.00  0.00    -0.285 N 
ATOM     17  C   UNL d   1      46.115 -13.959  44.465  0.00  0.00     0.183 A 
ATOM     18  N   UNL d   1      45.939 -13.175  44.324  0.00  0.00    -0.222 NA
ATOM     19  C   UNL d   1      45.130 -13.094  44.283  0.00  0.00     0.120 A 
ATOM     20  C   UNL d   1      44.794 -13.841  44.401  0.00  0.00     0.102 A 
ENDBRANCH  15  16
ENDBRANCH  14  15
ENDBRANCH  13  14
ENDBRANCH  12  13
ENDBRANCH   5  12
BRANCH   4  21
ATOM     21  C   UNL d   1      46.493 -18.769  41.821  0.00  0.00     0.004 A 
ATOM     22  C   UNL d   1      46.525 -19.588  41.902  0.00  0.00     0.001 A 
ATOM     23  C   UNL d   1      46.577 -20.072  41.238  0.00  0.00     0.011 A 
ATOM     24  C   UNL d   1      46.595 -19.729  40.488  0.00  0.00     0.058 A 
ATOM     25  C   UNL d   1      46.561 -18.906  40.407  0.00  0.00     0.011 A 
ATOM     26 CL   UNL d   1      46.647 -20.226  39.813  0.00  0.00    -0.082 Cl
ATOM     27  C   UNL d   1      46.511 -18.426  41.071  0.00  0.00     0.001 A 
ENDBRANCH   4  21
TORSDOF 6
ENDMDL
