MODEL 1
REMARK VINA RESULT:      -3.0      0.000      0.000
REMARK  3 active torsions:
REMARK  status: ('A' for Active; 'I' for Inactive)
REMARK    1  A    between atoms: C_8  and  N_1 
REMARK    2  A    between atoms: N_10  and  C_5 
REMARK    3  A    between atoms: C_15  and  N_10 
ROOT
ATOM      1  N   UNL d   1      31.707  17.320 -24.007  0.00  0.00    -0.212 N 
ATOM      2  C   UNL d   1      30.920  17.319 -24.258  0.00  0.00     0.170 A 
ATOM      3  C   UNL d   1      30.622  16.556 -24.157  0.00  0.00     0.093 A 
ATOM      4  N   UNL d   1      31.894  16.553 -23.750  0.00  0.00    -0.162 NA
ATOM      5  C   UNL d   1      29.836  16.386 -24.364  0.00  0.00     0.169 A 
ATOM      6  C   UNL d   1      31.218  16.086 -23.845  0.00  0.00     0.127 A 
ATOM      7  N   UNL d   1      30.440  17.921 -24.565  0.00  0.00    -0.205 NA
ATOM      8  N   UNL d   1      29.357  16.988 -24.672  0.00  0.00    -0.205 NA
ATOM      9  C   UNL d   1      29.661  17.749 -24.770  0.00  0.00     0.202 A 
ENDROOT
BRANCH   1  10
ATOM     10  C   UNL d   1      32.218  17.968 -24.010  0.00  0.00     0.085 A 
ATOM     11  C   UNL d   1      32.418  18.339 -23.307  0.00  0.00     0.019 A 
ATOM     12  C   UNL d   1      32.933  18.991 -23.312  0.00  0.00     0.002 A 
ATOM     13  C   UNL d   1      33.137  19.367 -22.612  0.00  0.00     0.000 C 
ATOM     14  C   UNL d   1      33.241  19.265 -24.017  0.00  0.00     0.000 A 
ATOM     15  C   UNL d   1      33.038  18.889 -24.732  0.00  0.00     0.002 A 
ATOM     16  C   UNL d   1      32.534  18.249 -24.733  0.00  0.00     0.019 A 
ENDBRANCH   1  10
BRANCH   5  17
ATOM     17  N   UNL d   1      29.535  15.634 -24.267  0.00  0.00    -0.227 NA
BRANCH  17  18
ATOM     18  C   UNL d   1      28.727  15.515 -24.246  0.00  0.00     0.083 C 
ATOM     19  C   UNL d   1      28.332  15.456 -23.523  0.00  0.00     0.021 C 
ATOM     20  C   UNL d   1      28.297  15.453 -24.952  0.00  0.00     0.021 C 
ENDBRANCH  17  18
ENDBRANCH   5  17
TORSDOF 3
ENDMDL
MODEL 2
REMARK VINA RESULT:      -2.2      0.878      1.510
REMARK  3 active torsions:
REMARK  status: ('A' for Active; 'I' for Inactive)
REMARK    1  A    between atoms: C_8  and  N_1 
REMARK    2  A    between atoms: N_10  and  C_5 
REMARK    3  A    between atoms: C_15  and  N_10 
ROOT
ATOM      1  N   UNL d   1      30.801  17.518 -24.487  0.00  0.00    -0.212 N 
ATOM      2  C   UNL d   1      30.419  16.875 -24.137  0.00  0.00     0.170 A 
ATOM      3  C   UNL d   1      29.609  16.957 -24.272  0.00  0.00     0.093 A 
ATOM      4  N   UNL d   1      30.222  17.998 -24.839  0.00  0.00    -0.162 NA
ATOM      5  C   UNL d   1      29.080  16.386 -23.981  0.00  0.00     0.169 A 
ATOM      6  C   UNL d   1      29.487  17.645 -24.702  0.00  0.00     0.127 A 
ATOM      7  N   UNL d   1      30.712  16.227 -23.712  0.00  0.00    -0.205 NA
ATOM      8  N   UNL d   1      29.373  15.738 -23.556  0.00  0.00    -0.205 NA
ATOM      9  C   UNL d   1      30.185  15.663 -23.425  0.00  0.00     0.202 A 
ENDROOT
BRANCH   1  10
ATOM     10  C   UNL d   1      31.614  17.660 -24.487  0.00  0.00     0.085 A 
ATOM     11  C   UNL d   1      31.946  18.159 -23.928  0.00  0.00     0.019 A 
ATOM     12  C   UNL d   1      32.764  18.301 -23.930  0.00  0.00     0.002 A 
ATOM     13  C   UNL d   1      33.102  18.799 -23.372  0.00  0.00     0.000 C 
ATOM     14  C   UNL d   1      33.241  17.944 -24.489  0.00  0.00     0.000 A 
ATOM     15  C   UNL d   1      32.905  17.438 -25.058  0.00  0.00     0.002 A 
ATOM     16  C   UNL d   1      32.103  17.295 -25.061  0.00  0.00     0.019 A 
ENDBRANCH   1  10
BRANCH   5  17
ATOM     17  N   UNL d   1      28.278  16.460 -24.110  0.00  0.00    -0.227 NA
BRANCH  17  18
ATOM     18  C   UNL d   1      27.745  16.139 -23.581  0.00  0.00     0.083 C 
ATOM     19  C   UNL d   1      27.625  16.493 -22.844  0.00  0.00     0.021 C 
ATOM     20  C   UNL d   1      27.321  15.455 -23.778  0.00  0.00     0.021 C 
ENDBRANCH  17  18
ENDBRANCH   5  17
TORSDOF 3
ENDMDL
MODEL 3
REMARK VINA RESULT:      -1.0      3.170      5.074
REMARK  3 active torsions:
REMARK  status: ('A' for Active; 'I' for Inactive)
REMARK    1  A    between atoms: C_8  and  N_1 
REMARK    2  A    between atoms: N_10  and  C_5 
REMARK    3  A    between atoms: C_15  and  N_10 
ROOT
ATOM      1  N   UNL d   1      32.821  21.097 -21.485  0.00  0.00    -0.212 N 
ATOM      2  C   UNL d   1      32.966  21.016 -22.294  0.00  0.00     0.170 A 
ATOM      3  C   UNL d   1      32.991  20.210 -22.468  0.00  0.00     0.093 A 
ATOM      4  N   UNL d   1      32.757  20.336 -21.160  0.00  0.00    -0.162 NA
ATOM      5  C   UNL d   1      33.129  19.958 -23.247  0.00  0.00     0.169 A 
ATOM      6  C   UNL d   1      32.864  19.792 -21.773  0.00  0.00     0.127 A 
ATOM      7  N   UNL d   1      33.077  21.580 -22.892  0.00  0.00    -0.205 NA
ATOM      8  N   UNL d   1      33.241  20.522 -23.845  0.00  0.00    -0.205 NA
ATOM      9  C   UNL d   1      33.214  21.326 -23.663  0.00  0.00     0.202 A 
ENDROOT
BRANCH   1  10
ATOM     10  C   UNL d   1      32.752  21.808 -21.072  0.00  0.00     0.085 A 
ATOM     11  C   UNL d   1      32.211  22.375 -21.313  0.00  0.00     0.019 A 
ATOM     12  C   UNL d   1      32.143  23.090 -20.895  0.00  0.00     0.002 A 
ATOM     13  C   UNL d   1      31.602  23.660 -21.131  0.00  0.00     0.000 C 
ATOM     14  C   UNL d   1      32.615  23.231 -20.244  0.00  0.00     0.000 A 
ATOM     15  C   UNL d   1      33.165  22.656 -19.998  0.00  0.00     0.002 A 
ATOM     16  C   UNL d   1      33.237  21.953 -20.404  0.00  0.00     0.019 A 
ENDBRANCH   1  10
BRANCH   5  17
ATOM     17  N   UNL d   1      33.156  19.162 -23.427  0.00  0.00    -0.227 NA
BRANCH  17  18
ATOM     18  C   UNL d   1      32.802  18.883 -24.108  0.00  0.00     0.083 C 
ATOM     19  C   UNL d   1      32.204  18.315 -24.065  0.00  0.00     0.021 C 
ATOM     20  C   UNL d   1      33.040  19.168 -24.849  0.00  0.00     0.021 C 
ENDBRANCH  17  18
ENDBRANCH   5  17
TORSDOF 3
ENDMDL
MODEL 4
REMARK VINA RESULT:      -0.9      3.358      5.753
REMARK  3 active torsions:
REMARK  status: ('A' for Active; 'I' for Inactive)
REMARK    1  A    between atoms: C_8  and  N_1 
REMARK    2  A    between atoms: N_10  and  C_5 
REMARK    3  A    between atoms: C_15  and  N_10 
ROOT
ATOM      1  N   UNL d   1      33.075  20.169 -22.087  0.00  0.00    -0.212 N 
ATOM      2  C   UNL d   1      32.976  20.988 -22.067  0.00  0.00     0.170 A 
ATOM      3  C   UNL d   1      33.080  21.237 -21.287  0.00  0.00     0.093 A 
ATOM      4  N   UNL d   1      33.239  19.912 -21.315  0.00  0.00    -0.162 NA
ATOM      5  C   UNL d   1      33.013  22.042 -21.095  0.00  0.00     0.169 A 
ATOM      6  C   UNL d   1      33.241  20.578 -20.825  0.00  0.00     0.127 A 
ATOM      7  N   UNL d   1      32.806  21.537 -22.665  0.00  0.00    -0.205 NA
ATOM      8  N   UNL d   1      32.842  22.591 -21.694  0.00  0.00    -0.205 NA
ATOM      9  C   UNL d   1      32.740  22.334 -22.471  0.00  0.00     0.202 A 
ENDROOT
BRANCH   1  10
ATOM     10  C   UNL d   1      33.019  19.688 -22.756  0.00  0.00     0.085 A 
ATOM     11  C   UNL d   1      32.748  18.917 -22.689  0.00  0.00     0.019 A 
ATOM     12  C   UNL d   1      32.693  18.436 -23.363  0.00  0.00     0.002 A 
ATOM     13  C   UNL d   1      32.423  17.663 -23.302  0.00  0.00     0.000 C 
ATOM     14  C   UNL d   1      32.909  18.727 -24.095  0.00  0.00     0.000 A 
ATOM     15  C   UNL d   1      33.184  19.510 -24.164  0.00  0.00     0.002 A 
ATOM     16  C   UNL d   1      33.240  19.988 -23.506  0.00  0.00     0.019 A 
ENDBRANCH   1  10
BRANCH   5  17
ATOM     17  N   UNL d   1      33.114  22.296 -20.326  0.00  0.00    -0.227 NA
BRANCH  17  18
ATOM     18  C   UNL d   1      32.686  22.932 -20.045  0.00  0.00     0.083 C 
ATOM     19  C   UNL d   1      32.978  23.700 -20.125  0.00  0.00     0.021 C 
ATOM     20  C   UNL d   1      31.954  22.812 -19.675  0.00  0.00     0.021 C 
ENDBRANCH  17  18
ENDBRANCH   5  17
TORSDOF 3
ENDMDL
MODEL 5
REMARK VINA RESULT:      -0.7      3.117      5.029
REMARK  3 active torsions:
REMARK  status: ('A' for Active; 'I' for Inactive)
REMARK    1  A    between atoms: C_8  and  N_1 
REMARK    2  A    between atoms: N_10  and  C_5 
REMARK    3  A    between atoms: C_15  and  N_10 
ROOT
ATOM      1  N   UNL d   1      32.908  21.492 -22.168  0.00  0.00    -0.212 N 
ATOM      2  C   UNL d   1      32.937  20.667 -22.148  0.00  0.00     0.170 A 
ATOM      3  C   UNL d   1      33.062  20.400 -22.918  0.00  0.00     0.093 A 
ATOM      4  N   UNL d   1      33.016  21.734 -22.954  0.00  0.00    -0.162 NA
ATOM      5  C   UNL d   1      33.117  19.585 -23.071  0.00  0.00     0.169 A 
ATOM      6  C   UNL d   1      33.110  21.052 -23.414  0.00  0.00     0.127 A 
ATOM      7  N   UNL d   1      32.865  20.129 -21.521  0.00  0.00    -0.205 NA
ATOM      8  N   UNL d   1      33.045  19.047 -22.444  0.00  0.00    -0.205 NA
ATOM      9  C   UNL d   1      32.920  19.323 -21.676  0.00  0.00     0.202 A 
ENDROOT
BRANCH   1  10
ATOM     10  C   UNL d   1      32.793  21.991 -21.520  0.00  0.00     0.085 A 
ATOM     11  C   UNL d   1      32.240  22.595 -21.558  0.00  0.00     0.019 A 
ATOM     12  C   UNL d   1      32.125  23.096 -20.905  0.00  0.00     0.002 A 
ATOM     13  C   UNL d   1      31.573  23.702 -20.937  0.00  0.00     0.000 C 
ATOM     14  C   UNL d   1      32.562  22.988 -20.223  0.00  0.00     0.000 A 
ATOM     15  C   UNL d   1      33.124  22.375 -20.184  0.00  0.00     0.002 A 
ATOM     16  C   UNL d   1      33.241  21.880 -20.821  0.00  0.00     0.019 A 
ENDBRANCH   1  10
BRANCH   5  17
ATOM     17  N   UNL d   1      33.240  19.313 -23.830  0.00  0.00    -0.227 NA
BRANCH  17  18
ATOM     18  C   UNL d   1      32.975  18.571 -24.048  0.00  0.00     0.083 C 
ATOM     19  C   UNL d   1      32.485  18.480 -24.707  0.00  0.00     0.021 C 
ATOM     20  C   UNL d   1      33.197  17.903 -23.610  0.00  0.00     0.021 C 
ENDBRANCH  17  18
ENDBRANCH   5  17
TORSDOF 3
ENDMDL
MODEL 6
REMARK VINA RESULT:      -0.3      2.625      4.253
REMARK  3 active torsions:
REMARK  status: ('A' for Active; 'I' for Inactive)
REMARK    1  A    between atoms: C_8  and  N_1 
REMARK    2  A    between atoms: N_10  and  C_5 
REMARK    3  A    between atoms: C_15  and  N_10 
ROOT
ATOM      1  N   UNL d   1      33.114  20.463 -22.553  0.00  0.00    -0.212 N 
ATOM      2  C   UNL d   1      33.158  19.642 -22.630  0.00  0.00     0.170 A 
ATOM      3  C   UNL d   1      33.164  19.462 -23.435  0.00  0.00     0.093 A 
ATOM      4  N   UNL d   1      33.094  20.790 -23.316  0.00  0.00    -0.162 NA
ATOM      5  C   UNL d   1      33.205  18.671 -23.684  0.00  0.00     0.169 A 
ATOM      6  C   UNL d   1      33.125  20.165 -23.857  0.00  0.00     0.127 A 
ATOM      7  N   UNL d   1      33.192  19.038 -22.063  0.00  0.00    -0.205 NA
ATOM      8  N   UNL d   1      33.240  18.067 -23.116  0.00  0.00    -0.205 NA
ATOM      9  C   UNL d   1      33.233  18.254 -22.313  0.00  0.00     0.202 A 
ENDROOT
BRANCH   1  10
ATOM     10  C   UNL d   1      33.095  20.885 -21.844  0.00  0.00     0.085 A 
ATOM     11  C   UNL d   1      32.945  21.691 -21.848  0.00  0.00     0.019 A 
ATOM     12  C   UNL d   1      32.925  22.114 -21.134  0.00  0.00     0.002 A 
ATOM     13  C   UNL d   1      32.775  22.922 -21.131  0.00  0.00     0.000 C 
ATOM     14  C   UNL d   1      33.056  21.730 -20.425  0.00  0.00     0.000 A 
ATOM     15  C   UNL d   1      33.209  20.911 -20.420  0.00  0.00     0.002 A 
ATOM     16  C   UNL d   1      33.229  20.491 -21.117  0.00  0.00     0.019 A 
ENDBRANCH   1  10
BRANCH   5  17
ATOM     17  N   UNL d   1      33.212  18.485 -24.478  0.00  0.00    -0.227 NA
BRANCH  17  18
ATOM     18  C   UNL d   1      32.819  17.822 -24.748  0.00  0.00     0.083 C 
ATOM     19  C   UNL d   1      33.238  17.130 -24.919  0.00  0.00     0.021 C 
ATOM     20  C   UNL d   1      31.997  17.836 -24.852  0.00  0.00     0.021 C 
ENDBRANCH  17  18
ENDBRANCH   5  17
TORSDOF 3
ENDMDL
