MODEL 1
REMARK VINA RESULT:      67.2      0.000      0.000
REMARK  7 active torsions:
REMARK  status: ('A' for Active; 'I' for Inactive)
REMARK    1  A    between atoms: C_2  and  S_1 
REMARK    2  A    between atoms: N_5  and  S_1 
REMARK    3  A    between atoms: C_3  and  C_7 
REMARK       I    between atoms: N_8  and  C_3 
REMARK    4  A    between atoms: C_16  and  N_5 
REMARK    5  A    between atoms: C_21  and  N_8 
REMARK    6  A    between atoms: C_15  and  C_16 
REMARK    7  A    between atoms: C_30  and  C_23 
ROOT
ATOM      1  C   UNL d   1     -50.306  26.361  33.738  0.00  0.00     0.133 A 
ATOM      2  C   UNL d   1     -49.950  25.630  33.729  0.00  0.00     0.020 A 
ATOM      3  C   UNL d   1     -50.387  24.964  33.516  0.00  0.00     0.059 A 
ATOM      4  C   UNL d   1     -51.101  26.440  33.535  0.00  0.00     0.152 A 
ATOM      5  C   UNL d   1     -51.183  25.042  33.313  0.00  0.00     0.007 A 
ATOM      6  C   UNL d   1     -51.535  25.787  33.325  0.00  0.00     0.030 A 
ATOM      7  F   UNL d   1     -51.465  27.201  33.546  0.00  0.00    -0.203 F 
ENDROOT
BRANCH   1   8
ATOM      8  S   UNL d   1     -49.848  27.041  33.958  0.00  0.00     0.288 S 
ATOM      9  O   UNL d   1     -49.314  26.549  34.347  0.00  0.00    -0.198 OA
ATOM     10  O   UNL d   1     -50.404  27.523  33.556  0.00  0.00    -0.198 OA
BRANCH   8  11
ATOM     11  N   UNL d   1     -49.424  27.703  34.158  0.00  0.00    -0.155 NA
BRANCH  11  12
ATOM     12  C   UNL d   1     -48.704  27.643  34.560  0.00  0.00     0.139 C 
BRANCH  12  13
ATOM     13  C   UNL d   1     -48.403  28.314  34.954  0.00  0.00     0.145 A 
ATOM     14  O   UNL d   1     -48.080  28.941  34.533  0.00  0.00    -0.301 OA
ATOM     15  C   UNL d   1     -47.785  29.600  34.936  0.00  0.00     0.123 A 
ATOM     16  C   UNL d   1     -47.459  30.232  34.512  0.00  0.00     0.027 A 
ATOM     17  C   UNL d   1     -47.815  29.626  35.760  0.00  0.00     0.123 A 
ATOM     18  C   UNL d   1     -47.165  30.889  34.913  0.00  0.00     0.002 A 
ATOM     19  C   UNL d   1     -47.194  30.917  35.739  0.00  0.00     0.002 A 
ATOM     20  C   UNL d   1     -47.520  30.286  36.162  0.00  0.00     0.027 A 
ATOM     21  O   UNL d   1     -48.138  28.999  36.180  0.00  0.00    -0.301 OA
ATOM     22  C   UNL d   1     -48.431  28.344  35.777  0.00  0.00     0.149 A 
ENDBRANCH  12  13
ENDBRANCH  11  12
ENDBRANCH   8  11
ENDBRANCH   1   8
BRANCH   3  23
ATOM     23  C   UNL d   1     -50.033  24.210  33.504  0.00  0.00     0.279 C 
ATOM     24  N   UNL d   1     -50.483  23.531  33.641  0.00  0.00    -0.208 NA
ATOM     25  O   UNL d   1     -49.230  24.143  33.354  0.00  0.00    -0.265 OA
BRANCH  24  26
ATOM     26  C   UNL d   1     -51.291  23.598  33.792  0.00  0.00     0.085 A 
ATOM     27  C   UNL d   1     -51.823  23.206  33.306  0.00  0.00     0.019 A 
ATOM     28  C   UNL d   1     -52.638  23.274  33.458  0.00  0.00     0.002 A 
ATOM     29  C   UNL d   1     -52.904  23.732  34.093  0.00  0.00     0.000 A 
ATOM     30  C   UNL d   1     -52.360  24.117  34.569  0.00  0.00     0.002 A 
ATOM     31  C   UNL d   1     -51.545  24.049  34.417  0.00  0.00     0.019 A 
BRANCH  29  32
ATOM     32  C   UNL d   1     -53.705  23.802  34.247  0.00  0.00     0.000 C 
ATOM     33  C   UNL d   1     -54.248  23.772  33.627  0.00  0.00     0.000 C 
ENDBRANCH  29  32
ENDBRANCH  24  26
ENDBRANCH   3  23
TORSDOF 7
ENDMDL
