MODEL 1
REMARK VINA RESULT:      -4.0      0.000      0.000
REMARK  3 active torsions:
REMARK  status: ('A' for Active; 'I' for Inactive)
REMARK    1  A    between atoms: C_4  and  S_1 
REMARK    2  A    between atoms: N_7  and  S_1 
REMARK    3  A    between atoms: C_14  and  N_7 
ROOT
ATOM      1  S   UNL d   1      58.050   0.137  30.220  0.00  0.00     0.285 S 
ATOM      2  O   UNL d   1      58.729   0.442  30.544  0.00  0.00    -0.198 OA
ATOM      3  O   UNL d   1      57.327  -0.173  29.888  0.00  0.00    -0.198 OA
ENDROOT
BRANCH   1   4
ATOM      4  C   UNL d   1      58.492  -0.428  29.789  0.00  0.00     0.105 A 
ATOM      5  C   UNL d   1      58.988  -0.184  29.201  0.00  0.00     0.012 A 
ATOM      6  C   UNL d   1      59.434  -0.763  28.768  0.00  0.00     0.001 A 
ATOM      7  C   UNL d   1      59.074   0.641  29.008  0.00  0.00     0.001 C 
ATOM      8  C   UNL d   1      59.377  -1.543  28.925  0.00  0.00     0.000 A 
ATOM      9  C   UNL d   1      58.840  -1.807  29.561  0.00  0.00     0.001 A 
ATOM     10  C   UNL d   1      59.842  -2.042  28.461  0.00  0.00     0.000 C 
ATOM     11  C   UNL d   1      58.428  -1.258  29.960  0.00  0.00     0.013 A 
ENDBRANCH   1   4
BRANCH   1  12
ATOM     12  N   UNL d   1      57.594   0.680  30.631  0.00  0.00    -0.158 NA
BRANCH  12  13
ATOM     13  C   UNL d   1      57.386   0.559  31.455  0.00  0.00     0.094 A 
ATOM     14  C   UNL d   1      56.633   0.326  31.677  0.00  0.00     0.029 A 
ATOM     15  C   UNL d   1      56.437   0.213  32.452  0.00  0.00     0.059 A 
ATOM     16  S   UNL d   1      55.714  -0.022  32.811  0.00  0.00    -0.018 SA
ATOM     17  C   UNL d   1      56.986   0.327  33.040  0.00  0.00     0.110 A 
ATOM     18  C   UNL d   1      55.895  -0.029  33.620  0.00  0.00     0.332 A 
ATOM     19  O   UNL d   1      55.299  -0.243  34.196  0.00  0.00    -0.251 OA
ATOM     20  O   UNL d   1      56.627   0.171  33.767  0.00  0.00    -0.268 OA
ATOM     21  C   UNL d   1      57.729   0.555  32.859  0.00  0.00     0.027 A 
ATOM     22  C   UNL d   1      57.965   0.681  32.066  0.00  0.00     0.022 A 
ENDBRANCH  12  13
ENDBRANCH   1  12
TORSDOF 3
ENDMDL
MODEL 2
REMARK VINA RESULT:      -3.8      1.014      1.418
REMARK  3 active torsions:
REMARK  status: ('A' for Active; 'I' for Inactive)
REMARK    1  A    between atoms: C_4  and  S_1 
REMARK    2  A    between atoms: N_7  and  S_1 
REMARK    3  A    between atoms: C_14  and  N_7 
ROOT
ATOM      1  S   UNL d   1      58.162  -0.413  30.110  0.00  0.00     0.285 S 
ATOM      2  O   UNL d   1      58.506  -1.022  30.521  0.00  0.00    -0.198 OA
ATOM      3  O   UNL d   1      57.786   0.223  29.682  0.00  0.00    -0.198 OA
ENDROOT
BRANCH   1   4
ATOM      4  C   UNL d   1      58.912  -0.143  29.855  0.00  0.00     0.105 A 
ATOM      5  C   UNL d   1      59.211  -0.400  29.150  0.00  0.00     0.012 A 
ATOM      6  C   UNL d   1      59.973  -0.122  28.897  0.00  0.00     0.001 A 
ATOM      7  C   UNL d   1      58.777  -0.941  28.656  0.00  0.00     0.001 C 
ATOM      8  C   UNL d   1      60.403   0.386  29.336  0.00  0.00     0.000 A 
ATOM      9  C   UNL d   1      60.081   0.663  30.098  0.00  0.00     0.001 A 
ATOM     10  C   UNL d   1      61.133   0.609  29.023  0.00  0.00     0.000 C 
ATOM     11  C   UNL d   1      59.368   0.398  30.326  0.00  0.00     0.013 A 
ENDBRANCH   1   4
BRANCH   1  12
ATOM     12  N   UNL d   1      57.416  -0.656  30.347  0.00  0.00    -0.158 NA
BRANCH  12  13
ATOM     13  C   UNL d   1      57.066  -0.383  31.081  0.00  0.00     0.094 A 
ATOM     14  C   UNL d   1      56.769  -0.907  31.636  0.00  0.00     0.029 A 
ATOM     15  C   UNL d   1      56.440  -0.649  32.326  0.00  0.00     0.059 A 
ATOM     16  S   UNL d   1      56.104  -1.072  32.970  0.00  0.00    -0.018 SA
ATOM     17  C   UNL d   1      56.392   0.144  32.493  0.00  0.00     0.110 A 
ATOM     18  C   UNL d   1      55.871  -0.472  33.494  0.00  0.00     0.332 A 
ATOM     19  O   UNL d   1      55.496  -0.667  34.237  0.00  0.00    -0.251 OA
ATOM     20  O   UNL d   1      56.032   0.236  33.230  0.00  0.00    -0.268 OA
ATOM     21  C   UNL d   1      56.672   0.682  31.974  0.00  0.00     0.027 A 
ATOM     22  C   UNL d   1      57.019   0.449  31.249  0.00  0.00     0.022 A 
ENDBRANCH  12  13
ENDBRANCH   1  12
TORSDOF 3
ENDMDL
MODEL 3
REMARK VINA RESULT:      -3.6      1.398      4.497
REMARK  3 active torsions:
REMARK  status: ('A' for Active; 'I' for Inactive)
REMARK    1  A    between atoms: C_4  and  S_1 
REMARK    2  A    between atoms: N_7  and  S_1 
REMARK    3  A    between atoms: C_14  and  N_7 
ROOT
ATOM      1  S   UNL d   1      57.108  -0.171  31.363  0.00  0.00     0.285 S 
ATOM      2  O   UNL d   1      57.421  -0.906  31.506  0.00  0.00    -0.198 OA
ATOM      3  O   UNL d   1      56.781   0.600  31.196  0.00  0.00    -0.198 OA
ENDROOT
BRANCH   1   4
ATOM      4  C   UNL d   1      56.984  -0.048  32.181  0.00  0.00     0.105 A 
ATOM      5  C   UNL d   1      56.445  -0.499  32.577  0.00  0.00     0.012 A 
ATOM      6  C   UNL d   1      56.325  -0.368  33.408  0.00  0.00     0.001 A 
ATOM      7  C   UNL d   1      55.995  -1.102  32.179  0.00  0.00     0.001 C 
ATOM      8  C   UNL d   1      56.731   0.188  33.810  0.00  0.00     0.000 A 
ATOM      9  C   UNL d   1      57.314   0.676  33.382  0.00  0.00     0.001 A 
ATOM     10  C   UNL d   1      56.558   0.254  34.614  0.00  0.00     0.000 C 
ATOM     11  C   UNL d   1      57.419   0.547  32.606  0.00  0.00     0.013 A 
ENDBRANCH   1   4
BRANCH   1  12
ATOM     12  N   UNL d   1      57.218  -0.267  30.557  0.00  0.00    -0.158 NA
BRANCH  12  13
ATOM     13  C   UNL d   1      57.988  -0.158  30.192  0.00  0.00     0.094 A 
ATOM     14  C   UNL d   1      58.392  -0.782  29.849  0.00  0.00     0.029 A 
ATOM     15  C   UNL d   1      59.116  -0.680  29.506  0.00  0.00     0.059 A 
ATOM     16  S   UNL d   1      59.629  -1.225  29.125  0.00  0.00    -0.018 SA
ATOM     17  C   UNL d   1      59.468   0.052  29.492  0.00  0.00     0.110 A 
ATOM     18  C   UNL d   1      60.276  -0.756  28.903  0.00  0.00     0.332 A 
ATOM     19  O   UNL d   1      60.941  -1.103  28.490  0.00  0.00    -0.251 OA
ATOM     20  O   UNL d   1      60.196  -0.016  29.109  0.00  0.00    -0.268 OA
ATOM     21  C   UNL d   1      59.102   0.682  29.817  0.00  0.00     0.027 A 
ATOM     22  C   UNL d   1      58.351   0.610  30.180  0.00  0.00     0.022 A 
ENDBRANCH  12  13
ENDBRANCH   1  12
TORSDOF 3
ENDMDL
MODEL 4
REMARK VINA RESULT:      -1.7      2.099      4.659
REMARK  3 active torsions:
REMARK  status: ('A' for Active; 'I' for Inactive)
REMARK    1  A    between atoms: C_4  and  S_1 
REMARK    2  A    between atoms: N_7  and  S_1 
REMARK    3  A    between atoms: C_14  and  N_7 
ROOT
ATOM      1  S   UNL d   1      58.090  -0.809  29.985  0.00  0.00     0.285 S 
ATOM      2  O   UNL d   1      57.551  -1.352  29.715  0.00  0.00    -0.198 OA
ATOM      3  O   UNL d   1      58.665  -0.238  30.254  0.00  0.00    -0.198 OA
ENDROOT
BRANCH   1   4
ATOM      4  C   UNL d   1      57.666  -0.722  30.701  0.00  0.00     0.105 A 
ATOM      5  C   UNL d   1      57.633  -0.001  31.062  0.00  0.00     0.012 A 
ATOM      6  C   UNL d   1      57.201   0.079  31.789  0.00  0.00     0.001 A 
ATOM      7  C   UNL d   1      58.023   0.679  30.730  0.00  0.00     0.001 C 
ATOM      8  C   UNL d   1      56.825  -0.538  32.127  0.00  0.00     0.000 A 
ATOM      9  C   UNL d   1      56.860  -1.318  31.736  0.00  0.00     0.001 A 
ATOM     10  C   UNL d   1      56.428  -0.381  32.832  0.00  0.00     0.000 C 
ATOM     11  C   UNL d   1      57.267  -1.383  31.057  0.00  0.00     0.013 A 
ENDBRANCH   1   4
BRANCH   1  12
ATOM     12  N   UNL d   1      58.522  -0.876  29.292  0.00  0.00    -0.158 NA
BRANCH  12  13
ATOM     13  C   UNL d   1      59.153  -1.451  29.210  0.00  0.00     0.094 A 
ATOM     14  C   UNL d   1      59.005  -2.219  28.966  0.00  0.00     0.029 A 
ATOM     15  C   UNL d   1      59.598  -2.760  28.889  0.00  0.00     0.059 A 
ATOM     16  S   UNL d   1      59.584  -3.566  28.652  0.00  0.00    -0.018 SA
ATOM     17  C   UNL d   1      60.368  -2.558  29.053  0.00  0.00     0.110 A 
ATOM     18  C   UNL d   1      60.381  -3.793  28.695  0.00  0.00     0.332 A 
ATOM     19  O   UNL d   1      60.616  -4.591  28.494  0.00  0.00    -0.251 OA
ATOM     20  O   UNL d   1      60.845  -3.220  28.925  0.00  0.00    -0.268 OA
ATOM     21  C   UNL d   1      60.548  -1.819  29.293  0.00  0.00     0.027 A 
ATOM     22  C   UNL d   1      59.957  -1.234  29.383  0.00  0.00     0.022 A 
ENDBRANCH  12  13
ENDBRANCH   1  12
TORSDOF 3
ENDMDL
