MODEL 1
REMARK VINA RESULT:      -7.6      0.000      0.000
REMARK  3 active torsions:
REMARK  status: ('A' for Active; 'I' for Inactive)
REMARK    1  A    between atoms: S_6  and  C_1 
REMARK    2  A    between atoms: C_9  and  S_6 
REMARK    3  A    between atoms: C_7  and  C_9 
REMARK       I    between atoms: N_8  and  C_7 
ROOT
ATOM      1  C   UNL d   1     -49.833  13.262  22.592  0.00  0.00     0.049 A 
ATOM      2  N   UNL d   1     -50.505  13.879  21.615  0.00  0.00    -0.245 NA
ATOM      3  C   UNL d   1     -50.125  13.176  21.827  0.00  0.00     0.087 A 
ATOM      4  C   UNL d   1     -50.027  14.013  22.864  0.00  0.00     0.025 A 
ATOM      5  C   UNL d   1     -50.442  14.399  22.265  0.00  0.00     0.082 A 
ATOM      6  C   UNL d   1     -50.046  12.502  21.359  0.00  0.00     0.021 C 
ATOM      7  C   UNL d   1     -49.884  14.402  23.574  0.00  0.00     0.002 A 
ATOM      8  C   UNL d   1     -50.714  15.172  22.375  0.00  0.00     0.019 A 
ATOM      9  C   UNL d   1     -50.149  15.172  23.697  0.00  0.00     0.000 A 
ATOM     10  C   UNL d   1     -50.570  15.556  23.084  0.00  0.00     0.002 A 
ENDROOT
BRANCH   1  11
ATOM     11  S   UNL d   1     -49.412  12.687  23.024  0.00  0.00    -0.080 SA
BRANCH  11  12
ATOM     12  C   UNL d   1     -48.587  12.649  22.951  0.00  0.00     0.097 C 
BRANCH  12  13
ATOM     13  C   UNL d   1     -48.177  12.032  23.324  0.00  0.00     0.272 C 
ATOM     14  N   UNL d   1     -47.344  12.042  23.322  0.00  0.00    -0.267 N 
ATOM     15  C   UNL d   1     -46.932  11.428  23.693  0.00  0.00     0.110 A 
ATOM     16  C   UNL d   1     -46.930  12.658  22.951  0.00  0.00     0.110 A 
ATOM     17  C   UNL d   1     -46.104  11.436  23.692  0.00  0.00     0.142 A 
ATOM     18  O   UNL d   1     -45.686  12.051  23.322  0.00  0.00    -0.300 OA
ATOM     19  C   UNL d   1     -46.109  12.663  22.951  0.00  0.00     0.142 A 
ATOM     20  O   UNL d   1     -48.586  11.414  23.696  0.00  0.00    -0.266 OA
ENDBRANCH  12  13
ENDBRANCH  11  12
ENDBRANCH   1  11
TORSDOF 3
ENDMDL
MODEL 2
REMARK VINA RESULT:      -6.7      1.143      2.015
REMARK  3 active torsions:
REMARK  status: ('A' for Active; 'I' for Inactive)
REMARK    1  A    between atoms: S_6  and  C_1 
REMARK    2  A    between atoms: C_9  and  S_6 
REMARK    3  A    between atoms: C_7  and  C_9 
REMARK       I    between atoms: N_8  and  C_7 
ROOT
ATOM      1  C   UNL d   1     -49.004  14.302  22.416  0.00  0.00     0.049 A 
ATOM      2  N   UNL d   1     -50.148  14.874  22.805  0.00  0.00    -0.245 NA
ATOM      3  C   UNL d   1     -49.324  14.930  22.843  0.00  0.00     0.087 A 
ATOM      4  C   UNL d   1     -49.620  13.852  22.111  0.00  0.00     0.025 A 
ATOM      5  C   UNL d   1     -50.329  14.200  22.347  0.00  0.00     0.082 A 
ATOM      6  C   UNL d   1     -48.890  15.509  23.236  0.00  0.00     0.021 C 
ATOM      7  C   UNL d   1     -49.636  13.171  21.649  0.00  0.00     0.002 A 
ATOM      8  C   UNL d   1     -51.052  13.869  22.123  0.00  0.00     0.019 A 
ATOM      9  C   UNL d   1     -50.350  12.832  21.419  0.00  0.00     0.000 A 
ATOM     10  C   UNL d   1     -51.064  13.192  21.663  0.00  0.00     0.002 A 
ENDROOT
BRANCH   1  11
ATOM     11  S   UNL d   1     -48.193  14.145  22.310  0.00  0.00    -0.080 SA
BRANCH  11  12
ATOM     12  C   UNL d   1     -47.791  13.688  22.872  0.00  0.00     0.097 C 
BRANCH  12  13
ATOM     13  C   UNL d   1     -46.982  13.537  22.766  0.00  0.00     0.272 C 
ATOM     14  N   UNL d   1     -46.667  12.816  23.039  0.00  0.00    -0.267 N 
ATOM     15  C   UNL d   1     -45.861  12.662  22.935  0.00  0.00     0.110 A 
ATOM     16  C   UNL d   1     -47.153  12.256  23.410  0.00  0.00     0.110 A 
ATOM     17  C   UNL d   1     -45.545  11.946  23.205  0.00  0.00     0.142 A 
ATOM     18  O   UNL d   1     -46.029  11.384  23.577  0.00  0.00    -0.300 OA
ATOM     19  C   UNL d   1     -46.838  11.546  23.678  0.00  0.00     0.142 A 
ATOM     20  O   UNL d   1     -46.491  14.094  22.395  0.00  0.00    -0.266 OA
ENDBRANCH  12  13
ENDBRANCH  11  12
ENDBRANCH   1  11
TORSDOF 3
ENDMDL
MODEL 3
REMARK VINA RESULT:      -5.8      1.288      1.572
REMARK  3 active torsions:
REMARK  status: ('A' for Active; 'I' for Inactive)
REMARK    1  A    between atoms: S_6  and  C_1 
REMARK    2  A    between atoms: C_9  and  S_6 
REMARK    3  A    between atoms: C_7  and  C_9 
REMARK       I    between atoms: N_8  and  C_7 
ROOT
ATOM      1  C   UNL d   1     -49.827  12.208  22.582  0.00  0.00     0.049 A 
ATOM      2  N   UNL d   1     -51.064  12.655  22.822  0.00  0.00    -0.245 NA
ATOM      3  C   UNL d   1     -50.493  12.104  23.055  0.00  0.00     0.087 A 
ATOM      4  C   UNL d   1     -49.973  12.821  22.054  0.00  0.00     0.025 A 
ATOM      5  C   UNL d   1     -50.736  13.101  22.197  0.00  0.00     0.082 A 
ATOM      6  C   UNL d   1     -50.570  11.544  23.654  0.00  0.00     0.021 C 
ATOM      7  C   UNL d   1     -49.519  13.164  21.461  0.00  0.00     0.002 A 
ATOM      8  C   UNL d   1     -51.044  13.723  21.748  0.00  0.00     0.019 A 
ATOM      9  C   UNL d   1     -49.814  13.785  21.006  0.00  0.00     0.000 A 
ATOM     10  C   UNL d   1     -50.588  14.063  21.158  0.00  0.00     0.002 A 
ENDROOT
BRANCH   1  11
ATOM     11  S   UNL d   1     -49.120  11.770  22.628  0.00  0.00    -0.080 SA
BRANCH  11  12
ATOM     12  C   UNL d   1     -48.486  12.067  23.072  0.00  0.00     0.097 C 
BRANCH  12  13
ATOM     13  C   UNL d   1     -47.744  11.701  23.012  0.00  0.00     0.272 C 
ATOM     14  N   UNL d   1     -47.060  12.144  23.183  0.00  0.00    -0.267 N 
ATOM     15  C   UNL d   1     -46.319  11.782  23.124  0.00  0.00     0.110 A 
ATOM     16  C   UNL d   1     -47.119  12.940  23.410  0.00  0.00     0.110 A 
ATOM     17  C   UNL d   1     -45.637  12.222  23.293  0.00  0.00     0.142 A 
ATOM     18  O   UNL d   1     -45.692  13.018  23.521  0.00  0.00    -0.300 OA
ATOM     19  C   UNL d   1     -46.442  13.374  23.578  0.00  0.00     0.142 A 
ATOM     20  O   UNL d   1     -47.681  10.905  22.785  0.00  0.00    -0.266 OA
ENDBRANCH  12  13
ENDBRANCH  11  12
ENDBRANCH   1  11
TORSDOF 3
ENDMDL
MODEL 4
REMARK VINA RESULT:      -5.7      9.420     10.591
REMARK  3 active torsions:
REMARK  status: ('A' for Active; 'I' for Inactive)
REMARK    1  A    between atoms: S_6  and  C_1 
REMARK    2  A    between atoms: C_9  and  S_6 
REMARK    3  A    between atoms: C_7  and  C_9 
REMARK       I    between atoms: N_8  and  C_7 
ROOT
ATOM      1  C   UNL d   1     -40.075  14.617  17.998  0.00  0.00     0.049 A 
ATOM      2  N   UNL d   1     -39.960  15.081  16.749  0.00  0.00    -0.245 NA
ATOM      3  C   UNL d   1     -40.351  15.186  17.470  0.00  0.00     0.087 A 
ATOM      4  C   UNL d   1     -39.512  14.156  17.615  0.00  0.00     0.025 A 
ATOM      5  C   UNL d   1     -39.437  14.438  16.844  0.00  0.00     0.082 A 
ATOM      6  C   UNL d   1     -40.921  15.757  17.639  0.00  0.00     0.021 C 
ATOM      7  C   UNL d   1     -39.056  13.518  17.861  0.00  0.00     0.002 A 
ATOM      8  C   UNL d   1     -38.906  14.082  16.319  0.00  0.00     0.019 A 
ATOM      9  C   UNL d   1     -38.524  13.154  17.348  0.00  0.00     0.000 A 
ATOM     10  C   UNL d   1     -38.454  13.446  16.567  0.00  0.00     0.002 A 
ENDROOT
BRANCH   1  11
ATOM     11  S   UNL d   1     -40.321  14.521  18.788  0.00  0.00    -0.080 SA
BRANCH  11  12
ATOM     12  C   UNL d   1     -39.944  14.954  19.385  0.00  0.00     0.097 C 
BRANCH  12  13
ATOM     13  C   UNL d   1     -40.165  14.830  20.175  0.00  0.00     0.272 C 
ATOM     14  N   UNL d   1     -39.698  15.157  20.782  0.00  0.00    -0.267 N 
ATOM     15  C   UNL d   1     -39.917  15.036  21.570  0.00  0.00     0.110 A 
ATOM     16  C   UNL d   1     -39.021  15.601  20.600  0.00  0.00     0.110 A 
ATOM     17  C   UNL d   1     -39.453  15.361  22.175  0.00  0.00     0.142 A 
ATOM     18  O   UNL d   1     -38.775  15.805  21.998  0.00  0.00    -0.300 OA
ATOM     19  C   UNL d   1     -38.563  15.922  21.202  0.00  0.00     0.142 A 
ATOM     20  O   UNL d   1     -40.842  14.387  20.362  0.00  0.00    -0.266 OA
ENDBRANCH  12  13
ENDBRANCH  11  12
ENDBRANCH   1  11
TORSDOF 3
ENDMDL
MODEL 5
REMARK VINA RESULT:      -5.7      1.619      2.205
REMARK  3 active torsions:
REMARK  status: ('A' for Active; 'I' for Inactive)
REMARK    1  A    between atoms: S_6  and  C_1 
REMARK    2  A    between atoms: C_9  and  S_6 
REMARK    3  A    between atoms: C_7  and  C_9 
REMARK       I    between atoms: N_8  and  C_7 
ROOT
ATOM      1  C   UNL d   1     -48.951  12.828  23.023  0.00  0.00     0.049 A 
ATOM      2  N   UNL d   1     -49.810  11.806  22.953  0.00  0.00    -0.245 NA
ATOM      3  C   UNL d   1     -49.078  12.046  23.251  0.00  0.00     0.087 A 
ATOM      4  C   UNL d   1     -49.599  13.081  22.585  0.00  0.00     0.025 A 
ATOM      5  C   UNL d   1     -50.133  12.454  22.538  0.00  0.00     0.082 A 
ATOM      6  C   UNL d   1     -48.558  11.590  23.698  0.00  0.00     0.021 C 
ATOM      7  C   UNL d   1     -49.778  13.796  22.221  0.00  0.00     0.002 A 
ATOM      8  C   UNL d   1     -50.845  12.542  22.127  0.00  0.00     0.019 A 
ATOM      9  C   UNL d   1     -50.484  13.896  21.809  0.00  0.00     0.000 A 
ATOM     10  C   UNL d   1     -51.021  13.256  21.766  0.00  0.00     0.002 A 
ENDROOT
BRANCH   1  11
ATOM     11  S   UNL d   1     -48.282  13.289  23.205  0.00  0.00    -0.080 SA
BRANCH  11  12
ATOM     12  C   UNL d   1     -47.564  13.129  22.824  0.00  0.00     0.097 C 
BRANCH  12  13
ATOM     13  C   UNL d   1     -46.952  13.687  22.863  0.00  0.00     0.272 C 
ATOM     14  N   UNL d   1     -46.210  13.498  22.535  0.00  0.00    -0.267 N 
ATOM     15  C   UNL d   1     -45.598  14.053  22.572  0.00  0.00     0.110 A 
ATOM     16  C   UNL d   1     -46.084  12.762  22.174  0.00  0.00     0.110 A 
ATOM     17  C   UNL d   1     -44.860  13.867  22.246  0.00  0.00     0.142 A 
ATOM     18  O   UNL d   1     -44.730  13.132  21.884  0.00  0.00    -0.300 OA
ATOM     19  C   UNL d   1     -45.351  12.580  21.851  0.00  0.00     0.142 A 
ATOM     20  O   UNL d   1     -47.073  14.425  23.223  0.00  0.00    -0.266 OA
ENDBRANCH  12  13
ENDBRANCH  11  12
ENDBRANCH   1  11
TORSDOF 3
ENDMDL
MODEL 6
REMARK VINA RESULT:      -5.3      9.141     10.791
REMARK  3 active torsions:
REMARK  status: ('A' for Active; 'I' for Inactive)
REMARK    1  A    between atoms: S_6  and  C_1 
REMARK    2  A    between atoms: C_9  and  S_6 
REMARK    3  A    between atoms: C_7  and  C_9 
REMARK       I    between atoms: N_8  and  C_7 
ROOT
ATOM      1  C   UNL d   1     -39.491  14.365  19.916  0.00  0.00     0.049 A 
ATOM      2  N   UNL d   1     -39.115  14.725  21.148  0.00  0.00    -0.245 NA
ATOM      3  C   UNL d   1     -38.909  14.268  20.491  0.00  0.00     0.087 A 
ATOM      4  C   UNL d   1     -40.062  14.881  20.207  0.00  0.00     0.025 A 
ATOM      5  C   UNL d   1     -39.835  15.107  20.967  0.00  0.00     0.082 A 
ATOM      6  C   UNL d   1     -38.240  13.793  20.415  0.00  0.00     0.021 C 
ATOM      7  C   UNL d   1     -40.758  15.178  19.886  0.00  0.00     0.002 A 
ATOM      8  C   UNL d   1     -40.303  15.628  21.405  0.00  0.00     0.019 A 
ATOM      9  C   UNL d   1     -41.234  15.698  20.312  0.00  0.00     0.000 A 
ATOM     10  C   UNL d   1     -40.996  15.922  21.083  0.00  0.00     0.002 A 
ENDROOT
BRANCH   1  11
ATOM     11  S   UNL d   1     -39.505  14.005  19.166  0.00  0.00    -0.080 SA
BRANCH  11  12
ATOM     12  C   UNL d   1     -39.059  14.333  18.550  0.00  0.00     0.097 C 
BRANCH  12  13
ATOM     13  C   UNL d   1     -39.064  13.965  17.806  0.00  0.00     0.272 C 
ATOM     14  N   UNL d   1     -38.687  14.342  17.167  0.00  0.00    -0.267 N 
ATOM     15  C   UNL d   1     -38.690  13.978  16.424  0.00  0.00     0.110 A 
ATOM     16  C   UNL d   1     -38.312  15.075  17.270  0.00  0.00     0.110 A 
ATOM     17  C   UNL d   1     -38.316  14.351  15.786  0.00  0.00     0.142 A 
ATOM     18  O   UNL d   1     -37.940  15.084  15.886  0.00  0.00    -0.300 OA
ATOM     19  C   UNL d   1     -37.942  15.443  16.636  0.00  0.00     0.142 A 
ATOM     20  O   UNL d   1     -39.438  13.232  17.698  0.00  0.00    -0.266 OA
ENDBRANCH  12  13
ENDBRANCH  11  12
ENDBRANCH   1  11
TORSDOF 3
ENDMDL
MODEL 7
REMARK VINA RESULT:      -5.0      9.783     10.483
REMARK  3 active torsions:
REMARK  status: ('A' for Active; 'I' for Inactive)
REMARK    1  A    between atoms: S_6  and  C_1 
REMARK    2  A    between atoms: C_9  and  S_6 
REMARK    3  A    between atoms: C_7  and  C_9 
REMARK       I    between atoms: N_8  and  C_7 
ROOT
ATOM      1  C   UNL d   1     -39.152  14.541  18.525  0.00  0.00     0.049 A 
ATOM      2  N   UNL d   1     -39.587  13.785  17.512  0.00  0.00    -0.245 NA
ATOM      3  C   UNL d   1     -39.030  13.834  18.120  0.00  0.00     0.087 A 
ATOM      4  C   UNL d   1     -39.782  14.937  18.175  0.00  0.00     0.025 A 
ATOM      5  C   UNL d   1     -40.055  14.475  17.549  0.00  0.00     0.082 A 
ATOM      6  C   UNL d   1     -38.450  13.277  18.298  0.00  0.00     0.021 C 
ATOM      7  C   UNL d   1     -40.147  15.656  18.339  0.00  0.00     0.002 A 
ATOM      8  C   UNL d   1     -40.691  14.731  17.087  0.00  0.00     0.019 A 
ATOM      9  C   UNL d   1     -40.782  15.922  17.887  0.00  0.00     0.000 A 
ATOM     10  C   UNL d   1     -41.052  15.447  17.254  0.00  0.00     0.002 A 
ENDROOT
BRANCH   1  11
ATOM     11  S   UNL d   1     -38.714  14.814  19.179  0.00  0.00    -0.080 SA
BRANCH  11  12
ATOM     12  C   UNL d   1     -38.890  14.524  19.934  0.00  0.00     0.097 C 
BRANCH  12  13
ATOM     13  C   UNL d   1     -38.501  14.846  20.592  0.00  0.00     0.272 C 
ATOM     14  N   UNL d   1     -38.680  14.554  21.351  0.00  0.00    -0.267 N 
ATOM     15  C   UNL d   1     -38.293  14.873  22.009  0.00  0.00     0.110 A 
ATOM     16  C   UNL d   1     -39.240  13.950  21.449  0.00  0.00     0.110 A 
ATOM     17  C   UNL d   1     -38.470  14.584  22.764  0.00  0.00     0.142 A 
ATOM     18  O   UNL d   1     -39.029  13.980  22.867  0.00  0.00    -0.300 OA
ATOM     19  C   UNL d   1     -39.414  13.665  22.200  0.00  0.00     0.142 A 
ATOM     20  O   UNL d   1     -37.940  15.450  20.499  0.00  0.00    -0.266 OA
ENDBRANCH  12  13
ENDBRANCH  11  12
ENDBRANCH   1  11
TORSDOF 3
ENDMDL
