MODEL 1
REMARK VINA RESULT:      -2.0      0.000      0.000
REMARK  4 active torsions:
REMARK  status: ('A' for Active; 'I' for Inactive)
REMARK    1  A    between atoms: S_3  and  N_1 
REMARK    2  A    between atoms: C_7  and  C_4 
REMARK    3  A    between atoms: C_11  and  C_5 
REMARK    4  A    between atoms: O_21  and  C_18 
ROOT
ATOM      1  N   UNL d   1     -42.681-122.825 -49.759  0.00  0.00    -0.155 N 
ATOM      2  N   UNL d   1     -42.720-122.742 -50.573  0.00  0.00    -0.156 NA
ATOM      3  C   UNL d   1     -41.901-122.988 -49.550  0.00  0.00     0.102 A 
ATOM      4  C   UNL d   1     -41.969-122.850 -50.897  0.00  0.00     0.104 A 
ATOM      5  C   UNL d   1     -41.460-123.005 -50.238  0.00  0.00     0.041 A 
ENDROOT
BRANCH   4   6
ATOM      6  C   UNL d   1     -41.762-122.816 -51.665  0.00  0.00     0.020 A 
ATOM      7  C   UNL d   1     -41.809-122.070 -52.085  0.00  0.00     0.004 A 
ATOM      8  C   UNL d   1     -41.603-122.020 -52.864  0.00  0.00     0.024 A 
ATOM      9  C   UNL d   1     -41.336-122.689 -53.297  0.00  0.00     0.094 A 
ATOM     10  C   UNL d   1     -41.291-123.412 -52.890  0.00  0.00     0.024 A 
ATOM     11  C   UNL d   1     -41.495-123.494 -52.095  0.00  0.00     0.004 A 
BRANCH   9  12
ATOM     12  O   UNL d   1     -41.123-122.628 -54.111  0.00  0.00    -0.328 OA
ATOM     13  C   UNL d   1     -41.680-122.838 -54.683  0.00  0.00     0.181 C 
ENDBRANCH   9  12
ENDBRANCH   4   6
BRANCH   1  14
ATOM     14  S   UNL d   1     -43.344-122.751 -49.236  0.00  0.00     0.266 S 
ATOM     15  O   UNL d   1     -43.202-121.951 -49.141  0.00  0.00    -0.203 OA
ATOM     16  O   UNL d   1     -43.989-122.695 -48.729  0.00  0.00    -0.203 OA
ATOM     17  C   UNL d   1     -43.483-123.591 -49.342  0.00  0.00     0.165 C 
ENDBRANCH   1  14
BRANCH   3  18
ATOM     18  C   UNL d   1     -41.620-123.112 -48.774  0.00  0.00     0.048 A 
ATOM     19  S   UNL d   1     -41.567-123.814 -48.386  0.00  0.00    -0.085 SA
ATOM     20  C   UNL d   1     -41.261-123.692 -47.632  0.00  0.00     0.035 A 
ATOM     21  C   UNL d   1     -41.124-122.907 -47.553  0.00  0.00     0.007 A 
ATOM     22  C   UNL d   1     -41.342-122.544 -48.250  0.00  0.00     0.009 A 
ENDBRANCH   3  18
TORSDOF 4
ENDMDL
MODEL 2
REMARK VINA RESULT:      -1.1      0.914      1.211
REMARK  4 active torsions:
REMARK  status: ('A' for Active; 'I' for Inactive)
REMARK    1  A    between atoms: S_3  and  N_1 
REMARK    2  A    between atoms: C_7  and  C_4 
REMARK    3  A    between atoms: C_11  and  C_5 
REMARK    4  A    between atoms: O_21  and  C_18 
ROOT
ATOM      1  N   UNL d   1     -42.567-122.504 -50.763  0.00  0.00    -0.155 N 
ATOM      2  N   UNL d   1     -42.619-122.355 -51.567  0.00  0.00    -0.156 NA
ATOM      3  C   UNL d   1     -41.829-122.834 -50.606  0.00  0.00     0.102 A 
ATOM      4  C   UNL d   1     -41.919-122.586 -51.936  0.00  0.00     0.104 A 
ATOM      5  C   UNL d   1     -41.427-122.888 -51.316  0.00  0.00     0.041 A 
ENDROOT
BRANCH   4   6
ATOM      6  C   UNL d   1     -41.739-122.538 -52.710  0.00  0.00     0.020 A 
ATOM      7  C   UNL d   1     -41.895-121.811 -53.137  0.00  0.00     0.004 A 
ATOM      8  C   UNL d   1     -41.718-121.746 -53.922  0.00  0.00     0.024 A 
ATOM      9  C   UNL d   1     -41.378-122.381 -54.354  0.00  0.00     0.094 A 
ATOM     10  C   UNL d   1     -41.227-123.086 -53.940  0.00  0.00     0.024 A 
ATOM     11  C   UNL d   1     -41.397-123.181 -53.139  0.00  0.00     0.004 A 
BRANCH   9  12
ATOM     12  O   UNL d   1     -41.196-122.306 -55.175  0.00  0.00    -0.328 OA
ATOM     13  C   UNL d   1     -41.764-121.978 -55.677  0.00  0.00     0.181 C 
ENDBRANCH   9  12
ENDBRANCH   4   6
BRANCH   1  14
ATOM     14  S   UNL d   1     -43.180-122.339 -50.202  0.00  0.00     0.266 S 
ATOM     15  O   UNL d   1     -43.525-123.068 -50.339  0.00  0.00    -0.203 OA
ATOM     16  O   UNL d   1     -43.770-122.165 -49.655  0.00  0.00    -0.203 OA
ATOM     17  C   UNL d   1     -42.810-121.577 -50.066  0.00  0.00     0.165 C 
ENDBRANCH   1  14
BRANCH   3  18
ATOM     18  C   UNL d   1     -41.550-123.068 -49.856  0.00  0.00     0.048 A 
ATOM     19  S   UNL d   1     -41.384-123.817 -49.613  0.00  0.00    -0.085 SA
ATOM     20  C   UNL d   1     -41.123-123.806 -48.833  0.00  0.00     0.035 A 
ATOM     21  C   UNL d   1     -41.126-123.042 -48.590  0.00  0.00     0.007 A 
ATOM     22  C   UNL d   1     -41.387-122.583 -49.212  0.00  0.00     0.009 A 
ENDBRANCH   3  18
TORSDOF 4
ENDMDL
MODEL 3
REMARK VINA RESULT:      -0.6      1.725      4.341
REMARK  4 active torsions:
REMARK  status: ('A' for Active; 'I' for Inactive)
REMARK    1  A    between atoms: S_3  and  N_1 
REMARK    2  A    between atoms: C_7  and  C_4 
REMARK    3  A    between atoms: C_11  and  C_5 
REMARK    4  A    between atoms: O_21  and  C_18 
ROOT
ATOM      1  N   UNL d   1     -41.755-122.047 -51.629  0.00  0.00    -0.155 N 
ATOM      2  N   UNL d   1     -41.854-122.041 -50.815  0.00  0.00    -0.156 NA
ATOM      3  C   UNL d   1     -41.563-122.814 -51.863  0.00  0.00     0.102 A 
ATOM      4  C   UNL d   1     -41.727-122.799 -50.517  0.00  0.00     0.104 A 
ATOM      5  C   UNL d   1     -41.544-123.279 -51.191  0.00  0.00     0.041 A 
ENDROOT
BRANCH   4   6
ATOM      6  C   UNL d   1     -41.768-123.035 -49.758  0.00  0.00     0.020 A 
ATOM      7  C   UNL d   1     -42.473-122.869 -49.300  0.00  0.00     0.004 A 
ATOM      8  C   UNL d   1     -42.530-123.102 -48.528  0.00  0.00     0.024 A 
ATOM      9  C   UNL d   1     -41.907-123.513 -48.142  0.00  0.00     0.094 A 
ATOM     10  C   UNL d   1     -41.223-123.673 -48.586  0.00  0.00     0.024 A 
ATOM     11  C   UNL d   1     -41.137-123.448 -49.375  0.00  0.00     0.004 A 
BRANCH   9  12
ATOM     12  O   UNL d   1     -41.974-123.752 -47.335  0.00  0.00    -0.328 OA
ATOM     13  C   UNL d   1     -42.605-123.463 -46.887  0.00  0.00     0.181 C 
ENDBRANCH   9  12
ENDBRANCH   4   6
BRANCH   1  14
ATOM     14  S   UNL d   1     -41.840-121.369 -52.130  0.00  0.00     0.266 S 
ATOM     15  O   UNL d   1     -42.471-121.715 -52.520  0.00  0.00    -0.203 OA
ATOM     16  O   UNL d   1     -41.911-120.704 -52.608  0.00  0.00    -0.203 OA
ATOM     17  C   UNL d   1     -41.178-121.015 -51.713  0.00  0.00     0.165 C 
ENDBRANCH   1  14
BRANCH   3  18
ATOM     18  C   UNL d   1     -41.416-123.061 -52.646  0.00  0.00     0.048 A 
ATOM     19  S   UNL d   1     -41.441-123.814 -52.927  0.00  0.00    -0.085 SA
ATOM     20  C   UNL d   1     -41.261-123.817 -53.730  0.00  0.00     0.035 A 
ATOM     21  C   UNL d   1     -41.123-123.059 -53.948  0.00  0.00     0.007 A 
ATOM     22  C   UNL d   1     -41.216-122.588 -53.288  0.00  0.00     0.009 A 
ENDBRANCH   3  18
TORSDOF 4
ENDMDL
