MODEL 1
REMARK VINA RESULT:       2.1      0.000      0.000
REMARK  6 active torsions:
REMARK  status: ('A' for Active; 'I' for Inactive)
REMARK    1  A    between atoms: C_7  and  C_1 
REMARK    2  A    between atoms: C_10  and  C_2 
REMARK    3  A    between atoms: C_9  and  C_5 
REMARK    4  A    between atoms: O_15  and  C_7 
REMARK    5  A    between atoms: N_14  and  C_9 
REMARK    6  A    between atoms: C_21  and  O_15 
ROOT
ATOM      1  C   UNL d   1     -41.852-122.593 -52.083  0.00  0.00     0.088 A 
ATOM      2  C   UNL d   1     -41.608-123.236 -51.628  0.00  0.00     0.105 A 
ATOM      3  C   UNL d   1     -41.688-122.765 -52.860  0.00  0.00     0.034 A 
ATOM      4  O   UNL d   1     -41.298-123.787 -52.149  0.00  0.00    -0.307 OA
ATOM      5  C   UNL d   1     -41.808-122.336 -53.560  0.00  0.00     0.059 A 
ATOM      6  C   UNL d   1     -41.346-123.500 -52.918  0.00  0.00     0.100 A 
ATOM      7  C   UNL d   1     -41.593-122.634 -54.281  0.00  0.00     0.197 A 
ATOM      8  C   UNL d   1     -41.123-123.817 -53.632  0.00  0.00     0.028 A 
ATOM      9  C   UNL d   1     -41.243-123.389 -54.328  0.00  0.00     0.044 A 
ATOM     10  O   UNL d   1     -41.715-122.201 -54.981  0.00  0.00    -0.286 OA
ENDROOT
BRANCH   2  11
ATOM     11  C   UNL d   1     -41.667-123.300 -50.812  0.00  0.00     0.023 A 
ATOM     12  C   UNL d   1     -42.289-123.744 -50.480  0.00  0.00     0.002 A 
ATOM     13  C   UNL d   1     -42.360-123.817 -49.652  0.00  0.00     0.000 A 
ATOM     14  C   UNL d   1     -41.801-123.439 -49.173  0.00  0.00     0.000 A 
ATOM     15  C   UNL d   1     -41.190-123.001 -49.502  0.00  0.00     0.000 A 
ATOM     16  C   UNL d   1     -41.123-122.932 -50.317  0.00  0.00     0.002 A 
ENDBRANCH   2  11
BRANCH   1  17
ATOM     17  C   UNL d   1     -42.140-122.108 -51.477  0.00  0.00     0.302 C 
ATOM     18  O   UNL d   1     -41.633-121.577 -51.101  0.00  0.00    -0.259 OA
BRANCH  17  19
ATOM     19  O   UNL d   1     -42.925-122.146 -51.244  0.00  0.00    -0.271 OA
BRANCH  19  20
ATOM     20  C   UNL d   1     -43.400-121.477 -51.230  0.00  0.00     0.126 C 
ATOM     21  C   UNL d   1     -44.178-121.508 -50.946  0.00  0.00     0.029 C 
ENDBRANCH  19  20
ENDBRANCH  17  19
ENDBRANCH   1  17
BRANCH   5  22
ATOM     22  C   UNL d   1     -42.156-121.584 -53.526  0.00  0.00     0.084 C 
BRANCH  22  23
ATOM     23  N   UNL d   1     -42.453-121.225 -54.207  0.00  0.00    -0.300 N 
ATOM     24  C   UNL d   1     -42.125-120.518 -54.460  0.00  0.00     0.100 C 
ATOM     25  C   UNL d   1     -43.063-121.563 -54.624  0.00  0.00     0.100 C 
ENDBRANCH  22  23
ENDBRANCH   5  22
TORSDOF 6
ENDMDL
