MODEL 1
REMARK VINA RESULT:      89.7      0.000      0.000
REMARK  4 active torsions:
REMARK  status: ('A' for Active; 'I' for Inactive)
REMARK    1  A    between atoms: C_10  and  N_2 
REMARK    2  A    between atoms: C_7  and  N_4 
REMARK    3  A    between atoms: C_11  and  C_7 
REMARK    4  A    between atoms: O_22  and  C_18 
ROOT
ATOM      1  S   UNL d   1     -51.315  27.327  33.399  0.00  0.00     0.276 S 
ATOM      2  N   UNL d   1     -50.714  26.763  33.465  0.00  0.00    -0.184 N 
ATOM      3  C   UNL d   1     -49.927  27.010  33.569  0.00  0.00     0.348 A 
ATOM      4  N   UNL d   1     -49.754  27.818  33.606  0.00  0.00    -0.258 N 
ATOM      5  C   UNL d   1     -51.141  28.132  33.436  0.00  0.00     0.120 A 
ATOM      6  C   UNL d   1     -50.354  28.380  33.541  0.00  0.00     0.081 A 
ATOM      7  O   UNL d   1     -52.084  27.645  33.307  0.00  0.00    -0.199 OA
ATOM      8  O   UNL d   1     -51.631  26.560  33.344  0.00  0.00    -0.199 OA
ATOM      9  O   UNL d   1     -49.312  26.445  33.636  0.00  0.00    -0.245 OA
ATOM     10  C   UNL d   1     -51.740  28.689  33.371  0.00  0.00     0.014 A 
ATOM     11  C   UNL d   1     -50.171  29.183  33.579  0.00  0.00     0.018 A 
ATOM     12  C   UNL d   1     -51.567  29.498  33.408  0.00  0.00     0.001 A 
ATOM     13  C   UNL d   1     -50.780  29.746  33.513  0.00  0.00     0.002 A 
ENDROOT
BRANCH   2  14
ATOM     14  C   UNL d   1     -50.889  25.961  33.427  0.00  0.00     0.079 A 
ATOM     15  C   UNL d   1     -51.673  25.700  33.468  0.00  0.00     0.020 A 
ATOM     16  C   UNL d   1     -51.851  24.896  33.431  0.00  0.00     0.026 A 
ATOM     17  C   UNL d   1     -51.237  24.342  33.351  0.00  0.00     0.094 A 
ATOM     18  C   UNL d   1     -50.451  24.597  33.310  0.00  0.00     0.026 A 
ATOM     19  C   UNL d   1     -50.275  25.407  33.348  0.00  0.00     0.020 A 
BRANCH  17  20
ATOM     20  O   UNL d   1     -51.410  23.523  33.313  0.00  0.00    -0.328 OA
ATOM     21  C   UNL d   1     -52.185  23.265  33.381  0.00  0.00     0.181 C 
ENDBRANCH  17  20
ENDBRANCH   2  14
BRANCH   4  22
ATOM     22  C   UNL d   1     -48.967  28.066  33.711  0.00  0.00     0.087 C 
BRANCH  22  23
ATOM     23  C   UNL d   1     -48.688  28.239  34.463  0.00  0.00     0.045 A 
ATOM     24  C   UNL d   1     -48.003  28.681  34.542  0.00  0.00     0.141 A 
ATOM     25  F   UNL d   1     -47.598  28.948  33.884  0.00  0.00    -0.204 F 
ATOM     26  C   UNL d   1     -47.725  28.853  35.298  0.00  0.00     0.030 A 
ATOM     27  C   UNL d   1     -48.131  28.586  35.960  0.00  0.00     0.002 A 
ATOM     28  C   UNL d   1     -48.815  28.146  35.869  0.00  0.00     0.000 A 
ATOM     29  C   UNL d   1     -49.094  27.972  35.120  0.00  0.00     0.004 A 
ENDBRANCH  22  23
ENDBRANCH   4  22
TORSDOF 4
ENDMDL
MODEL 2
REMARK VINA RESULT:      90.2      2.859      4.349
REMARK  4 active torsions:
REMARK  status: ('A' for Active; 'I' for Inactive)
REMARK    1  A    between atoms: C_10  and  N_2 
REMARK    2  A    between atoms: C_7  and  N_4 
REMARK    3  A    between atoms: C_11  and  C_7 
REMARK    4  A    between atoms: O_22  and  C_18 
ROOT
ATOM      1  S   UNL d   1     -50.736  26.755  35.596  0.00  0.00     0.276 S 
ATOM      2  N   UNL d   1     -51.397  26.272  35.712  0.00  0.00    -0.184 N 
ATOM      3  C   UNL d   1     -51.765  25.914  35.057  0.00  0.00     0.348 A 
ATOM      4  N   UNL d   1     -51.464  26.044  34.297  0.00  0.00    -0.258 N 
ATOM      5  C   UNL d   1     -50.437  26.884  34.839  0.00  0.00     0.120 A 
ATOM      6  C   UNL d   1     -50.804  26.526  34.184  0.00  0.00     0.081 A 
ATOM      7  O   UNL d   1     -50.093  27.260  35.779  0.00  0.00    -0.199 OA
ATOM      8  O   UNL d   1     -50.926  26.714  36.404  0.00  0.00    -0.199 OA
ATOM      9  O   UNL d   1     -52.435  25.424  35.165  0.00  0.00    -0.245 OA
ATOM     10  C   UNL d   1     -49.780  27.363  34.728  0.00  0.00     0.014 A 
ATOM     11  C   UNL d   1     -50.512  26.649  33.423  0.00  0.00     0.018 A 
ATOM     12  C   UNL d   1     -49.479  27.494  33.968  0.00  0.00     0.001 A 
ATOM     13  C   UNL d   1     -49.846  27.136  33.313  0.00  0.00     0.002 A 
ENDROOT
BRANCH   2  14
ATOM     14  C   UNL d   1     -51.693  26.145  36.467  0.00  0.00     0.079 A 
ATOM     15  C   UNL d   1     -51.247  26.349  37.133  0.00  0.00     0.020 A 
ATOM     16  C   UNL d   1     -51.542  26.222  37.892  0.00  0.00     0.026 A 
ATOM     17  C   UNL d   1     -52.296  25.886  37.990  0.00  0.00     0.094 A 
ATOM     18  C   UNL d   1     -52.747  25.680  37.328  0.00  0.00     0.026 A 
ATOM     19  C   UNL d   1     -52.447  25.809  36.565  0.00  0.00     0.020 A 
BRANCH  17  20
ATOM     20  O   UNL d   1     -52.603  25.754  38.759  0.00  0.00    -0.328 OA
ATOM     21  C   UNL d   1     -52.782  24.993  39.002  0.00  0.00     0.181 C 
ENDBRANCH  17  20
ENDBRANCH   2  14
BRANCH   4  22
ATOM     22  C   UNL d   1     -51.831  25.687  33.643  0.00  0.00     0.087 C 
BRANCH  22  23
ATOM     23  C   UNL d   1     -51.769  24.876  33.531  0.00  0.00     0.045 A 
ATOM     24  C   UNL d   1     -52.451  24.435  33.426  0.00  0.00     0.141 A 
ATOM     25  F   UNL d   1     -53.187  24.792  33.432  0.00  0.00    -0.204 F 
ATOM     26  C   UNL d   1     -52.387  23.621  33.314  0.00  0.00     0.030 A 
ATOM     27  C   UNL d   1     -51.649  23.260  33.309  0.00  0.00     0.002 A 
ATOM     28  C   UNL d   1     -50.974  23.711  33.415  0.00  0.00     0.000 A 
ATOM     29  C   UNL d   1     -51.033  24.520  33.526  0.00  0.00     0.004 A 
ENDBRANCH  22  23
ENDBRANCH   4  22
TORSDOF 4
ENDMDL
