MODEL 1
REMARK VINA RESULT:      71.4      0.000      0.000
REMARK  3 active torsions:
REMARK  status: ('A' for Active; 'I' for Inactive)
REMARK    1  A    between atoms: N_2  and  C_1 
REMARK       I    between atoms: C_4  and  N_2 
REMARK    2  A    between atoms: C_8  and  C_4 
REMARK    3  A    between atoms: C_10  and  C_5 
ROOT
ATOM      1  C   UNL d   1      59.770  48.887  50.602  0.00  0.00     0.197 A 
ATOM      2  N   UNL d   1      59.014  48.781  50.322  0.00  0.00    -0.221 NA
ATOM      3  C   UNL d   1      58.530  49.312  50.794  0.00  0.00     0.090 A 
ATOM      4  S   UNL d   1      59.793  49.446  51.214  0.00  0.00    -0.046 SA
ATOM      5  C   UNL d   1      59.035  49.708  51.335  0.00  0.00     0.058 A 
ENDROOT
BRANCH   1   6
ATOM      6  N   UNL d   1      60.450  48.477  50.304  0.00  0.00    -0.183 NA
ATOM      7  C   UNL d   1      60.544  47.662  50.501  0.00  0.00     0.281 C 
ATOM      8  O   UNL d   1      59.984  47.276  50.975  0.00  0.00    -0.265 OA
BRANCH   7   9
ATOM      9  C   UNL d   1      61.193  47.232  50.229  0.00  0.00     0.058 A 
ATOM     10  C   UNL d   1      61.147  46.417  50.233  0.00  0.00     0.005 A 
ATOM     11  C   UNL d   1      61.802  45.972  49.958  0.00  0.00     0.000 A 
ATOM     12  C   UNL d   1      62.486  46.337  49.687  0.00  0.00     0.000 A 
ATOM     13  C   UNL d   1      62.522  47.177  49.688  0.00  0.00     0.000 A 
ATOM     14  C   UNL d   1      63.089  45.952  49.434  0.00  0.00     0.000 C 
ATOM     15  C   UNL d   1      61.870  47.620  49.961  0.00  0.00     0.005 A 
ENDBRANCH   7   9
ENDBRANCH   1   6
BRANCH   3  16
ATOM     16  C   UNL d   1      57.720  49.425  50.742  0.00  0.00     0.018 A 
ATOM     17  C   UNL d   1      57.277  49.438  51.423  0.00  0.00     0.002 A 
ATOM     18  C   UNL d   1      56.449  49.553  51.387  0.00  0.00     0.000 A 
ATOM     19  C   UNL d   1      56.076  49.655  50.663  0.00  0.00     0.000 A 
ATOM     20  C   UNL d   1      56.523  49.643  49.960  0.00  0.00     0.000 A 
ATOM     21  C   UNL d   1      57.349  49.527  50.013  0.00  0.00     0.002 A 
ENDBRANCH   3  16
TORSDOF 3
ENDMDL
