MODEL 1
REMARK VINA RESULT:      88.7      0.000      0.000
REMARK  7 active torsions:
REMARK  status: ('A' for Active; 'I' for Inactive)
REMARK    1  A    between atoms: N_2  and  S_1 
REMARK    2  A    between atoms: C_6  and  S_1 
REMARK    3  A    between atoms: C_16  and  C_3 
REMARK       I    between atoms: C_4  and  N_10 
REMARK    4  A    between atoms: C_5  and  C_4 
REMARK       I    between atoms: N_11  and  C_5 
REMARK    5  A    between atoms: N_10  and  C_16 
REMARK    6  A    between atoms: C_26  and  N_11 
REMARK    7  A    between atoms: C_25  and  C_26 
ROOT
ATOM      1  C   UNL d   1      61.266  46.756  49.691  0.00  0.00     0.337 C 
ATOM      2  N   UNL d   1      61.298  47.232  50.355  0.00  0.00    -0.199 NA
ATOM      3  O   UNL d   1      60.730  46.915  49.085  0.00  0.00    -0.260 OA
ENDROOT
BRANCH   2   4
ATOM      4  C   UNL d   1      60.791  47.875  50.422  0.00  0.00     0.146 C 
BRANCH   4   5
ATOM      5  C   UNL d   1      61.008  48.536  50.862  0.00  0.00     0.197 A 
ATOM      6  N   UNL d   1      60.531  49.178  51.029  0.00  0.00    -0.207 N 
ATOM      7  C   UNL d   1      60.977  49.706  51.484  0.00  0.00     0.120 A 
ATOM      8  C   UNL d   1      61.734  49.384  51.596  0.00  0.00     0.144 A 
ATOM      9  O   UNL d   1      61.749  48.648  51.203  0.00  0.00    -0.285 OA
BRANCH   6  10
ATOM     10  S   UNL d   1      59.754  49.283  50.793  0.00  0.00     0.273 S 
ATOM     11  O   UNL d   1      60.009  49.706  50.139  0.00  0.00    -0.200 OA
ATOM     12  O   UNL d   1      59.498  48.861  51.446  0.00  0.00    -0.200 OA
BRANCH  10  13
ATOM     13  C   UNL d   1      58.976  49.389  50.556  0.00  0.00     0.104 A 
ATOM     14  C   UNL d   1      58.390  49.574  51.122  0.00  0.00     0.013 A 
ATOM     15  C   UNL d   1      57.612  49.680  50.886  0.00  0.00     0.007 A 
ATOM     16  C   UNL d   1      57.405  49.602  50.083  0.00  0.00     0.035 A 
ATOM     17  C   UNL d   1      57.989  49.418  49.528  0.00  0.00     0.007 A 
ATOM     18 BR   UNL d   1      56.626  49.707  49.843  0.00  0.00    -0.049 Br
ATOM     19  C   UNL d   1      58.767  49.313  49.764  0.00  0.00     0.013 A 
ENDBRANCH  10  13
ENDBRANCH   6  10
ENDBRANCH   4   5
ENDBRANCH   2   4
BRANCH   1  20
ATOM     20  C   UNL d   1      61.773  46.113  49.625  0.00  0.00     0.337 C 
ATOM     21  N   UNL d   1      61.466  45.355  49.693  0.00  0.00    -0.202 NA
ATOM     22  O   UNL d   1      62.574  46.232  49.492  0.00  0.00    -0.260 OA
BRANCH  21  23
ATOM     23  C   UNL d   1      61.976  44.699  49.626  0.00  0.00     0.102 C 
BRANCH  23  24
ATOM     24  C   UNL d   1      62.004  44.132  50.227  0.00  0.00     0.021 A 
ATOM     25  C   UNL d   1      62.603  43.571  50.222  0.00  0.00     0.028 A 
ATOM     26  C   UNL d   1      62.629  43.002  50.826  0.00  0.00     0.119 A 
ATOM     27  O   UNL d   1      63.155  42.382  50.963  0.00  0.00    -0.300 OA
ATOM     28  C   UNL d   1      62.059  42.999  51.426  0.00  0.00     0.119 A 
ATOM     29  C   UNL d   1      62.904  41.991  51.661  0.00  0.00     0.304 A 
ATOM     30  O   UNL d   1      62.230  42.384  51.930  0.00  0.00    -0.300 OA
ATOM     31  C   UNL d   1      61.464  43.570  51.417  0.00  0.00     0.026 A 
ATOM     32  C   UNL d   1      61.433  44.134  50.823  0.00  0.00     0.004 A 
ENDBRANCH  23  24
ENDBRANCH  21  23
ENDBRANCH   1  20
TORSDOF 7
ENDMDL
