MODEL 1
REMARK VINA RESULT:      80.6      0.000      0.000
REMARK  8 active torsions:
REMARK  status: ('A' for Active; 'I' for Inactive)
REMARK    1  A    between atoms: C_21  and  C_3 
REMARK    2  A    between atoms: S_17  and  C_5 
REMARK    3  A    between atoms: C_11  and  C_16 
REMARK       I    between atoms: N_14  and  C_11 
REMARK    4  A    between atoms: C_19  and  N_14 
REMARK    5  A    between atoms: C_16  and  C_20 
REMARK    6  A    between atoms: C_20  and  S_17 
REMARK    7  A    between atoms: O_27  and  C_22 
REMARK    8  A    between atoms: C_30  and  O_27 
ROOT
ATOM      1  C   UNL d   1      59.600  49.707  51.084  0.00  0.00     0.092 A 
ATOM      2  C   UNL d   1      58.203  49.706  50.775  0.00  0.00     0.057 A 
ATOM      3  C   UNL d   1      58.810  49.707  51.333  0.00  0.00     0.016 A 
ATOM      4  N   UNL d   1      59.166  49.705  49.722  0.00  0.00    -0.239 NA
ATOM      5  C   UNL d   1      59.778  49.706  50.279  0.00  0.00     0.120 A 
ATOM      6  C   UNL d   1      58.381  49.705  49.970  0.00  0.00     0.081 A 
ATOM      7  C   UNL d   1      57.419  49.707  51.025  0.00  0.00     0.193 A 
ATOM      8  C   UNL d   1      60.211  49.707  51.655  0.00  0.00     0.103 C 
ATOM      9  N   UNL d   1      60.828  49.708  52.222  0.00  0.00    -0.191 NA
ATOM     10  C   UNL d   1      56.990  49.705  49.662  0.00  0.00     0.042 A 
ATOM     11  C   UNL d   1      56.812  49.706  50.468  0.00  0.00     0.019 A 
ATOM     12  C   UNL d   1      57.775  49.704  49.414  0.00  0.00    -0.003 A 
ATOM     13  O   UNL d   1      57.241  49.708  51.831  0.00  0.00    -0.287 OA
ATOM     14  C   UNL d   1      56.877  49.704  48.844  0.00  0.00     0.009 C 
ATOM     15  C   UNL d   1      56.193  49.705  49.909  0.00  0.00     0.009 C 
ENDROOT
BRANCH   3  16
ATOM     16  C   UNL d   1      58.632  49.708  52.138  0.00  0.00     0.001 C 
ATOM     17  C   UNL d   1      59.232  49.603  52.693  0.00  0.00     0.000 C 
ENDBRANCH   3  16
BRANCH   5  18
ATOM     18  S   UNL d   1      60.570  49.705  50.032  0.00  0.00    -0.067 SA
BRANCH  18  19
ATOM     19  C   UNL d   1      60.937  48.991  49.833  0.00  0.00     0.042 C 
BRANCH  19  20
ATOM     20  C   UNL d   1      61.418  48.600  50.388  0.00  0.00     0.070 C 
BRANCH  20  21
ATOM     21  C   UNL d   1      61.516  47.780  50.347  0.00  0.00     0.280 C 
ATOM     22  N   UNL d   1      61.354  47.377  49.638  0.00  0.00    -0.208 NA
ATOM     23  O   UNL d   1      61.776  47.359  51.012  0.00  0.00    -0.265 OA
BRANCH  22  24
ATOM     24  C   UNL d   1      61.452  46.555  49.596  0.00  0.00     0.085 A 
ATOM     25  C   UNL d   1      61.649  46.126  50.277  0.00  0.00     0.021 A 
ATOM     26  C   UNL d   1      61.744  45.310  50.228  0.00  0.00     0.026 A 
ATOM     27  C   UNL d   1      61.646  44.907  49.502  0.00  0.00     0.100 A 
ATOM     28  C   UNL d   1      61.450  45.341  48.828  0.00  0.00     0.026 A 
ATOM     29  C   UNL d   1      61.353  46.161  48.869  0.00  0.00     0.021 A 
BRANCH  27  30
ATOM     30  O   UNL d   1      61.745  44.073  49.457  0.00  0.00    -0.305 OA
BRANCH  30  31
ATOM     31  C   UNL d   1      62.024  43.657  50.115  0.00  0.00     0.123 C 
ATOM     32  C   UNL d   1      62.128  42.847  50.065  0.00  0.00     0.029 C 
ENDBRANCH  30  31
ENDBRANCH  27  30
ENDBRANCH  22  24
ENDBRANCH  20  21
ENDBRANCH  19  20
ENDBRANCH  18  19
ENDBRANCH   5  18
TORSDOF 8
ENDMDL
