MODEL 1
REMARK VINA RESULT:      -6.3      0.000      0.000
REMARK  1 active torsions:
REMARK  status: ('A' for Active; 'I' for Inactive)
REMARK    1  A    between atoms: C_6  and  C_2 
ROOT
ATOM      1  N   UNL d   1     -41.131-122.890 -53.532  0.00  0.00    -0.220 NA
ATOM      2  C   UNL d   1     -41.540-122.514 -52.939  0.00  0.00     0.182 A 
ATOM      3  O   UNL d   1     -42.060-122.000 -53.210  0.00  0.00    -0.288 OA
ATOM      4  C   UNL d   1     -41.440-122.566 -54.225  0.00  0.00     0.106 A 
ATOM      5  C   UNL d   1     -42.018-122.013 -54.024  0.00  0.00     0.119 A 
ATOM      6  C   UNL d   1     -41.253-122.720 -55.015  0.00  0.00     0.021 A 
ATOM      7  C   UNL d   1     -42.409-121.614 -54.613  0.00  0.00     0.026 A 
ATOM      8  C   UNL d   1     -42.245-121.745 -55.415  0.00  0.00     0.002 A 
ATOM      9  C   UNL d   1     -41.647-122.318 -55.623  0.00  0.00     0.002 A 
ENDROOT
BRANCH   2  10
ATOM     10  C   UNL d   1     -41.438-122.641 -52.133  0.00  0.00     0.041 A 
ATOM     11  C   UNL d   1     -41.254-123.392 -51.868  0.00  0.00     0.005 A 
ATOM     12  C   UNL d   1     -41.151-123.517 -51.044  0.00  0.00     0.021 A 
ATOM     13  C   UNL d   1     -41.231-122.901 -50.515  0.00  0.00     0.103 A 
ATOM     14  C   UNL d   1     -41.419-122.133 -50.796  0.00  0.00     0.021 A 
ATOM     15  N   UNL d   1     -41.123-123.064 -49.729  0.00  0.00    -0.148 N 
ATOM     16  C   UNL d   1     -41.519-122.020 -51.609  0.00  0.00     0.005 A 
ENDBRANCH   2  10
TORSDOF 1
ENDMDL
MODEL 2
REMARK VINA RESULT:      -6.1      0.957      3.816
REMARK  1 active torsions:
REMARK  status: ('A' for Active; 'I' for Inactive)
REMARK    1  A    between atoms: C_6  and  C_2 
ROOT
ATOM      1  N   UNL d   1     -41.433-122.015 -52.292  0.00  0.00    -0.220 NA
ATOM      2  C   UNL d   1     -41.505-122.575 -52.878  0.00  0.00     0.182 A 
ATOM      3  O   UNL d   1     -41.453-123.303 -52.606  0.00  0.00    -0.288 OA
ATOM      4  C   UNL d   1     -41.326-122.457 -51.604  0.00  0.00     0.106 A 
ATOM      5  C   UNL d   1     -41.338-123.259 -51.800  0.00  0.00     0.119 A 
ATOM      6  C   UNL d   1     -41.219-122.210 -50.824  0.00  0.00     0.021 A 
ATOM      7  C   UNL d   1     -41.244-123.813 -51.214  0.00  0.00     0.026 A 
ATOM      8  C   UNL d   1     -41.135-123.598 -50.421  0.00  0.00     0.002 A 
ATOM      9  C   UNL d   1     -41.123-122.768 -50.219  0.00  0.00     0.002 A 
ENDROOT
BRANCH   2  10
ATOM     10  C   UNL d   1     -41.622-122.418 -53.676  0.00  0.00     0.041 A 
ATOM     11  C   UNL d   1     -42.219-121.907 -53.899  0.00  0.00     0.005 A 
ATOM     12  C   UNL d   1     -42.334-121.751 -54.717  0.00  0.00     0.021 A 
ATOM     13  C   UNL d   1     -41.860-122.102 -55.280  0.00  0.00     0.103 A 
ATOM     14  C   UNL d   1     -41.249-122.625 -55.041  0.00  0.00     0.021 A 
ATOM     15  N   UNL d   1     -42.004-121.925 -56.057  0.00  0.00    -0.148 N 
ATOM     16  C   UNL d   1     -41.143-122.774 -54.235  0.00  0.00     0.005 A 
ENDBRANCH   2  10
TORSDOF 1
ENDMDL
MODEL 3
REMARK VINA RESULT:      -6.1      0.551      1.140
REMARK  1 active torsions:
REMARK  status: ('A' for Active; 'I' for Inactive)
REMARK    1  A    between atoms: C_6  and  C_2 
ROOT
ATOM      1  N   UNL d   1     -41.998-122.073 -53.072  0.00  0.00    -0.220 NA
ATOM      2  C   UNL d   1     -41.516-122.640 -52.746  0.00  0.00     0.182 A 
ATOM      3  O   UNL d   1     -41.135-123.057 -53.284  0.00  0.00    -0.288 OA
ATOM      4  C   UNL d   1     -41.894-122.163 -53.885  0.00  0.00     0.106 A 
ATOM      5  C   UNL d   1     -41.357-122.775 -54.017  0.00  0.00     0.119 A 
ATOM      6  C   UNL d   1     -42.233-121.749 -54.515  0.00  0.00     0.021 A 
ATOM      7  C   UNL d   1     -41.159-122.974 -54.779  0.00  0.00     0.026 A 
ATOM      8  C   UNL d   1     -41.481-122.579 -55.432  0.00  0.00     0.002 A 
ATOM      9  C   UNL d   1     -42.037-121.945 -55.296  0.00  0.00     0.002 A 
ENDROOT
BRANCH   2  10
ATOM     10  C   UNL d   1     -41.419-122.782 -51.942  0.00  0.00     0.041 A 
ATOM     11  C   UNL d   1     -41.280-122.152 -51.441  0.00  0.00     0.005 A 
ATOM     12  C   UNL d   1     -41.182-122.302 -50.620  0.00  0.00     0.021 A 
ATOM     13  C   UNL d   1     -41.224-123.061 -50.326  0.00  0.00     0.103 A 
ATOM     14  C   UNL d   1     -41.367-123.702 -50.849  0.00  0.00     0.021 A 
ATOM     15  N   UNL d   1     -41.124-123.162 -49.529  0.00  0.00    -0.148 N 
ATOM     16  C   UNL d   1     -41.463-123.545 -51.655  0.00  0.00     0.005 A 
ENDBRANCH   2  10
TORSDOF 1
ENDMDL
MODEL 4
REMARK VINA RESULT:      -5.3      1.519      2.404
REMARK  1 active torsions:
REMARK  status: ('A' for Active; 'I' for Inactive)
REMARK    1  A    between atoms: C_6  and  C_2 
ROOT
ATOM      1  N   UNL d   1     -41.629-122.309 -51.318  0.00  0.00    -0.220 NA
ATOM      2  C   UNL d   1     -41.712-122.985 -50.875  0.00  0.00     0.182 A 
ATOM      3  O   UNL d   1     -41.603-123.634 -51.293  0.00  0.00    -0.288 OA
ATOM      4  C   UNL d   1     -41.453-122.585 -52.075  0.00  0.00     0.106 A 
ATOM      5  C   UNL d   1     -41.437-123.410 -52.059  0.00  0.00     0.119 A 
ATOM      6  C   UNL d   1     -41.306-122.168 -52.773  0.00  0.00     0.021 A 
ATOM      7  C   UNL d   1     -41.275-123.817 -52.742  0.00  0.00     0.026 A 
ATOM      8  C   UNL d   1     -41.123-123.430 -53.459  0.00  0.00     0.002 A 
ATOM      9  C   UNL d   1     -41.139-122.576 -53.475  0.00  0.00     0.002 A 
ENDROOT
BRANCH   2  10
ATOM     10  C   UNL d   1     -41.891-123.013 -50.073  0.00  0.00     0.041 A 
ATOM     11  C   UNL d   1     -41.327-123.283 -49.548  0.00  0.00     0.005 A 
ATOM     12  C   UNL d   1     -41.515-123.309 -48.729  0.00  0.00     0.021 A 
ATOM     13  C   UNL d   1     -42.247-123.069 -48.461  0.00  0.00     0.103 A 
ATOM     14  C   UNL d   1     -42.820-122.793 -49.008  0.00  0.00     0.021 A 
ATOM     15  N   UNL d   1     -42.388-123.110 -47.665  0.00  0.00    -0.148 N 
ATOM     16  C   UNL d   1     -42.627-122.771 -49.812  0.00  0.00     0.005 A 
ENDBRANCH   2  10
TORSDOF 1
ENDMDL
MODEL 5
REMARK VINA RESULT:      -5.0      1.076      1.752
REMARK  1 active torsions:
REMARK  status: ('A' for Active; 'I' for Inactive)
REMARK    1  A    between atoms: C_6  and  C_2 
ROOT
ATOM      1  N   UNL d   1     -41.559-122.285 -52.182  0.00  0.00    -0.220 NA
ATOM      2  C   UNL d   1     -41.522-122.964 -51.736  0.00  0.00     0.182 A 
ATOM      3  O   UNL d   1     -41.400-123.601 -52.168  0.00  0.00    -0.288 OA
ATOM      4  C   UNL d   1     -41.446-122.547 -52.956  0.00  0.00     0.106 A 
ATOM      5  C   UNL d   1     -41.348-123.366 -52.947  0.00  0.00     0.119 A 
ATOM      6  C   UNL d   1     -41.424-122.122 -53.664  0.00  0.00     0.021 A 
ATOM      7  C   UNL d   1     -41.227-123.760 -53.646  0.00  0.00     0.026 A 
ATOM      8  C   UNL d   1     -41.199-123.364 -54.374  0.00  0.00     0.002 A 
ATOM      9  C   UNL d   1     -41.302-122.516 -54.383  0.00  0.00     0.002 A 
ENDROOT
BRANCH   2  10
ATOM     10  C   UNL d   1     -41.603-123.004 -50.919  0.00  0.00     0.041 A 
ATOM     11  C   UNL d   1     -41.969-122.390 -50.524  0.00  0.00     0.005 A 
ATOM     12  C   UNL d   1     -42.048-122.435 -49.689  0.00  0.00     0.021 A 
ATOM     13  C   UNL d   1     -41.766-123.080 -49.277  0.00  0.00     0.103 A 
ATOM     14  C   UNL d   1     -41.390-123.706 -49.692  0.00  0.00     0.021 A 
ATOM     15  N   UNL d   1     -41.862-123.085 -48.473  0.00  0.00    -0.148 N 
ATOM     16  C   UNL d   1     -41.317-123.653 -50.513  0.00  0.00     0.005 A 
ENDBRANCH   2  10
TORSDOF 1
ENDMDL
