MODEL 1
REMARK VINA RESULT:      -7.3      0.000      0.000
REMARK  5 active torsions:
REMARK  status: ('A' for Active; 'I' for Inactive)
REMARK    1  A    between atoms: C_6  and  N_1 
REMARK    2  A    between atoms: C_8  and  C_4 
REMARK    3  A    between atoms: C_13  and  C_8 
REMARK    4  A    between atoms: O_20  and  C_11 
REMARK    5  A    between atoms: O_21  and  C_16 
ROOT
ATOM      1  N   UNL d   1      53.568  33.629  54.050  0.00  0.00    -0.231 N 
ATOM      2  C   UNL d   1      54.257  33.223  54.263  0.00  0.00     0.204 A 
ATOM      3  C   UNL d   1      53.151  33.158  53.516  0.00  0.00     0.274 A 
ATOM      4  C   UNL d   1      53.582  32.459  53.398  0.00  0.00     0.089 A 
ATOM      5  S   UNL d   1      54.261  32.507  53.861  0.00  0.00    -0.043 SA
ATOM      6  N   UNL d   1      54.833  33.499  54.788  0.00  0.00    -0.121 N 
ATOM      7  O   UNL d   1      52.427  33.348  53.159  0.00  0.00    -0.266 OA
ENDROOT
BRANCH   4   8
ATOM      8  C   UNL d   1      53.367  31.839  52.910  0.00  0.00     0.011 C 
BRANCH   8   9
ATOM      9  C   UNL d   1      53.275  31.082  53.219  0.00  0.00     0.003 A 
ATOM     10  C   UNL d   1      52.528  30.736  53.267  0.00  0.00     0.026 A 
ATOM     11  C   UNL d   1      52.437  29.983  53.575  0.00  0.00     0.116 A 
ATOM     12  C   UNL d   1      53.099  29.557  53.844  0.00  0.00     0.116 A 
ATOM     13  C   UNL d   1      53.850  29.908  53.794  0.00  0.00     0.026 A 
ATOM     14  C   UNL d   1      53.941  30.661  53.486  0.00  0.00     0.002 A 
BRANCH  11  15
ATOM     15  O   UNL d   1      51.685  29.644  53.619  0.00  0.00    -0.326 OA
ATOM     16  C   UNL d   1      51.011  30.129  53.584  0.00  0.00     0.181 C 
ENDBRANCH  11  15
BRANCH  12  17
ATOM     17  O   UNL d   1      53.016  28.805  54.152  0.00  0.00    -0.326 OA
ATOM     18  C   UNL d   1      53.565  28.514  54.697  0.00  0.00     0.181 C 
ENDBRANCH  12  17
ENDBRANCH   8   9
ENDBRANCH   4   8
BRANCH   1  19
ATOM     19  C   UNL d   1      53.331  34.372  54.318  0.00  0.00     0.183 A 
ATOM     20  N   UNL d   1      53.165  34.583  55.091  0.00  0.00    -0.220 NA
ATOM     21  C   UNL d   1      52.952  35.377  55.105  0.00  0.00     0.108 A 
ATOM     22  C   UNL d   1      52.987  35.661  54.328  0.00  0.00     0.059 A 
ATOM     23  S   UNL d   1      53.221  35.040  53.846  0.00  0.00    -0.048 SA
ENDBRANCH   1  19
TORSDOF 5
ENDMDL
MODEL 2
REMARK VINA RESULT:      -7.0      2.977      4.688
REMARK  5 active torsions:
REMARK  status: ('A' for Active; 'I' for Inactive)
REMARK    1  A    between atoms: C_6  and  N_1 
REMARK    2  A    between atoms: C_8  and  C_4 
REMARK    3  A    between atoms: C_13  and  C_8 
REMARK    4  A    between atoms: O_20  and  C_11 
REMARK    5  A    between atoms: O_21  and  C_16 
ROOT
ATOM      1  N   UNL d   1      52.867  33.683  53.441  0.00  0.00    -0.231 N 
ATOM      2  C   UNL d   1      52.716  34.486  53.310  0.00  0.00     0.204 A 
ATOM      3  C   UNL d   1      52.216  33.255  53.169  0.00  0.00     0.274 A 
ATOM      4  C   UNL d   1      51.661  33.793  52.869  0.00  0.00     0.089 A 
ATOM      5  S   UNL d   1      51.976  34.549  52.959  0.00  0.00    -0.043 SA
ATOM      6  N   UNL d   1      53.226  35.108  53.501  0.00  0.00    -0.121 N 
ATOM      7  O   UNL d   1      52.131  32.431  53.192  0.00  0.00    -0.266 OA
ENDROOT
BRANCH   4   8
ATOM      8  C   UNL d   1      50.935  33.602  52.544  0.00  0.00     0.011 C 
BRANCH   8   9
ATOM      9  C   UNL d   1      50.308  34.132  52.593  0.00  0.00     0.003 A 
ATOM     10  C   UNL d   1      49.863  34.320  51.925  0.00  0.00     0.026 A 
ATOM     11  C   UNL d   1      49.239  34.848  51.974  0.00  0.00     0.116 A 
ATOM     12  C   UNL d   1      49.046  35.202  52.702  0.00  0.00     0.116 A 
ATOM     13  C   UNL d   1      49.496  35.012  53.373  0.00  0.00     0.026 A 
ATOM     14  C   UNL d   1      50.120  34.484  53.324  0.00  0.00     0.002 A 
BRANCH  11  15
ATOM     15  O   UNL d   1      48.799  35.030  51.299  0.00  0.00    -0.326 OA
ATOM     16  C   UNL d   1      48.754  34.482  50.676  0.00  0.00     0.181 C 
ENDBRANCH  11  15
BRANCH  12  17
ATOM     17  O   UNL d   1      48.425  35.730  52.759  0.00  0.00    -0.326 OA
ATOM     18  C   UNL d   1      48.195  36.025  53.495  0.00  0.00     0.181 C 
ENDBRANCH  12  17
ENDBRANCH   8   9
ENDBRANCH   4   8
BRANCH   1  19
ATOM     19  C   UNL d   1      53.544  33.359  53.782  0.00  0.00     0.183 A 
ATOM     20  N   UNL d   1      54.181  33.030  53.388  0.00  0.00    -0.220 NA
ATOM     21  C   UNL d   1      54.731  32.777  53.944  0.00  0.00     0.108 A 
ATOM     22  C   UNL d   1      54.429  32.954  54.695  0.00  0.00     0.059 A 
ATOM     23  S   UNL d   1      53.698  33.313  54.592  0.00  0.00    -0.048 SA
ENDBRANCH   1  19
TORSDOF 5
ENDMDL
MODEL 3
REMARK VINA RESULT:      -6.9      1.937      4.636
REMARK  5 active torsions:
REMARK  status: ('A' for Active; 'I' for Inactive)
REMARK    1  A    between atoms: C_6  and  N_1 
REMARK    2  A    between atoms: C_8  and  C_4 
REMARK    3  A    between atoms: C_13  and  C_8 
REMARK    4  A    between atoms: O_20  and  C_11 
REMARK    5  A    between atoms: O_21  and  C_16 
ROOT
ATOM      1  N   UNL d   1      52.933  30.876  53.456  0.00  0.00    -0.231 N 
ATOM      2  C   UNL d   1      52.232  31.290  53.305  0.00  0.00     0.204 A 
ATOM      3  C   UNL d   1      53.562  31.402  53.367  0.00  0.00     0.274 A 
ATOM      4  C   UNL d   1      53.251  32.143  53.160  0.00  0.00     0.089 A 
ATOM      5  S   UNL d   1      52.432  32.065  53.124  0.00  0.00    -0.043 SA
ATOM      6  N   UNL d   1      51.470  30.970  53.333  0.00  0.00    -0.121 N 
ATOM      7  O   UNL d   1      54.365  31.222  53.467  0.00  0.00    -0.266 OA
ENDROOT
BRANCH   4   8
ATOM      8  C   UNL d   1      53.684  32.822  53.019  0.00  0.00     0.011 C 
BRANCH   8   9
ATOM      9  C   UNL d   1      53.584  33.483  53.499  0.00  0.00     0.003 A 
ATOM     10  C   UNL d   1      54.042  33.584  54.176  0.00  0.00     0.026 A 
ATOM     11  C   UNL d   1      53.942  34.242  54.654  0.00  0.00     0.116 A 
ATOM     12  C   UNL d   1      53.374  34.818  54.459  0.00  0.00     0.116 A 
ATOM     13  C   UNL d   1      52.914  34.714  53.776  0.00  0.00     0.026 A 
ATOM     14  C   UNL d   1      53.014  34.056  53.299  0.00  0.00     0.002 A 
BRANCH  11  15
ATOM     15  O   UNL d   1      54.405  34.335  55.331  0.00  0.00    -0.326 OA
ATOM     16  C   UNL d   1      55.118  33.912  55.404  0.00  0.00     0.181 C 
ENDBRANCH  11  15
BRANCH  12  17
ATOM     17  O   UNL d   1      53.268  35.477  54.930  0.00  0.00    -0.326 OA
ATOM     18  C   UNL d   1      52.648  36.002  54.780  0.00  0.00     0.181 C 
ENDBRANCH  12  17
ENDBRANCH   8   9
ENDBRANCH   4   8
BRANCH   1  19
ATOM     19  C   UNL d   1      52.999  30.080  53.661  0.00  0.00     0.183 A 
ATOM     20  N   UNL d   1      52.871  29.437  53.171  0.00  0.00    -0.220 NA
ATOM     21  C   UNL d   1      53.000  28.749  53.604  0.00  0.00     0.108 A 
ATOM     22  C   UNL d   1      53.211  28.972  54.373  0.00  0.00     0.059 A 
ATOM     23  S   UNL d   1      53.209  29.792  54.405  0.00  0.00    -0.048 SA
ENDBRANCH   1  19
TORSDOF 5
ENDMDL
MODEL 4
REMARK VINA RESULT:      -6.5      2.761      3.494
REMARK  5 active torsions:
REMARK  status: ('A' for Active; 'I' for Inactive)
REMARK    1  A    between atoms: C_6  and  N_1 
REMARK    2  A    between atoms: C_8  and  C_4 
REMARK    3  A    between atoms: C_13  and  C_8 
REMARK    4  A    between atoms: O_20  and  C_11 
REMARK    5  A    between atoms: O_21  and  C_16 
ROOT
ATOM      1  N   UNL d   1      50.493  34.169  52.471  0.00  0.00    -0.231 N 
ATOM      2  C   UNL d   1      50.500  33.941  53.267  0.00  0.00     0.204 A 
ATOM      3  C   UNL d   1      51.260  34.090  52.179  0.00  0.00     0.274 A 
ATOM      4  C   UNL d   1      51.743  33.813  52.793  0.00  0.00     0.089 A 
ATOM      5  S   UNL d   1      51.268  33.723  53.459  0.00  0.00    -0.043 SA
ATOM      6  N   UNL d   1      49.844  33.936  53.770  0.00  0.00    -0.121 N 
ATOM      7  O   UNL d   1      51.506  34.259  51.405  0.00  0.00    -0.266 OA
ENDROOT
BRANCH   4   8
ATOM      8  C   UNL d   1      52.545  33.658  52.741  0.00  0.00     0.011 C 
BRANCH   8   9
ATOM      9  C   UNL d   1      52.855  32.968  53.064  0.00  0.00     0.003 A 
ATOM     10  C   UNL d   1      53.328  32.997  53.739  0.00  0.00     0.026 A 
ATOM     11  C   UNL d   1      53.636  32.310  54.061  0.00  0.00     0.116 A 
ATOM     12  C   UNL d   1      53.474  31.573  53.710  0.00  0.00     0.116 A 
ATOM     13  C   UNL d   1      52.997  31.547  53.031  0.00  0.00     0.026 A 
ATOM     14  C   UNL d   1      52.689  32.234  52.709  0.00  0.00     0.002 A 
BRANCH  11  15
ATOM     15  O   UNL d   1      54.110  32.347  54.736  0.00  0.00    -0.326 OA
ATOM     16  C   UNL d   1      54.453  33.071  54.960  0.00  0.00     0.181 C 
ENDBRANCH  11  15
BRANCH  12  17
ATOM     17  O   UNL d   1      53.778  30.883  54.026  0.00  0.00    -0.326 OA
ATOM     18  C   UNL d   1      53.526  30.149  53.744  0.00  0.00     0.181 C 
ENDBRANCH  12  17
ENDBRANCH   8   9
ENDBRANCH   4   8
BRANCH   1  19
ATOM     19  C   UNL d   1      49.840  34.430  52.040  0.00  0.00     0.183 A 
ATOM     20  N   UNL d   1      49.601  34.162  51.305  0.00  0.00    -0.220 NA
ATOM     21  C   UNL d   1      48.925  34.575  51.084  0.00  0.00     0.108 A 
ATOM     22  C   UNL d   1      48.744  35.107  51.692  0.00  0.00     0.059 A 
ATOM     23  S   UNL d   1      49.310  35.015  52.280  0.00  0.00    -0.048 SA
ENDBRANCH   1  19
TORSDOF 5
ENDMDL
MODEL 5
REMARK VINA RESULT:      -6.4      1.746      4.447
REMARK  5 active torsions:
REMARK  status: ('A' for Active; 'I' for Inactive)
REMARK    1  A    between atoms: C_6  and  N_1 
REMARK    2  A    between atoms: C_8  and  C_4 
REMARK    3  A    between atoms: C_13  and  C_8 
REMARK    4  A    between atoms: O_20  and  C_11 
REMARK    5  A    between atoms: O_21  and  C_16 
ROOT
ATOM      1  N   UNL d   1      53.244  31.126  53.686  0.00  0.00    -0.231 N 
ATOM      2  C   UNL d   1      53.555  31.493  54.360  0.00  0.00     0.204 A 
ATOM      3  C   UNL d   1      53.186  31.695  53.092  0.00  0.00     0.274 A 
ATOM      4  C   UNL d   1      53.461  32.415  53.396  0.00  0.00     0.089 A 
ATOM      5  S   UNL d   1      53.687  32.283  54.177  0.00  0.00    -0.043 SA
ATOM      6  N   UNL d   1      53.703  31.122  55.083  0.00  0.00    -0.121 N 
ATOM      7  O   UNL d   1      52.902  31.569  52.323  0.00  0.00    -0.266 OA
ENDROOT
BRANCH   4   8
ATOM      8  C   UNL d   1      53.500  33.124  52.990  0.00  0.00     0.011 C 
BRANCH   8   9
ATOM      9  C   UNL d   1      53.220  33.816  53.339  0.00  0.00     0.003 A 
ATOM     10  C   UNL d   1      52.452  34.077  53.195  0.00  0.00     0.026 A 
ATOM     11  C   UNL d   1      52.174  34.765  53.542  0.00  0.00     0.116 A 
ATOM     12  C   UNL d   1      52.666  35.209  54.045  0.00  0.00     0.116 A 
ATOM     13  C   UNL d   1      53.439  34.943  54.188  0.00  0.00     0.026 A 
ATOM     14  C   UNL d   1      53.717  34.255  53.841  0.00  0.00     0.002 A 
BRANCH  11  15
ATOM     15  O   UNL d   1      51.403  35.020  53.392  0.00  0.00    -0.326 OA
ATOM     16  C   UNL d   1      50.886  34.538  52.954  0.00  0.00     0.181 C 
ENDBRANCH  11  15
BRANCH  12  17
ATOM     17  O   UNL d   1      52.396  35.896  54.395  0.00  0.00    -0.326 OA
ATOM     18  C   UNL d   1      52.883  36.322  54.910  0.00  0.00     0.181 C 
ENDBRANCH  12  17
ENDBRANCH   8   9
ENDBRANCH   4   8
BRANCH   1  19
ATOM     19  C   UNL d   1      53.028  30.334  53.614  0.00  0.00     0.183 A 
ATOM     20  N   UNL d   1      52.273  30.042  53.489  0.00  0.00    -0.220 NA
ATOM     21  C   UNL d   1      52.313  29.221  53.453  0.00  0.00     0.108 A 
ATOM     22  C   UNL d   1      53.106  29.003  53.557  0.00  0.00     0.059 A 
ATOM     23  S   UNL d   1      53.543  29.690  53.656  0.00  0.00    -0.048 SA
ENDBRANCH   1  19
TORSDOF 5
ENDMDL
MODEL 6
REMARK VINA RESULT:      -6.2      2.781      3.755
REMARK  5 active torsions:
REMARK  status: ('A' for Active; 'I' for Inactive)
REMARK    1  A    between atoms: C_6  and  N_1 
REMARK    2  A    between atoms: C_8  and  C_4 
REMARK    3  A    between atoms: C_13  and  C_8 
REMARK    4  A    between atoms: O_20  and  C_11 
REMARK    5  A    between atoms: O_21  and  C_16 
ROOT
ATOM      1  N   UNL d   1      50.492  34.139  52.526  0.00  0.00    -0.231 N 
ATOM      2  C   UNL d   1      50.553  33.764  53.261  0.00  0.00     0.204 A 
ATOM      3  C   UNL d   1      51.239  34.135  52.176  0.00  0.00     0.274 A 
ATOM      4  C   UNL d   1      51.764  33.757  52.695  0.00  0.00     0.089 A 
ATOM      5  S   UNL d   1      51.335  33.531  53.360  0.00  0.00    -0.043 SA
ATOM      6  N   UNL d   1      49.932  33.648  53.794  0.00  0.00    -0.121 N 
ATOM      7  O   UNL d   1      51.432  34.454  51.436  0.00  0.00    -0.266 OA
ENDROOT
BRANCH   4   8
ATOM      8  C   UNL d   1      52.562  33.634  52.564  0.00  0.00     0.011 C 
BRANCH   8   9
ATOM      9  C   UNL d   1      53.060  33.449  53.192  0.00  0.00     0.003 A 
ATOM     10  C   UNL d   1      53.304  32.671  53.320  0.00  0.00     0.026 A 
ATOM     11  C   UNL d   1      53.799  32.487  53.945  0.00  0.00     0.116 A 
ATOM     12  C   UNL d   1      54.064  33.085  54.460  0.00  0.00     0.116 A 
ATOM     13  C   UNL d   1      53.817  33.866  54.329  0.00  0.00     0.026 A 
ATOM     14  C   UNL d   1      53.321  34.051  53.704  0.00  0.00     0.002 A 
BRANCH  11  15
ATOM     15  O   UNL d   1      54.038  31.706  54.065  0.00  0.00    -0.326 OA
ATOM     16  C   UNL d   1      53.691  31.095  53.622  0.00  0.00     0.181 C 
ENDBRANCH  11  15
BRANCH  12  17
ATOM     17  O   UNL d   1      54.559  32.909  55.086  0.00  0.00    -0.326 OA
ATOM     18  C   UNL d   1      54.872  33.514  55.553  0.00  0.00     0.181 C 
ENDBRANCH  12  17
ENDBRANCH   8   9
ENDBRANCH   4   8
BRANCH   1  19
ATOM     19  C   UNL d   1      49.809  34.463  52.195  0.00  0.00     0.183 A 
ATOM     20  N   UNL d   1      49.468  34.256  51.481  0.00  0.00    -0.220 NA
ATOM     21  C   UNL d   1      48.796  34.718  51.369  0.00  0.00     0.108 A 
ATOM     22  C   UNL d   1      48.723  35.219  52.025  0.00  0.00     0.059 A 
ATOM     23  S   UNL d   1      49.349  35.058  52.532  0.00  0.00    -0.048 SA
ENDBRANCH   1  19
TORSDOF 5
ENDMDL
MODEL 7
REMARK VINA RESULT:      -6.2      4.284      5.327
REMARK  5 active torsions:
REMARK  status: ('A' for Active; 'I' for Inactive)
REMARK    1  A    between atoms: C_6  and  N_1 
REMARK    2  A    between atoms: C_8  and  C_4 
REMARK    3  A    between atoms: C_13  and  C_8 
REMARK    4  A    between atoms: O_20  and  C_11 
REMARK    5  A    between atoms: O_21  and  C_16 
ROOT
ATOM      1  N   UNL d   1      48.454  35.151  52.025  0.00  0.00    -0.231 N 
ATOM      2  C   UNL d   1      48.963  34.761  51.503  0.00  0.00     0.204 A 
ATOM      3  C   UNL d   1      48.821  35.181  52.763  0.00  0.00     0.274 A 
ATOM      4  C   UNL d   1      49.559  34.808  52.699  0.00  0.00     0.089 A 
ATOM      5  S   UNL d   1      49.639  34.552  51.920  0.00  0.00    -0.043 SA
ATOM      6  N   UNL d   1      48.810  34.611  50.704  0.00  0.00    -0.121 N 
ATOM      7  O   UNL d   1      48.508  35.523  53.450  0.00  0.00    -0.266 OA
ENDROOT
BRANCH   4   8
ATOM      8  C   UNL d   1      50.104  34.715  53.302  0.00  0.00     0.011 C 
BRANCH   8   9
ATOM      9  C   UNL d   1      50.756  34.224  53.197  0.00  0.00     0.003 A 
ATOM     10  C   UNL d   1      51.513  34.542  53.123  0.00  0.00     0.026 A 
ATOM     11  C   UNL d   1      52.162  34.054  53.019  0.00  0.00     0.116 A 
ATOM     12  C   UNL d   1      52.064  33.228  52.987  0.00  0.00     0.116 A 
ATOM     13  C   UNL d   1      51.301  32.911  53.062  0.00  0.00     0.026 A 
ATOM     14  C   UNL d   1      50.652  33.399  53.166  0.00  0.00     0.002 A 
BRANCH  11  15
ATOM     15  O   UNL d   1      52.917  34.381  52.945  0.00  0.00    -0.326 OA
ATOM     16  C   UNL d   1      53.126  35.043  53.402  0.00  0.00     0.181 C 
ENDBRANCH  11  15
BRANCH  12  17
ATOM     17  O   UNL d   1      52.707  32.734  52.883  0.00  0.00    -0.326 OA
ATOM     18  C   UNL d   1      52.613  31.914  52.918  0.00  0.00     0.181 C 
ENDBRANCH  12  17
ENDBRANCH   8   9
ENDBRANCH   4   8
BRANCH   1  19
ATOM     19  C   UNL d   1      47.710  35.459  51.848  0.00  0.00     0.183 A 
ATOM     20  N   UNL d   1      47.064  35.044  51.564  0.00  0.00    -0.220 NA
ATOM     21  C   UNL d   1      46.439  35.570  51.467  0.00  0.00     0.108 A 
ATOM     22  C   UNL d   1      46.703  36.321  51.694  0.00  0.00     0.059 A 
ATOM     23  S   UNL d   1      47.486  36.249  51.929  0.00  0.00    -0.048 SA
ENDBRANCH   1  19
TORSDOF 5
ENDMDL
