MODEL 1
REMARK VINA RESULT:      38.9      0.000      0.000
REMARK  6 active torsions:
REMARK  status: ('A' for Active; 'I' for Inactive)
REMARK    1  A    between atoms: C_4  and  S_1 
REMARK    2  A    between atoms: C_5  and  S_1 
REMARK    3  A    between atoms: C_2  and  N_7 
REMARK    4  A    between atoms: N_3  and  C_2 
REMARK    5  A    between atoms: C_8  and  N_6 
REMARK    6  A    between atoms: N_7  and  C_14 
ROOT
ATOM      1  C   UNL d   1      45.481 -18.134  40.518  0.00  0.00     0.206 C 
ATOM      2  S   UNL d   1      44.824 -18.475  40.886  0.00  0.00    -0.038 SA
ENDROOT
BRANCH   1   3
ATOM      3  N   UNL d   1      46.237 -18.257  40.826  0.00  0.00    -0.218 NA
BRANCH   3   4
ATOM      4  C   UNL d   1      46.373 -18.884  41.344  0.00  0.00     0.085 A 
ATOM      5  C   UNL d   1      46.372 -18.753  42.159  0.00  0.00     0.031 A 
ATOM      6  C   UNL d   1      46.507 -19.376  42.678  0.00  0.00     0.094 A 
ATOM      7  C   UNL d   1      46.645 -20.140  42.380  0.00  0.00     0.012 A 
ATOM      8  C   UNL d   1      46.646 -20.271  41.565  0.00  0.00     0.002 A 
ATOM      9  C   UNL d   1      46.510 -19.640  41.049  0.00  0.00     0.019 A 
BRANCH   6  10
ATOM     10  S   UNL d   1      46.507 -19.248  43.500  0.00  0.00     0.262 S 
ATOM     11  O   UNL d   1      46.647 -18.446  43.369  0.00  0.00    -0.213 OA
ATOM     12  O   UNL d   1      46.366 -20.057  43.616  0.00  0.00    -0.213 OA
BRANCH  10  13
ATOM     13  C   UNL d   1      46.506 -19.125  44.316  0.00  0.00     0.364 C 
ATOM     14  F   UNL d   1      46.611 -18.364  44.621  0.00  0.00    -0.159 F 
ATOM     15  F   UNL d   1      46.399 -19.767  44.831  0.00  0.00    -0.159 F 
ENDBRANCH  10  13
ENDBRANCH   6  10
ENDBRANCH   3   4
ENDBRANCH   1   3
BRANCH   1  16
ATOM     16  N   UNL d   1      45.381 -17.670  39.840  0.00  0.00    -0.278 N 
ATOM     17  C   UNL d   1      44.619 -17.488  39.574  0.00  0.00     0.101 A 
ATOM     18  C   UNL d   1      44.524 -17.028  38.901  0.00  0.00     0.100 A 
ATOM     19  N   UNL d   1      45.175 -16.746  38.488  0.00  0.00    -0.301 N 
ATOM     20  C   UNL d   1      45.940 -16.924  38.748  0.00  0.00     0.100 A 
ATOM     21  C   UNL d   1      46.039 -17.390  39.429  0.00  0.00     0.101 A 
BRANCH  19  22
ATOM     22  C   UNL d   1      45.071 -16.279  37.805  0.00  0.00     0.065 A 
ATOM     23  C   UNL d   1      45.622 -15.693  37.616  0.00  0.00     0.029 A 
ATOM     24  C   UNL d   1      45.519 -15.230  36.941  0.00  0.00     0.059 A 
ATOM     25 CL   UNL d   1      46.070 -14.644  36.752  0.00  0.00    -0.082 Cl
ATOM     26  C   UNL d   1      44.865 -15.355  36.453  0.00  0.00     0.011 A 
ATOM     27  C   UNL d   1      44.314 -15.941  36.642  0.00  0.00     0.002 A 
ATOM     28  C   UNL d   1      44.417 -16.404  37.318  0.00  0.00     0.018 A 
ENDBRANCH  19  22
ENDBRANCH   1  16
TORSDOF 6
ENDMDL
