MODEL 1
REMARK VINA RESULT:      40.7      0.000      0.000
REMARK  4 active torsions:
REMARK  status: ('A' for Active; 'I' for Inactive)
REMARK    1  A    between atoms: C_9  and  N_2 
REMARK    2  A    between atoms: C_7  and  O_10 
REMARK    3  A    between atoms: C_11  and  C_9 
REMARK    4  A    between atoms: O_10  and  C_11 
ROOT
ATOM      1  C   UNL d   1     -51.168  23.948  33.322  0.00  0.00     0.378 A 
ATOM      2  N   UNL d   1     -51.634  24.638  33.320  0.00  0.00    -0.249 N 
ATOM      3  O   UNL d   1     -51.678  23.293  33.338  0.00  0.00    -0.258 OA
ATOM      4  C   UNL d   1     -52.428  24.407  33.335  0.00  0.00     0.092 A 
ATOM      5  C   UNL d   1     -52.453  23.576  33.346  0.00  0.00     0.121 A 
ATOM      6  O   UNL d   1     -50.346  23.931  33.310  0.00  0.00    -0.237 OA
ATOM      7  C   UNL d   1     -53.130  24.844  33.340  0.00  0.00     0.020 A 
ATOM      8  C   UNL d   1     -53.190  23.191  33.363  0.00  0.00     0.026 A 
ATOM      9  C   UNL d   1     -53.856  24.450  33.356  0.00  0.00     0.002 A 
ATOM     10  C   UNL d   1     -53.886  23.629  33.367  0.00  0.00     0.002 A 
ENDROOT
BRANCH   2  11
ATOM     11  C   UNL d   1     -51.393  25.428  33.306  0.00  0.00     0.112 C 
BRANCH  11  12
ATOM     12  C   UNL d   1     -50.694  25.648  33.671  0.00  0.00     0.142 C 
BRANCH  12  13
ATOM     13  O   UNL d   1     -50.300  26.329  33.425  0.00  0.00    -0.304 OA
BRANCH  13  14
ATOM     14  C   UNL d   1     -49.909  26.802  33.979  0.00  0.00     0.100 A 
ATOM     15  C   UNL d   1     -49.098  26.900  33.920  0.00  0.00     0.023 A 
ATOM     16  C   UNL d   1     -48.676  26.533  33.318  0.00  0.00     0.002 C 
ATOM     17  C   UNL d   1     -48.700  27.372  34.472  0.00  0.00     0.002 A 
ATOM     18  C   UNL d   1     -49.130  27.740  35.077  0.00  0.00     0.000 A 
ATOM     19  C   UNL d   1     -49.946  27.635  35.127  0.00  0.00     0.002 A 
ATOM     20  C   UNL d   1     -50.331  27.167  34.579  0.00  0.00     0.025 A 
ENDBRANCH  13  14
ENDBRANCH  12  13
ENDBRANCH  11  12
ENDBRANCH   2  11
TORSDOF 4
ENDMDL
