MODEL 1
REMARK VINA RESULT:     -10.5      0.000      0.000
REMARK  4 active torsions:
REMARK  status: ('A' for Active; 'I' for Inactive)
REMARK    1  A    between atoms: S_3  and  N_1 
REMARK    2  A    between atoms: C_9  and  S_3 
REMARK    3  A    between atoms: C_10  and  N_5 
REMARK    4  A    between atoms: C_15  and  C_10 
ROOT
ATOM      1  N   UNL d   1      52.398  32.159  53.159  0.00  0.00    -0.195 N 
ATOM      2  C   UNL d   1      52.781  32.719  53.611  0.00  0.00     0.193 A 
ATOM      3  C   UNL d   1      52.401  33.425  53.801  0.00  0.00     0.185 A 
ATOM      4  N   UNL d   1      51.664  33.377  53.451  0.00  0.00    -0.269 N 
ATOM      5  C   UNL d   1      51.658  32.652  53.082  0.00  0.00     0.179 A 
ATOM      6  N   UNL d   1      53.546  32.574  53.876  0.00  0.00    -0.223 NA
ATOM      7  N   UNL d   1      52.789  33.989  54.258  0.00  0.00    -0.224 NA
ATOM      8  C   UNL d   1      53.931  33.141  54.333  0.00  0.00     0.101 A 
ATOM      9  C   UNL d   1      53.555  33.845  54.523  0.00  0.00     0.101 A 
ATOM     10  C   UNL d   1      53.948  34.407  54.981  0.00  0.00     0.021 A 
ATOM     11  C   UNL d   1      54.695  32.994  54.595  0.00  0.00     0.021 A 
ATOM     12  C   UNL d   1      55.080  33.559  55.052  0.00  0.00     0.002 A 
ATOM     13  C   UNL d   1      54.702  34.261  55.240  0.00  0.00     0.002 A 
ENDROOT
BRANCH   1  14
ATOM     14  S   UNL d   1      52.840  31.403  52.972  0.00  0.00     0.274 S 
ATOM     15  O   UNL d   1      53.256  31.365  52.185  0.00  0.00    -0.200 OA
ATOM     16  O   UNL d   1      52.949  31.901  52.305  0.00  0.00    -0.200 OA
BRANCH  14  17
ATOM     17  C   UNL d   1      52.955  30.701  53.382  0.00  0.00     0.104 A 
ATOM     18  C   UNL d   1      52.308  30.323  53.745  0.00  0.00     0.013 A 
ATOM     19  C   UNL d   1      52.431  29.612  54.159  0.00  0.00     0.001 A 
ATOM     20  C   UNL d   1      53.188  29.285  54.210  0.00  0.00     0.000 A 
ATOM     21  C   UNL d   1      53.830  29.670  53.843  0.00  0.00     0.001 A 
ATOM     22  C   UNL d   1      53.307  28.581  54.620  0.00  0.00     0.000 C 
ATOM     23  C   UNL d   1      53.712  30.373  53.433  0.00  0.00     0.013 A 
ENDBRANCH  14  17
ENDBRANCH   1  14
BRANCH   4  24
ATOM     24  C   UNL d   1      51.061  33.942  53.471  0.00  0.00     0.108 C 
BRANCH  24  25
ATOM     25  C   UNL d   1      50.642  34.131  52.780  0.00  0.00     0.118 A 
ATOM     26  O   UNL d   1      50.977  34.358  52.057  0.00  0.00    -0.304 OA
ATOM     27  C   UNL d   1      50.354  34.497  51.511  0.00  0.00     0.123 A 
ATOM     28  C   UNL d   1      49.638  34.354  51.906  0.00  0.00     0.029 A 
ATOM     29  C   UNL d   1      49.820  34.129  52.689  0.00  0.00     0.028 A 
ENDBRANCH  24  25
ENDBRANCH   4  24
TORSDOF 4
ENDMDL
MODEL 2
REMARK VINA RESULT:      -8.5      1.001      3.754
REMARK  4 active torsions:
REMARK  status: ('A' for Active; 'I' for Inactive)
REMARK    1  A    between atoms: S_3  and  N_1 
REMARK    2  A    between atoms: C_9  and  S_3 
REMARK    3  A    between atoms: C_10  and  N_5 
REMARK    4  A    between atoms: C_15  and  C_10 
ROOT
ATOM      1  N   UNL d   1      52.830  32.597  52.962  0.00  0.00    -0.195 N 
ATOM      2  C   UNL d   1      53.332  32.769  53.581  0.00  0.00     0.193 A 
ATOM      3  C   UNL d   1      53.765  32.166  53.940  0.00  0.00     0.185 A 
ATOM      4  N   UNL d   1      53.559  31.483  53.542  0.00  0.00    -0.269 N 
ATOM      5  C   UNL d   1      53.022  31.726  52.980  0.00  0.00     0.179 A 
ATOM      6  N   UNL d   1      53.402  33.545  53.845  0.00  0.00    -0.223 NA
ATOM      7  N   UNL d   1      54.272  32.342  54.565  0.00  0.00    -0.224 NA
ATOM      8  C   UNL d   1      53.909  33.717  54.469  0.00  0.00     0.101 A 
ATOM      9  C   UNL d   1      54.342  33.118  54.828  0.00  0.00     0.101 A 
ATOM     10  C   UNL d   1      54.848  33.299  55.454  0.00  0.00     0.021 A 
ATOM     11  C   UNL d   1      53.977  34.492  54.730  0.00  0.00     0.021 A 
ATOM     12  C   UNL d   1      54.484  34.665  55.355  0.00  0.00     0.002 A 
ATOM     13  C   UNL d   1      54.915  34.065  55.710  0.00  0.00     0.002 A 
ENDROOT
BRANCH   1  14
ATOM     14  S   UNL d   1      52.374  33.275  52.596  0.00  0.00     0.274 S 
ATOM     15  O   UNL d   1      52.758  33.693  51.910  0.00  0.00    -0.200 OA
ATOM     16  O   UNL d   1      53.089  33.219  52.159  0.00  0.00    -0.200 OA
BRANCH  14  17
ATOM     17  C   UNL d   1      51.644  33.616  52.758  0.00  0.00     0.104 A 
ATOM     18  C   UNL d   1      51.040  33.157  53.100  0.00  0.00     0.013 A 
ATOM     19  C   UNL d   1      50.303  33.509  53.261  0.00  0.00     0.001 A 
ATOM     20  C   UNL d   1      50.174  34.305  53.083  0.00  0.00     0.000 A 
ATOM     21  C   UNL d   1      50.785  34.757  52.740  0.00  0.00     0.001 A 
ATOM     22  C   UNL d   1      49.444  34.650  53.243  0.00  0.00     0.000 C 
ATOM     23  C   UNL d   1      51.514  34.412  52.580  0.00  0.00     0.013 A 
ENDBRANCH  14  17
ENDBRANCH   1  14
BRANCH   4  24
ATOM     24  C   UNL d   1      53.837  30.717  53.682  0.00  0.00     0.108 C 
BRANCH  24  25
ATOM     25  C   UNL d   1      53.313  30.073  53.671  0.00  0.00     0.118 A 
ATOM     26  O   UNL d   1      52.847  29.838  53.027  0.00  0.00    -0.304 OA
ATOM     27  C   UNL d   1      52.402  29.164  53.256  0.00  0.00     0.123 A 
ATOM     28  C   UNL d   1      52.599  28.990  54.044  0.00  0.00     0.029 A 
ATOM     29  C   UNL d   1      53.161  29.554  54.296  0.00  0.00     0.028 A 
ENDBRANCH  24  25
ENDBRANCH   4  24
TORSDOF 4
ENDMDL
MODEL 3
REMARK VINA RESULT:      -7.8      0.982      3.178
REMARK  4 active torsions:
REMARK  status: ('A' for Active; 'I' for Inactive)
REMARK    1  A    between atoms: S_3  and  N_1 
REMARK    2  A    between atoms: C_9  and  S_3 
REMARK    3  A    between atoms: C_10  and  N_5 
REMARK    4  A    between atoms: C_15  and  C_10 
ROOT
ATOM      1  N   UNL d   1      52.989  33.093  53.259  0.00  0.00    -0.195 N 
ATOM      2  C   UNL d   1      52.790  32.303  53.261  0.00  0.00     0.193 A 
ATOM      3  C   UNL d   1      52.018  32.072  53.090  0.00  0.00     0.185 A 
ATOM      4  N   UNL d   1      51.609  32.765  52.948  0.00  0.00    -0.269 N 
ATOM      5  C   UNL d   1      52.163  33.354  53.044  0.00  0.00     0.179 A 
ATOM      6  N   UNL d   1      53.364  31.740  53.434  0.00  0.00    -0.223 NA
ATOM      7  N   UNL d   1      51.820  31.273  53.092  0.00  0.00    -0.224 NA
ATOM      8  C   UNL d   1      53.163  30.942  53.435  0.00  0.00     0.101 A 
ATOM      9  C   UNL d   1      52.394  30.709  53.265  0.00  0.00     0.101 A 
ATOM     10  C   UNL d   1      52.200  29.908  53.269  0.00  0.00     0.021 A 
ATOM     11  C   UNL d   1      53.737  30.383  53.608  0.00  0.00     0.021 A 
ATOM     12  C   UNL d   1      53.536  29.584  53.610  0.00  0.00     0.002 A 
ATOM     13  C   UNL d   1      52.768  29.356  53.440  0.00  0.00     0.002 A 
ENDROOT
BRANCH   1  14
ATOM     14  S   UNL d   1      53.837  33.310  53.449  0.00  0.00     0.274 S 
ATOM     15  O   UNL d   1      54.406  33.344  52.765  0.00  0.00    -0.200 OA
ATOM     16  O   UNL d   1      53.814  33.192  52.618  0.00  0.00    -0.200 OA
BRANCH  14  17
ATOM     17  C   UNL d   1      54.229  33.493  54.147  0.00  0.00     0.104 A 
ATOM     18  C   UNL d   1      55.041  33.328  54.221  0.00  0.00     0.013 A 
ATOM     19  C   UNL d   1      55.432  33.516  54.932  0.00  0.00     0.001 A 
ATOM     20  C   UNL d   1      55.017  33.862  55.556  0.00  0.00     0.000 A 
ATOM     21  C   UNL d   1      54.203  34.024  55.473  0.00  0.00     0.001 A 
ATOM     22  C   UNL d   1      55.407  34.047  56.258  0.00  0.00     0.000 C 
ATOM     23  C   UNL d   1      53.815  33.839  54.773  0.00  0.00     0.013 A 
ENDBRANCH  14  17
ENDBRANCH   1  14
BRANCH   4  24
ATOM     24  C   UNL d   1      50.811  32.845  52.751  0.00  0.00     0.108 C 
BRANCH  24  25
ATOM     25  C   UNL d   1      50.457  33.596  52.735  0.00  0.00     0.118 A 
ATOM     26  O   UNL d   1      50.226  34.039  53.396  0.00  0.00    -0.304 OA
ATOM     27  C   UNL d   1      49.894  34.761  53.126  0.00  0.00     0.123 A 
ATOM     28  C   UNL d   1      49.925  34.757  52.297  0.00  0.00     0.029 A 
ATOM     29  C   UNL d   1      50.274  34.036  52.059  0.00  0.00     0.028 A 
ENDBRANCH  24  25
ENDBRANCH   4  24
TORSDOF 4
ENDMDL
MODEL 4
REMARK VINA RESULT:      -7.7      1.261      4.091
REMARK  4 active torsions:
REMARK  status: ('A' for Active; 'I' for Inactive)
REMARK    1  A    between atoms: S_3  and  N_1 
REMARK    2  A    between atoms: C_9  and  S_3 
REMARK    3  A    between atoms: C_10  and  N_5 
REMARK    4  A    between atoms: C_15  and  C_10 
ROOT
ATOM      1  N   UNL d   1      53.808  32.124  53.502  0.00  0.00    -0.195 N 
ATOM      2  C   UNL d   1      53.053  32.363  53.310  0.00  0.00     0.193 A 
ATOM      3  C   UNL d   1      52.469  31.801  53.158  0.00  0.00     0.185 A 
ATOM      4  N   UNL d   1      52.836  31.076  53.247  0.00  0.00    -0.269 N 
ATOM      5  C   UNL d   1      53.605  31.257  53.445  0.00  0.00     0.179 A 
ATOM      6  N   UNL d   1      52.877  33.165  53.270  0.00  0.00    -0.223 NA
ATOM      7  N   UNL d   1      51.707  32.044  52.964  0.00  0.00    -0.224 NA
ATOM      8  C   UNL d   1      52.114  33.405  53.076  0.00  0.00     0.101 A 
ATOM      9  C   UNL d   1      51.531  32.847  52.924  0.00  0.00     0.101 A 
ATOM     10  C   UNL d   1      50.769  33.095  52.730  0.00  0.00     0.021 A 
ATOM     11  C   UNL d   1      51.942  34.206  53.037  0.00  0.00     0.021 A 
ATOM     12  C   UNL d   1      51.179  34.446  52.843  0.00  0.00     0.002 A 
ATOM     13  C   UNL d   1      50.600  33.887  52.691  0.00  0.00     0.002 A 
ENDROOT
BRANCH   1  14
ATOM     14  S   UNL d   1      54.417  32.761  53.662  0.00  0.00     0.274 S 
ATOM     15  O   UNL d   1      54.878  33.060  52.961  0.00  0.00    -0.200 OA
ATOM     16  O   UNL d   1      54.454  32.614  52.836  0.00  0.00    -0.200 OA
BRANCH  14  17
ATOM     17  C   UNL d   1      54.659  33.151  54.343  0.00  0.00     0.104 A 
ATOM     18  C   UNL d   1      54.404  32.881  55.088  0.00  0.00     0.013 A 
ATOM     19  C   UNL d   1      54.653  33.281  55.773  0.00  0.00     0.001 A 
ATOM     20  C   UNL d   1      55.148  33.939  55.715  0.00  0.00     0.000 A 
ATOM     21  C   UNL d   1      55.398  34.203  54.965  0.00  0.00     0.001 A 
ATOM     22  C   UNL d   1      55.392  34.333  56.395  0.00  0.00     0.000 C 
ATOM     23  C   UNL d   1      55.154  33.810  54.285  0.00  0.00     0.013 A 
ENDBRANCH  14  17
ENDBRANCH   1  14
BRANCH   4  24
ATOM     24  C   UNL d   1      52.498  30.328  53.156  0.00  0.00     0.108 C 
BRANCH  24  25
ATOM     25  C   UNL d   1      52.750  29.694  53.629  0.00  0.00     0.118 A 
ATOM     26  O   UNL d   1      52.462  29.506  54.383  0.00  0.00    -0.304 OA
ATOM     27  C   UNL d   1      52.869  28.826  54.659  0.00  0.00     0.123 A 
ATOM     28  C   UNL d   1      53.408  28.600  54.069  0.00  0.00     0.029 A 
ATOM     29  C   UNL d   1      53.331  29.139  53.435  0.00  0.00     0.028 A 
ENDBRANCH  24  25
ENDBRANCH   4  24
TORSDOF 4
ENDMDL
MODEL 5
REMARK VINA RESULT:      -7.7      0.992      3.205
REMARK  4 active torsions:
REMARK  status: ('A' for Active; 'I' for Inactive)
REMARK    1  A    between atoms: S_3  and  N_1 
REMARK    2  A    between atoms: C_9  and  S_3 
REMARK    3  A    between atoms: C_10  and  N_5 
REMARK    4  A    between atoms: C_15  and  C_10 
ROOT
ATOM      1  N   UNL d   1      53.347  32.239  53.249  0.00  0.00    -0.195 N 
ATOM      2  C   UNL d   1      52.763  32.808  53.255  0.00  0.00     0.193 A 
ATOM      3  C   UNL d   1      52.938  33.575  53.499  0.00  0.00     0.185 A 
ATOM      4  N   UNL d   1      53.732  33.568  53.691  0.00  0.00    -0.269 N 
ATOM      5  C   UNL d   1      53.971  32.803  53.549  0.00  0.00     0.179 A 
ATOM      6  N   UNL d   1      52.001  32.610  53.017  0.00  0.00    -0.223 NA
ATOM      7  N   UNL d   1      52.346  34.148  53.505  0.00  0.00    -0.224 NA
ATOM      8  C   UNL d   1      51.412  33.185  53.024  0.00  0.00     0.101 A 
ATOM      9  C   UNL d   1      51.583  33.950  53.267  0.00  0.00     0.101 A 
ATOM     10  C   UNL d   1      50.987  34.520  53.271  0.00  0.00     0.021 A 
ATOM     11  C   UNL d   1      50.652  32.985  52.787  0.00  0.00     0.021 A 
ATOM     12  C   UNL d   1      50.063  33.559  52.793  0.00  0.00     0.002 A 
ATOM     13  C   UNL d   1      50.237  34.322  53.036  0.00  0.00     0.002 A 
ENDROOT
BRANCH   1  14
ATOM     14  S   UNL d   1      53.123  31.416  52.978  0.00  0.00     0.274 S 
ATOM     15  O   UNL d   1      52.895  31.322  52.123  0.00  0.00    -0.200 OA
ATOM     16  O   UNL d   1      53.050  31.905  52.300  0.00  0.00    -0.200 OA
BRANCH  14  17
ATOM     17  C   UNL d   1      53.079  30.690  53.360  0.00  0.00     0.104 A 
ATOM     18  C   UNL d   1      52.445  30.175  53.198  0.00  0.00     0.013 A 
ATOM     19  C   UNL d   1      52.406  29.442  53.589  0.00  0.00     0.001 A 
ATOM     20  C   UNL d   1      52.991  29.226  54.131  0.00  0.00     0.000 A 
ATOM     21  C   UNL d   1      53.622  29.748  54.287  0.00  0.00     0.001 A 
ATOM     22  C   UNL d   1      52.949  28.500  54.516  0.00  0.00     0.000 C 
ATOM     23  C   UNL d   1      53.663  30.474  53.903  0.00  0.00     0.013 A 
ENDBRANCH  14  17
ENDBRANCH   1  14
BRANCH   4  24
ATOM     24  C   UNL d   1      54.187  34.199  53.968  0.00  0.00     0.108 C 
BRANCH  24  25
ATOM     25  C   UNL d   1      54.675  34.104  54.633  0.00  0.00     0.118 A 
ATOM     26  O   UNL d   1      54.425  34.112  55.423  0.00  0.00    -0.304 OA
ATOM     27  C   UNL d   1      55.097  33.997  55.912  0.00  0.00     0.123 A 
ATOM     28  C   UNL d   1      55.758  33.918  55.416  0.00  0.00     0.029 A 
ATOM     29  C   UNL d   1      55.493  33.985  54.627  0.00  0.00     0.028 A 
ENDBRANCH  24  25
ENDBRANCH   4  24
TORSDOF 4
ENDMDL
MODEL 6
REMARK VINA RESULT:      -7.7      1.169      4.336
REMARK  4 active torsions:
REMARK  status: ('A' for Active; 'I' for Inactive)
REMARK    1  A    between atoms: S_3  and  N_1 
REMARK    2  A    between atoms: C_9  and  S_3 
REMARK    3  A    between atoms: C_10  and  N_5 
REMARK    4  A    between atoms: C_15  and  C_10 
ROOT
ATOM      1  N   UNL d   1      52.809  33.260  53.382  0.00  0.00    -0.195 N 
ATOM      2  C   UNL d   1      52.932  32.460  53.474  0.00  0.00     0.193 A 
ATOM      3  C   UNL d   1      53.411  32.185  54.087  0.00  0.00     0.185 A 
ATOM      4  N   UNL d   1      53.664  32.853  54.483  0.00  0.00    -0.269 N 
ATOM      5  C   UNL d   1      53.320  33.473  54.081  0.00  0.00     0.179 A 
ATOM      6  N   UNL d   1      52.577  31.930  52.954  0.00  0.00    -0.223 NA
ATOM      7  N   UNL d   1      53.534  31.376  54.178  0.00  0.00    -0.224 NA
ATOM      8  C   UNL d   1      52.703  31.123  53.049  0.00  0.00     0.101 A 
ATOM      9  C   UNL d   1      53.179  30.846  53.658  0.00  0.00     0.101 A 
ATOM     10  C   UNL d   1      53.300  30.035  53.746  0.00  0.00     0.021 A 
ATOM     11  C   UNL d   1      52.347  30.597  52.529  0.00  0.00     0.021 A 
ATOM     12  C   UNL d   1      52.473  29.789  52.623  0.00  0.00     0.002 A 
ATOM     13  C   UNL d   1      52.948  29.517  53.232  0.00  0.00     0.002 A 
ENDROOT
BRANCH   1  14
ATOM     14  S   UNL d   1      52.284  33.524  52.706  0.00  0.00     0.274 S 
ATOM     15  O   UNL d   1      52.629  33.479  51.887  0.00  0.00    -0.200 OA
ATOM     16  O   UNL d   1      53.008  33.291  52.352  0.00  0.00    -0.200 OA
BRANCH  14  17
ATOM     17  C   UNL d   1      51.516  33.814  52.670  0.00  0.00     0.104 A 
ATOM     18  C   UNL d   1      51.157  34.125  53.354  0.00  0.00     0.013 A 
ATOM     19  C   UNL d   1      50.380  34.416  53.309  0.00  0.00     0.001 A 
ATOM     20  C   UNL d   1      49.967  34.397  52.594  0.00  0.00     0.000 A 
ATOM     21  C   UNL d   1      50.334  34.084  51.914  0.00  0.00     0.001 A 
ATOM     22  C   UNL d   1      49.198  34.687  52.554  0.00  0.00     0.000 C 
ATOM     23  C   UNL d   1      51.103  33.795  51.954  0.00  0.00     0.013 A 
ENDBRANCH  14  17
ENDBRANCH   1  14
BRANCH   4  24
ATOM     24  C   UNL d   1      54.158  32.888  55.144  0.00  0.00     0.108 C 
BRANCH  24  25
ATOM     25  C   UNL d   1      54.781  33.435  55.172  0.00  0.00     0.118 A 
ATOM     26  O   UNL d   1      55.454  33.431  54.688  0.00  0.00    -0.304 OA
ATOM     27  C   UNL d   1      55.938  34.081  54.904  0.00  0.00     0.123 A 
ATOM     28  C   UNL d   1      55.558  34.482  55.524  0.00  0.00     0.029 A 
ATOM     29  C   UNL d   1      54.843  34.080  55.686  0.00  0.00     0.028 A 
ENDBRANCH  24  25
ENDBRANCH   4  24
TORSDOF 4
ENDMDL
