MODEL 1
REMARK VINA RESULT:       8.5      0.000      0.000
REMARK  3 active torsions:
REMARK  status: ('A' for Active; 'I' for Inactive)
REMARK    1  A    between atoms: C_2  and  C_1 
REMARK    2  A    between atoms: C_3  and  C_2 
REMARK    3  A    between atoms: C_8  and  C_2 
ROOT
ATOM      1  C   UNL d   1     -42.762-122.761 -49.885  0.00  0.00     0.018 C 
ENDROOT
BRANCH   1   2
ATOM      2  C   UNL d   1     -42.332-122.492 -50.543  0.00  0.00     0.078 A 
ATOM      3  C   UNL d   1     -42.064-121.630 -50.573  0.00  0.00     0.195 A 
ATOM      4  C   UNL d   1     -41.656-121.447 -51.238  0.00  0.00     0.019 A 
ATOM      5  O   UNL d   1     -42.160-121.129 -50.119  0.00  0.00    -0.287 OA
ATOM      6  C   UNL d   1     -41.481-121.968 -51.851  0.00  0.00     0.043 A 
ATOM      7  C   UNL d   1     -41.730-122.751 -51.814  0.00  0.00     0.019 A 
ATOM      8  C   UNL d   1     -41.128-122.110 -52.591  0.00  0.00     0.009 C 
ATOM      9  C   UNL d   1     -41.148-121.242 -52.079  0.00  0.00     0.009 C 
ATOM     10  C   UNL d   1     -42.155-123.013 -51.160  0.00  0.00     0.195 A 
ATOM     11  O   UNL d   1     -42.405-123.806 -51.127  0.00  0.00    -0.287 OA
ENDBRANCH   1   2
BRANCH   1  12
ATOM     12  C   UNL d   1     -42.376-122.887 -49.161  0.00  0.00     0.078 A 
ATOM     13  C   UNL d   1     -42.534-122.412 -48.518  0.00  0.00     0.195 A 
ATOM     14  C   UNL d   1     -42.155-122.534 -47.802  0.00  0.00     0.019 A 
ATOM     15  O   UNL d   1     -43.092-121.795 -48.596  0.00  0.00    -0.287 OA
ATOM     16  C   UNL d   1     -41.608-123.139 -47.725  0.00  0.00     0.043 A 
ATOM     17  C   UNL d   1     -41.436-123.630 -48.371  0.00  0.00     0.019 A 
ATOM     18  C   UNL d   1     -41.127-123.427 -47.115  0.00  0.00     0.009 C 
ATOM     19  C   UNL d   1     -41.576-122.831 -46.957  0.00  0.00     0.009 C 
ATOM     20  C   UNL d   1     -41.822-123.504 -49.095  0.00  0.00     0.195 A 
ATOM     21  O   UNL d   1     -41.697-123.818 -49.466  0.00  0.00    -0.287 OA
ENDBRANCH   1  12
BRANCH   1  22
ATOM     22  C   UNL d   1     -43.563-122.902 -49.946  0.00  0.00     0.030 A 
ATOM     23  S   UNL d   1     -44.185-122.454 -50.259  0.00  0.00    -0.086 SA
ATOM     24  C   UNL d   1     -44.879-122.881 -50.168  0.00  0.00     0.035 A 
ATOM     25  C   UNL d   1     -44.703-123.588 -49.803  0.00  0.00     0.007 A 
ATOM     26  C   UNL d   1     -43.892-123.601 -49.667  0.00  0.00     0.007 A 
ENDBRANCH   1  22
TORSDOF 3
ENDMDL
MODEL 2
REMARK VINA RESULT:       9.0      0.454      3.123
REMARK  3 active torsions:
REMARK  status: ('A' for Active; 'I' for Inactive)
REMARK    1  A    between atoms: C_2  and  C_1 
REMARK    2  A    between atoms: C_3  and  C_2 
REMARK    3  A    between atoms: C_8  and  C_2 
ROOT
ATOM      1  C   UNL d   1     -42.845-122.949 -49.728  0.00  0.00     0.018 C 
ENDROOT
BRANCH   1   2
ATOM      2  C   UNL d   1     -42.477-122.966 -48.984  0.00  0.00     0.078 A 
ATOM      3  C   UNL d   1     -42.847-122.508 -48.298  0.00  0.00     0.195 A 
ATOM      4  C   UNL d   1     -42.434-122.572 -47.614  0.00  0.00     0.019 A 
ATOM      5  O   UNL d   1     -43.413-122.127 -48.285  0.00  0.00    -0.287 OA
ATOM      6  C   UNL d   1     -41.740-123.003 -47.512  0.00  0.00     0.043 A 
ATOM      7  C   UNL d   1     -41.411-123.416 -48.143  0.00  0.00     0.019 A 
ATOM      8  C   UNL d   1     -41.124-123.261 -47.016  0.00  0.00     0.009 C 
ATOM      9  C   UNL d   1     -41.901-122.668 -46.770  0.00  0.00     0.009 C 
ATOM     10  C   UNL d   1     -41.780-123.397 -48.879  0.00  0.00     0.195 A 
ATOM     11  O   UNL d   1     -41.444-123.817 -49.514  0.00  0.00    -0.287 OA
ENDBRANCH   1   2
BRANCH   1  12
ATOM     12  C   UNL d   1     -42.411-122.729 -50.401  0.00  0.00     0.078 A 
ATOM     13  C   UNL d   1     -42.227-121.948 -50.538  0.00  0.00     0.195 A 
ATOM     14  C   UNL d   1     -41.799-121.727 -51.201  0.00  0.00     0.019 A 
ATOM     15  O   UNL d   1     -42.480-121.368 -49.991  0.00  0.00    -0.287 OA
ATOM     16  C   UNL d   1     -41.550-122.294 -51.737  0.00  0.00     0.043 A 
ATOM     17  C   UNL d   1     -41.731-123.094 -51.610  0.00  0.00     0.019 A 
ATOM     18  C   UNL d   1     -41.123-122.291 -52.446  0.00  0.00     0.009 C 
ATOM     19  C   UNL d   1     -41.241-121.620 -52.104  0.00  0.00     0.009 C 
ATOM     20  C   UNL d   1     -42.165-123.314 -50.937  0.00  0.00     0.195 A 
ATOM     21  O   UNL d   1     -42.258-123.805 -50.889  0.00  0.00    -0.287 OA
ENDBRANCH   1  12
BRANCH   1  22
ATOM     22  C   UNL d   1     -43.632-123.149 -49.801  0.00  0.00     0.030 A 
ATOM     23  S   UNL d   1     -44.062-123.816 -49.565  0.00  0.00    -0.086 SA
ATOM     24  C   UNL d   1     -44.844-123.709 -49.789  0.00  0.00     0.035 A 
ATOM     25  C   UNL d   1     -44.912-122.987 -50.162  0.00  0.00     0.007 A 
ATOM     26  C   UNL d   1     -44.165-122.642 -50.169  0.00  0.00     0.007 A 
ENDBRANCH   1  22
TORSDOF 3
ENDMDL
