MODEL 1
REMARK VINA RESULT:      -6.1      0.000      0.000
REMARK  3 active torsions:
REMARK  status: ('A' for Active; 'I' for Inactive)
REMARK    1  A    between atoms: C_9  and  C_4 
REMARK    2  A    between atoms: C_10  and  C_7 
REMARK    3  A    between atoms: C_11  and  C_10 
ROOT
ATOM      1  C   UNL d   1     -41.542-123.347 -52.329  0.00  0.00     0.179 A 
ATOM      2  N   UNL d   1     -41.361-122.572 -52.116  0.00  0.00    -0.282 N 
ATOM      3  N   UNL d   1     -41.724-123.358 -53.139  0.00  0.00    -0.221 NA
ATOM      4  C   UNL d   1     -41.655-122.592 -53.425  0.00  0.00     0.101 A 
ATOM      5  S   UNL d   1     -41.475-123.817 -51.657  0.00  0.00    -0.048 SA
ATOM      6  C   UNL d   1     -41.430-122.103 -52.796  0.00  0.00     0.101 A 
ATOM      7  C   UNL d   1     -41.253-123.334 -51.032  0.00  0.00     0.050 A 
ATOM      8  C   UNL d   1     -41.182-122.559 -51.319  0.00  0.00     0.089 A 
ENDROOT
BRANCH   7   9
ATOM      9  C   UNL d   1     -41.123-123.577 -50.255  0.00  0.00     0.008 C 
BRANCH   9  10
ATOM     10  C   UNL d   1     -41.663-123.376 -49.667  0.00  0.00     0.001 A 
ATOM     11  C   UNL d   1     -41.476-122.784 -49.120  0.00  0.00     0.002 A 
ATOM     12  C   UNL d   1     -42.016-122.583 -48.533  0.00  0.00     0.030 A 
ATOM     13  C   UNL d   1     -42.744-122.970 -48.488  0.00  0.00     0.140 A 
ATOM     14  C   UNL d   1     -42.930-123.559 -49.032  0.00  0.00     0.030 A 
ATOM     15  F   UNL d   1     -43.285-122.764 -47.894  0.00  0.00    -0.204 F 
ATOM     16  C   UNL d   1     -42.390-123.763 -49.623  0.00  0.00     0.002 A 
ENDBRANCH   9  10
ENDBRANCH   7   9
BRANCH   4  17
ATOM     17  C   UNL d   1     -41.783-122.347 -54.197  0.00  0.00     0.019 A 
ATOM     18  C   UNL d   1     -41.222-122.498 -54.777  0.00  0.00     0.002 A 
ATOM     19  C   UNL d   1     -41.355-122.251 -55.552  0.00  0.00     0.000 A 
ATOM     20  C   UNL d   1     -42.052-121.852 -55.746  0.00  0.00     0.000 A 
ATOM     21  C   UNL d   1     -42.615-121.701 -55.162  0.00  0.00     0.000 A 
ATOM     22  C   UNL d   1     -42.484-121.947 -54.388  0.00  0.00     0.002 A 
ENDBRANCH   4  17
TORSDOF 3
ENDMDL
MODEL 2
REMARK VINA RESULT:      -5.9      1.911      5.075
REMARK  3 active torsions:
REMARK  status: ('A' for Active; 'I' for Inactive)
REMARK    1  A    between atoms: C_9  and  C_4 
REMARK    2  A    between atoms: C_10  and  C_7 
REMARK    3  A    between atoms: C_11  and  C_10 
ROOT
ATOM      1  C   UNL d   1     -41.890-122.278 -51.309  0.00  0.00     0.179 A 
ATOM      2  N   UNL d   1     -41.585-123.025 -51.468  0.00  0.00    -0.282 N 
ATOM      3  N   UNL d   1     -42.219-122.288 -50.547  0.00  0.00    -0.221 NA
ATOM      4  C   UNL d   1     -42.116-123.040 -50.236  0.00  0.00     0.101 A 
ATOM      5  S   UNL d   1     -41.754-121.803 -51.968  0.00  0.00    -0.048 SA
ATOM      6  C   UNL d   1     -41.724-123.499 -50.802  0.00  0.00     0.101 A 
ATOM      7  C   UNL d   1     -41.365-122.257 -52.531  0.00  0.00     0.050 A 
ATOM      8  C   UNL d   1     -41.261-123.018 -52.218  0.00  0.00     0.089 A 
ENDROOT
BRANCH   7   9
ATOM      9  C   UNL d   1     -41.123-122.000 -53.275  0.00  0.00     0.008 C 
BRANCH   9  10
ATOM     10  C   UNL d   1     -41.604-122.131 -53.930  0.00  0.00     0.001 A 
ATOM     11  C   UNL d   1     -41.517-122.823 -54.375  0.00  0.00     0.002 A 
ATOM     12  C   UNL d   1     -41.998-122.954 -55.030  0.00  0.00     0.030 A 
ATOM     13  C   UNL d   1     -42.567-122.396 -55.243  0.00  0.00     0.140 A 
ATOM     14  C   UNL d   1     -42.655-121.708 -54.802  0.00  0.00     0.030 A 
ATOM     15  F   UNL d   1     -43.050-122.533 -55.905  0.00  0.00    -0.204 F 
ATOM     16  C   UNL d   1     -42.173-121.573 -54.143  0.00  0.00     0.002 A 
ENDBRANCH   9  10
ENDBRANCH   7   9
BRANCH   4  17
ATOM     17  C   UNL d   1     -42.356-123.298 -49.496  0.00  0.00     0.019 A 
ATOM     18  C   UNL d   1     -41.826-123.308 -48.869  0.00  0.00     0.002 A 
ATOM     19  C   UNL d   1     -42.071-123.568 -48.127  0.00  0.00     0.000 A 
ATOM     20  C   UNL d   1     -42.850-123.817 -48.012  0.00  0.00     0.000 A 
ATOM     21  C   UNL d   1     -43.383-123.806 -48.642  0.00  0.00     0.000 A 
ATOM     22  C   UNL d   1     -43.139-123.547 -49.384  0.00  0.00     0.002 A 
ENDBRANCH   4  17
TORSDOF 3
ENDMDL
