MODEL 1
REMARK VINA RESULT:      -5.6      0.000      0.000
REMARK  5 active torsions:
REMARK  status: ('A' for Active; 'I' for Inactive)
REMARK    1  A    between atoms: C_6  and  N_1 
REMARK    2  A    between atoms: C_7  and  C_6 
REMARK    3  A    between atoms: C_8  and  C_7 
REMARK       I    between atoms: N_11  and  C_8 
REMARK    4  A    between atoms: C_13  and  N_11 
REMARK    5  A    between atoms: C_16  and  C_13 
ROOT
ATOM      1  C   UNL d   1      58.423  -0.718  29.437  0.00  0.00     0.091 C 
ENDROOT
BRANCH   1   2
ATOM      2  N   UNL d   1      59.016  -1.296  29.216  0.00  0.00    -0.240 N 
ATOM      3  C   UNL d   1      59.772  -1.148  28.988  0.00  0.00     0.267 A 
ATOM      4  C   UNL d   1      60.121  -1.857  28.835  0.00  0.00     0.061 A 
ATOM      5  O   UNL d   1      60.084  -0.346  28.940  0.00  0.00    -0.267 OA
ATOM      6  C   UNL d   1      60.915  -2.042  28.576  0.00  0.00     0.005 A 
ATOM      7  C   UNL d   1      59.592  -2.449  28.965  0.00  0.00     0.061 A 
ATOM      8  C   UNL d   1      61.133  -2.845  28.458  0.00  0.00     0.000 A 
ATOM      9  C   UNL d   1      60.605  -3.437  28.587  0.00  0.00     0.000 A 
ATOM     10  C   UNL d   1      59.822  -3.265  28.842  0.00  0.00     0.005 A 
ATOM     11  C   UNL d   1      58.891  -2.134  29.203  0.00  0.00     0.267 A 
ATOM     12  O   UNL d   1      58.146  -2.514  29.413  0.00  0.00    -0.267 OA
ENDBRANCH   1   2
BRANCH   1  13
ATOM     13  C   UNL d   1      58.435  -0.430  30.174  0.00  0.00     0.082 C 
BRANCH  13  14
ATOM     14  C   UNL d   1      57.752   0.006  30.453  0.00  0.00     0.281 C 
ATOM     15  N   UNL d   1      57.457  -0.187  31.240  0.00  0.00    -0.206 NA
ATOM     16  O   UNL d   1      57.421   0.561  29.981  0.00  0.00    -0.265 OA
BRANCH  15  17
ATOM     17  C   UNL d   1      56.774   0.249  31.518  0.00  0.00     0.102 C 
BRANCH  17  18
ATOM     18  C   UNL d   1      56.383  -0.037  32.188  0.00  0.00     0.019 A 
ATOM     19  C   UNL d   1      56.297  -0.804  32.341  0.00  0.00     0.002 A 
ATOM     20  C   UNL d   1      55.908  -1.084  33.007  0.00  0.00     0.000 A 
ATOM     21  C   UNL d   1      55.585  -0.509  33.554  0.00  0.00     0.000 A 
ATOM     22  C   UNL d   1      55.680   0.291  33.385  0.00  0.00     0.000 A 
ATOM     23  C   UNL d   1      56.059   0.538  32.736  0.00  0.00     0.002 A 
ENDBRANCH  17  18
ENDBRANCH  15  17
ENDBRANCH  13  14
ENDBRANCH   1  13
TORSDOF 5
ENDMDL
MODEL 2
REMARK VINA RESULT:      -3.5      1.282      5.482
REMARK  5 active torsions:
REMARK  status: ('A' for Active; 'I' for Inactive)
REMARK    1  A    between atoms: C_6  and  N_1 
REMARK    2  A    between atoms: C_7  and  C_6 
REMARK    3  A    between atoms: C_8  and  C_7 
REMARK       I    between atoms: N_11  and  C_8 
REMARK    4  A    between atoms: C_13  and  N_11 
REMARK    5  A    between atoms: C_16  and  C_13 
ROOT
ATOM      1  C   UNL d   1      57.254   0.681  31.545  0.00  0.00     0.091 C 
ENDROOT
BRANCH   1   2
ATOM      2  N   UNL d   1      56.937   0.677  32.341  0.00  0.00    -0.240 N 
ATOM      3  C   UNL d   1      57.356   0.676  33.027  0.00  0.00     0.267 A 
ATOM      4  C   UNL d   1      56.827   0.672  33.633  0.00  0.00     0.061 A 
ATOM      5  O   UNL d   1      58.218   0.679  33.033  0.00  0.00    -0.267 OA
ATOM      6  C   UNL d   1      56.951   0.669  34.480  0.00  0.00     0.005 A 
ATOM      7  C   UNL d   1      56.080   0.671  33.336  0.00  0.00     0.061 A 
ATOM      8  C   UNL d   1      56.286   0.665  34.993  0.00  0.00     0.000 A 
ATOM      9  C   UNL d   1      55.539   0.664  34.696  0.00  0.00     0.000 A 
ATOM     10  C   UNL d   1      55.407   0.667  33.866  0.00  0.00     0.005 A 
ATOM     11  C   UNL d   1      56.111   0.674  32.531  0.00  0.00     0.267 A 
ATOM     12  O   UNL d   1      55.481   0.674  31.944  0.00  0.00    -0.267 OA
ENDBRANCH   1   2
BRANCH   1  13
ATOM     13  C   UNL d   1      57.398  -0.014  31.194  0.00  0.00     0.082 C 
BRANCH  13  14
ATOM     14  C   UNL d   1      57.719  -0.010  30.400  0.00  0.00     0.281 C 
ATOM     15  N   UNL d   1      58.428  -0.481  30.260  0.00  0.00    -0.206 NA
ATOM     16  O   UNL d   1      57.356   0.421  29.832  0.00  0.00    -0.265 OA
BRANCH  15  17
ATOM     17  C   UNL d   1      58.749  -0.477  29.465  0.00  0.00     0.102 C 
BRANCH  17  18
ATOM     18  C   UNL d   1      59.407  -0.955  29.314  0.00  0.00     0.019 A 
ATOM     19  C   UNL d   1      59.353  -1.725  29.161  0.00  0.00     0.002 A 
ATOM     20  C   UNL d   1      60.008  -2.195  29.011  0.00  0.00     0.000 A 
ATOM     21  C   UNL d   1      60.780  -1.824  29.025  0.00  0.00     0.000 A 
ATOM     22  C   UNL d   1      60.826  -1.017  29.187  0.00  0.00     0.000 A 
ATOM     23  C   UNL d   1      60.179  -0.584  29.328  0.00  0.00     0.002 A 
ENDBRANCH  17  18
ENDBRANCH  15  17
ENDBRANCH  13  14
ENDBRANCH   1  13
TORSDOF 5
ENDMDL
