MODEL 1
REMARK VINA RESULT:      73.4      0.000      0.000
REMARK  4 active torsions:
REMARK  status: ('A' for Active; 'I' for Inactive)
REMARK    1  A    between atoms: C_11  and  C_1 
REMARK    2  A    between atoms: C_6  and  C_17 
REMARK       I    between atoms: N_10  and  C_6 
REMARK    3  A    between atoms: C_17  and  N_8 
REMARK    4  A    between atoms: C_15  and  N_10 
ROOT
ATOM      1  N   UNL d   1     -48.505  28.314  35.419  0.00  0.00    -0.299 N 
ATOM      2  C   UNL d   1     -49.591  27.283  34.747  0.00  0.00     0.039 A 
ATOM      3  C   UNL d   1     -49.655  27.489  35.543  0.00  0.00     0.022 A 
ATOM      4  C   UNL d   1     -48.989  27.588  34.284  0.00  0.00     0.022 A 
ATOM      5  C   UNL d   1     -48.442  28.107  34.622  0.00  0.00     0.081 A 
ATOM      6  C   UNL d   1     -49.116  28.000  35.876  0.00  0.00     0.081 A 
ENDROOT
BRANCH   1   7
ATOM      7  C   UNL d   1     -47.958  28.833  35.757  0.00  0.00     0.144 C 
BRANCH   7   8
ATOM      8  C   UNL d   1     -47.741  29.524  35.356  0.00  0.00     0.297 C 
ATOM      9  N   UNL d   1     -47.934  30.241  35.677  0.00  0.00    -0.207 NA
ATOM     10  O   UNL d   1     -47.340  29.483  34.648  0.00  0.00    -0.264 OA
BRANCH   9  11
ATOM     11  C   UNL d   1     -47.724  30.938  35.285  0.00  0.00     0.087 A 
ATOM     12  C   UNL d   1     -48.175  31.198  34.660  0.00  0.00     0.045 A 
ATOM     13  C   UNL d   1     -47.964  31.894  34.269  0.00  0.00     0.121 A 
ATOM     14  O   UNL d   1     -48.298  32.295  33.632  0.00  0.00    -0.299 OA
ATOM     15  C   UNL d   1     -47.307  32.318  34.509  0.00  0.00     0.119 A 
ATOM     16  C   UNL d   1     -47.847  32.967  33.480  0.00  0.00     0.304 A 
ATOM     17  O   UNL d   1     -47.231  32.980  34.026  0.00  0.00    -0.300 OA
ATOM     18  C   UNL d   1     -46.856  32.043  35.148  0.00  0.00     0.028 A 
ATOM     19  C   UNL d   1     -47.068  31.352  35.533  0.00  0.00     0.021 A 
ENDBRANCH   9  11
ENDBRANCH   7   8
ENDBRANCH   1   7
BRANCH   2  20
ATOM     20  C   UNL d   1     -50.139  26.764  34.409  0.00  0.00     0.163 A 
ATOM     21  N   UNL d   1     -50.011  25.981  34.209  0.00  0.00    -0.225 NA
ATOM     22  C   UNL d   1     -50.703  25.676  33.890  0.00  0.00     0.101 A 
ATOM     23  C   UNL d   1     -50.892  24.928  33.598  0.00  0.00     0.021 A 
ATOM     24  C   UNL d   1     -51.269  26.279  33.891  0.00  0.00     0.101 A 
ATOM     25  C   UNL d   1     -51.646  24.782  33.307  0.00  0.00     0.002 A 
ATOM     26  C   UNL d   1     -52.215  25.382  33.306  0.00  0.00     0.002 A 
ATOM     27  C   UNL d   1     -52.029  26.128  33.596  0.00  0.00     0.021 A 
ATOM     28  N   UNL d   1     -50.922  26.953  34.212  0.00  0.00    -0.225 NA
ENDBRANCH   2  20
TORSDOF 4
ENDMDL
