MODEL 1
REMARK VINA RESULT:      -7.0      0.000      0.000
REMARK  4 active torsions:
REMARK  status: ('A' for Active; 'I' for Inactive)
REMARK    1  A    between atoms: C_10  and  C_3 
REMARK    2  A    between atoms: S_8  and  C_4 
REMARK       I    between atoms: N_6  and  C_7 
REMARK    3  A    between atoms: C_7  and  C_9 
REMARK    4  A    between atoms: C_9  and  S_8 
ROOT
ATOM      1  O   UNL d   1     -47.858  13.194  22.184  0.00  0.00    -0.263 OA
ATOM      2  N   UNL d   1     -48.385  13.753  23.275  0.00  0.00    -0.120 NA
ATOM      3  C   UNL d   1     -48.561  13.452  22.534  0.00  0.00     0.205 A 
ATOM      4  C   UNL d   1     -47.245  13.339  22.713  0.00  0.00     0.236 A 
ATOM      5  N   UNL d   1     -47.566  13.684  23.388  0.00  0.00    -0.114 NA
ENDROOT
BRANCH   4   6
ATOM      6  S   UNL d   1     -46.440  13.167  22.589  0.00  0.00    -0.036 SA
BRANCH   6   7
ATOM      7  C   UNL d   1     -46.118  12.468  22.890  0.00  0.00     0.100 C 
BRANCH   7   8
ATOM      8  C   UNL d   1     -45.318  12.291  22.787  0.00  0.00     0.272 C 
ATOM      9  N   UNL d   1     -45.013  11.577  23.056  0.00  0.00    -0.272 N 
ATOM     10  C   UNL d   1     -45.503  11.027  23.432  0.00  0.00     0.083 A 
ATOM     11  C   UNL d   1     -44.205  11.412  22.946  0.00  0.00     0.083 A 
ATOM     12  C   UNL d   1     -45.184  10.311  23.698  0.00  0.00     0.019 A 
ATOM     13  C   UNL d   1     -44.389  10.148  23.590  0.00  0.00     0.003 A 
ATOM     14  C   UNL d   1     -43.899  10.689  23.218  0.00  0.00     0.019 A 
ATOM     15  O   UNL d   1     -44.829  12.842  22.411  0.00  0.00    -0.266 OA
ENDBRANCH   7   8
ENDBRANCH   6   7
ENDBRANCH   4   6
BRANCH   3  16
ATOM     16  C   UNL d   1     -49.292  13.398  22.170  0.00  0.00     0.043 A 
ATOM     17  C   UNL d   1     -49.742  14.080  22.058  0.00  0.00     0.004 A 
ATOM     18  C   UNL d   1     -50.479  14.033  21.693  0.00  0.00     0.000 A 
ATOM     19  C   UNL d   1     -50.759  13.293  21.441  0.00  0.00     0.000 A 
ATOM     20  C   UNL d   1     -50.310  12.610  21.553  0.00  0.00     0.000 A 
ATOM     21  C   UNL d   1     -49.576  12.675  21.920  0.00  0.00     0.004 A 
ENDBRANCH   3  16
TORSDOF 4
ENDMDL
MODEL 2
REMARK VINA RESULT:      -6.8      8.248      9.227
REMARK  4 active torsions:
REMARK  status: ('A' for Active; 'I' for Inactive)
REMARK    1  A    between atoms: C_10  and  C_3 
REMARK    2  A    between atoms: S_8  and  C_4 
REMARK       I    between atoms: N_6  and  C_7 
REMARK    3  A    between atoms: C_7  and  C_9 
REMARK    4  A    between atoms: C_9  and  S_8 
ROOT
ATOM      1  O   UNL d   1     -39.489  14.419  18.688  0.00  0.00    -0.263 OA
ATOM      2  N   UNL d   1     -40.500  13.805  18.071  0.00  0.00    -0.120 NA
ATOM      3  C   UNL d   1     -39.721  14.043  17.990  0.00  0.00     0.205 A 
ATOM      4  C   UNL d   1     -40.131  14.413  19.203  0.00  0.00     0.236 A 
ATOM      5  N   UNL d   1     -40.757  14.035  18.825  0.00  0.00    -0.114 NA
ENDROOT
BRANCH   4   6
ATOM      6  S   UNL d   1     -40.146  14.732  19.971  0.00  0.00    -0.036 SA
BRANCH   6   7
ATOM      7  C   UNL d   1     -39.750  14.347  20.585  0.00  0.00     0.100 C 
BRANCH   7   8
ATOM      8  C   UNL d   1     -39.662  14.704  21.324  0.00  0.00     0.272 C 
ATOM      9  N   UNL d   1     -39.216  14.341  21.910  0.00  0.00    -0.272 N 
ATOM     10  C   UNL d   1     -38.850  13.613  21.768  0.00  0.00     0.083 A 
ATOM     11  C   UNL d   1     -39.136  14.714  22.651  0.00  0.00     0.083 A 
ATOM     12  C   UNL d   1     -38.403  13.258  22.367  0.00  0.00     0.019 A 
ATOM     13  C   UNL d   1     -38.324  13.622  23.095  0.00  0.00     0.003 A 
ATOM     14  C   UNL d   1     -38.684  14.343  23.241  0.00  0.00     0.019 A 
ATOM     15  O   UNL d   1     -40.029  15.432  21.465  0.00  0.00    -0.266 OA
ENDBRANCH   7   8
ENDBRANCH   6   7
ENDBRANCH   4   6
BRANCH   3  16
ATOM     16  C   UNL d   1     -39.225  13.943  17.346  0.00  0.00     0.043 A 
ATOM     17  C   UNL d   1     -38.752  13.269  17.298  0.00  0.00     0.004 A 
ATOM     18  C   UNL d   1     -38.251  13.162  16.652  0.00  0.00     0.000 A 
ATOM     19  C   UNL d   1     -38.231  13.740  16.056  0.00  0.00     0.000 A 
ATOM     20  C   UNL d   1     -38.704  14.414  16.103  0.00  0.00     0.000 A 
ATOM     21  C   UNL d   1     -39.199  14.505  16.754  0.00  0.00     0.004 A 
ENDBRANCH   3  16
TORSDOF 4
ENDMDL
MODEL 3
REMARK VINA RESULT:      -6.7      1.419      5.189
REMARK  4 active torsions:
REMARK  status: ('A' for Active; 'I' for Inactive)
REMARK    1  A    between atoms: C_10  and  C_3 
REMARK    2  A    between atoms: S_8  and  C_4 
REMARK       I    between atoms: N_6  and  C_7 
REMARK    3  A    between atoms: C_7  and  C_9 
REMARK    4  A    between atoms: C_9  and  S_8 
ROOT
ATOM      1  O   UNL d   1     -46.749  12.798  22.396  0.00  0.00    -0.263 OA
ATOM      2  N   UNL d   1     -46.207  12.711  23.612  0.00  0.00    -0.120 NA
ATOM      3  C   UNL d   1     -46.037  12.744  22.811  0.00  0.00     0.205 A 
ATOM      4  C   UNL d   1     -47.362  12.799  22.946  0.00  0.00     0.236 A 
ATOM      5  N   UNL d   1     -47.031  12.745  23.697  0.00  0.00    -0.114 NA
ENDROOT
BRANCH   4   6
ATOM      6  S   UNL d   1     -48.175  12.846  22.773  0.00  0.00    -0.036 SA
BRANCH   6   7
ATOM      7  C   UNL d   1     -48.591  13.540  22.937  0.00  0.00     0.100 C 
BRANCH   7   8
ATOM      8  C   UNL d   1     -49.402  13.592  22.795  0.00  0.00     0.272 C 
ATOM      9  N   UNL d   1     -49.807  14.291  22.947  0.00  0.00    -0.272 N 
ATOM     10  C   UNL d   1     -49.407  14.951  23.243  0.00  0.00     0.083 A 
ATOM     11  C   UNL d   1     -50.625  14.328  22.799  0.00  0.00     0.083 A 
ATOM     12  C   UNL d   1     -49.825  15.649  23.392  0.00  0.00     0.019 A 
ATOM     13  C   UNL d   1     -50.630  15.687  23.247  0.00  0.00     0.003 A 
ATOM     14  C   UNL d   1     -51.031  15.037  22.953  0.00  0.00     0.019 A 
ATOM     15  O   UNL d   1     -49.803  12.931  22.498  0.00  0.00    -0.266 OA
ENDBRANCH   7   8
ENDBRANCH   6   7
ENDBRANCH   4   6
BRANCH   3  16
ATOM     16  C   UNL d   1     -45.304  12.728  22.448  0.00  0.00     0.043 A 
ATOM     17  C   UNL d   1     -44.769  12.130  22.637  0.00  0.00     0.004 A 
ATOM     18  C   UNL d   1     -44.029  12.108  22.275  0.00  0.00     0.000 A 
ATOM     19  C   UNL d   1     -43.833  12.694  21.721  0.00  0.00     0.000 A 
ATOM     20  C   UNL d   1     -44.367  13.293  21.531  0.00  0.00     0.000 A 
ATOM     21  C   UNL d   1     -45.101  13.300  21.902  0.00  0.00     0.004 A 
ENDBRANCH   3  16
TORSDOF 4
ENDMDL
MODEL 4
REMARK VINA RESULT:      -5.2      3.476      4.690
REMARK  4 active torsions:
REMARK  status: ('A' for Active; 'I' for Inactive)
REMARK    1  A    between atoms: C_10  and  C_3 
REMARK    2  A    between atoms: S_8  and  C_4 
REMARK       I    between atoms: N_6  and  C_7 
REMARK    3  A    between atoms: C_7  and  C_9 
REMARK    4  A    between atoms: C_9  and  S_8 
ROOT
ATOM      1  O   UNL d   1     -44.413  13.302  21.575  0.00  0.00    -0.263 OA
ATOM      2  N   UNL d   1     -44.523  12.339  22.491  0.00  0.00    -0.120 NA
ATOM      3  C   UNL d   1     -44.908  12.976  22.149  0.00  0.00     0.205 A 
ATOM      4  C   UNL d   1     -43.717  12.863  21.563  0.00  0.00     0.236 A 
ATOM      5  N   UNL d   1     -43.782  12.268  22.127  0.00  0.00    -0.114 NA
ENDROOT
BRANCH   4   6
ATOM      6  S   UNL d   1     -43.062  12.997  21.066  0.00  0.00    -0.036 SA
BRANCH   6   7
ATOM      7  C   UNL d   1     -42.588  13.664  21.182  0.00  0.00     0.100 C 
BRANCH   7   8
ATOM      8  C   UNL d   1     -41.857  13.734  20.805  0.00  0.00     0.272 C 
ATOM      9  N   UNL d   1     -41.480  14.463  20.764  0.00  0.00    -0.272 N 
ATOM     10  C   UNL d   1     -41.828  15.135  21.098  0.00  0.00     0.083 A 
ATOM     11  C   UNL d   1     -40.743  14.520  20.381  0.00  0.00     0.083 A 
ATOM     12  C   UNL d   1     -41.439  15.863  21.050  0.00  0.00     0.019 A 
ATOM     13  C   UNL d   1     -40.714  15.920  20.674  0.00  0.00     0.003 A 
ATOM     14  C   UNL d   1     -40.365  15.258  20.341  0.00  0.00     0.019 A 
ATOM     15  O   UNL d   1     -41.509  13.063  20.471  0.00  0.00    -0.266 OA
ENDBRANCH   7   8
ENDBRANCH   6   7
ENDBRANCH   4   6
BRANCH   3  16
ATOM     16  C   UNL d   1     -45.654  13.267  22.321  0.00  0.00     0.043 A 
ATOM     17  C   UNL d   1     -45.728  13.972  22.744  0.00  0.00     0.004 A 
ATOM     18  C   UNL d   1     -46.476  14.271  22.920  0.00  0.00     0.000 A 
ATOM     19  C   UNL d   1     -47.147  13.855  22.666  0.00  0.00     0.000 A 
ATOM     20  C   UNL d   1     -47.074  13.150  22.243  0.00  0.00     0.000 A 
ATOM     21  C   UNL d   1     -46.321  12.865  22.076  0.00  0.00     0.004 A 
ENDBRANCH   3  16
TORSDOF 4
ENDMDL
MODEL 5
REMARK VINA RESULT:      -4.3      1.657      2.231
REMARK  4 active torsions:
REMARK  status: ('A' for Active; 'I' for Inactive)
REMARK    1  A    between atoms: C_10  and  C_3 
REMARK    2  A    between atoms: S_8  and  C_4 
REMARK       I    between atoms: N_6  and  C_7 
REMARK    3  A    between atoms: C_7  and  C_9 
REMARK    4  A    between atoms: C_9  and  S_8 
ROOT
ATOM      1  O   UNL d   1     -47.263  13.530  22.487  0.00  0.00    -0.263 OA
ATOM      2  N   UNL d   1     -46.965  14.706  23.041  0.00  0.00    -0.120 NA
ATOM      3  C   UNL d   1     -47.579  14.243  22.758  0.00  0.00     0.205 A 
ATOM      4  C   UNL d   1     -46.449  13.553  22.605  0.00  0.00     0.236 A 
ATOM      5  N   UNL d   1     -46.262  14.278  22.947  0.00  0.00    -0.114 NA
ENDROOT
BRANCH   4   6
ATOM      6  S   UNL d   1     -45.909  12.950  22.413  0.00  0.00    -0.036 SA
BRANCH   6   7
ATOM      7  C   UNL d   1     -45.176  13.143  22.085  0.00  0.00     0.100 C 
BRANCH   7   8
ATOM      8  C   UNL d   1     -44.549  12.607  22.102  0.00  0.00     0.272 C 
ATOM      9  N   UNL d   1     -43.821  12.809  21.779  0.00  0.00    -0.272 N 
ATOM     10  C   UNL d   1     -43.707  13.552  21.434  0.00  0.00     0.083 A 
ATOM     11  C   UNL d   1     -43.197  12.258  21.804  0.00  0.00     0.083 A 
ATOM     12  C   UNL d   1     -42.969  13.744  21.112  0.00  0.00     0.019 A 
ATOM     13  C   UNL d   1     -42.355  13.204  21.136  0.00  0.00     0.003 A 
ATOM     14  C   UNL d   1     -42.462  12.466  21.477  0.00  0.00     0.019 A 
ATOM     15  O   UNL d   1     -44.663  11.864  22.447  0.00  0.00    -0.266 OA
ENDBRANCH   7   8
ENDBRANCH   6   7
ENDBRANCH   4   6
BRANCH   3  16
ATOM     16  C   UNL d   1     -48.377  14.423  22.730  0.00  0.00     0.043 A 
ATOM     17  C   UNL d   1     -48.615  15.201  22.596  0.00  0.00     0.004 A 
ATOM     18  C   UNL d   1     -49.417  15.388  22.567  0.00  0.00     0.000 A 
ATOM     19  C   UNL d   1     -49.977  14.785  22.675  0.00  0.00     0.000 A 
ATOM     20  C   UNL d   1     -49.740  14.006  22.809  0.00  0.00     0.000 A 
ATOM     21  C   UNL d   1     -48.936  13.836  22.835  0.00  0.00     0.004 A 
ENDBRANCH   3  16
TORSDOF 4
ENDMDL
MODEL 6
REMARK VINA RESULT:      -4.1      1.864      5.117
REMARK  4 active torsions:
REMARK  status: ('A' for Active; 'I' for Inactive)
REMARK    1  A    between atoms: C_10  and  C_3 
REMARK    2  A    between atoms: S_8  and  C_4 
REMARK       I    between atoms: N_6  and  C_7 
REMARK    3  A    between atoms: C_7  and  C_9 
REMARK    4  A    between atoms: C_9  and  S_8 
ROOT
ATOM      1  O   UNL d   1     -48.293  11.969  23.146  0.00  0.00    -0.263 OA
ATOM      2  N   UNL d   1     -47.801  10.851  23.683  0.00  0.00    -0.120 NA
ATOM      3  C   UNL d   1     -47.598  11.568  23.344  0.00  0.00     0.205 A 
ATOM      4  C   UNL d   1     -48.928  11.494  23.365  0.00  0.00     0.236 A 
ATOM      5  N   UNL d   1     -48.628  10.804  23.696  0.00  0.00    -0.114 NA
ENDROOT
BRANCH   4   6
ATOM      6  S   UNL d   1     -49.734  11.679  23.268  0.00  0.00    -0.036 SA
BRANCH   6   7
ATOM      7  C   UNL d   1     -49.973  12.159  22.640  0.00  0.00     0.100 C 
BRANCH   7   8
ATOM      8  C   UNL d   1     -50.477  12.801  22.764  0.00  0.00     0.272 C 
ATOM      9  N   UNL d   1     -50.514  13.412  22.216  0.00  0.00    -0.272 N 
ATOM     10  C   UNL d   1     -50.048  13.392  21.533  0.00  0.00     0.083 A 
ATOM     11  C   UNL d   1     -51.027  14.053  22.355  0.00  0.00     0.083 A 
ATOM     12  C   UNL d   1     -50.095  14.013  20.989  0.00  0.00     0.019 A 
ATOM     13  C   UNL d   1     -50.598  14.644  21.124  0.00  0.00     0.003 A 
ATOM     14  C   UNL d   1     -51.062  14.669  21.799  0.00  0.00     0.019 A 
ATOM     15  O   UNL d   1     -50.943  12.821  23.448  0.00  0.00    -0.266 OA
ENDBRANCH   7   8
ENDBRANCH   6   7
ENDBRANCH   4   6
BRANCH   3  16
ATOM     16  C   UNL d   1     -46.849  11.871  23.209  0.00  0.00     0.043 A 
ATOM     17  C   UNL d   1     -46.214  11.354  23.109  0.00  0.00     0.004 A 
ATOM     18  C   UNL d   1     -45.457  11.652  22.973  0.00  0.00     0.000 A 
ATOM     19  C   UNL d   1     -45.347  12.473  22.938  0.00  0.00     0.000 A 
ATOM     20  C   UNL d   1     -45.982  12.991  23.037  0.00  0.00     0.000 A 
ATOM     21  C   UNL d   1     -46.730  12.678  23.172  0.00  0.00     0.004 A 
ENDBRANCH   3  16
TORSDOF 4
ENDMDL
