MODEL 1
REMARK VINA RESULT:       1.2      0.000      0.000
REMARK  7 active torsions:
REMARK  status: ('A' for Active; 'I' for Inactive)
REMARK    1  A    between atoms: C_3  and  C_1 
REMARK    2  A    between atoms: C_9  and  N_2 
REMARK    3  A    between atoms: C_6  and  C_3 
REMARK    4  A    between atoms: C_8  and  C_3 
REMARK       I    between atoms: N_11  and  C_6 
REMARK    5  A    between atoms: C_26  and  C_7 
REMARK    6  A    between atoms: C_21  and  N_11 
REMARK    7  A    between atoms: C_12  and  C_21 
ROOT
ATOM      1  C   UNL d   1     -42.421-122.631 -50.570  0.00  0.00     0.103 A 
ATOM      2  N   UNL d   1     -42.366-122.720 -49.755  0.00  0.00    -0.269 N 
ATOM      3  S   UNL d   1     -43.179-122.355 -50.746  0.00  0.00    -0.064 SA
ATOM      4  C   UNL d   1     -43.088-122.500 -49.419  0.00  0.00     0.271 A 
ATOM      5  C   UNL d   1     -43.588-122.275 -50.036  0.00  0.00     0.087 A 
ATOM      6  O   UNL d   1     -43.271-122.506 -48.618  0.00  0.00    -0.266 OA
ENDROOT
BRANCH   1   7
ATOM      7  C   UNL d   1     -41.824-122.789 -51.121  0.00  0.00     0.101 C 
BRANCH   7   8
ATOM      8  C   UNL d   1     -41.606-122.214 -51.673  0.00  0.00     0.283 C 
ATOM      9  N   UNL d   1     -41.823-122.294 -52.458  0.00  0.00    -0.204 NA
ATOM     10  O   UNL d   1     -41.168-121.556 -51.428  0.00  0.00    -0.265 OA
BRANCH   9  11
ATOM     11  C   UNL d   1     -41.606-121.720 -53.010  0.00  0.00     0.127 C 
BRANCH  11  12
ATOM     12  C   UNL d   1     -41.798-121.807 -53.805  0.00  0.00     0.119 A 
ATOM     13  O   UNL d   1     -42.551-121.790 -54.135  0.00  0.00    -0.304 OA
ATOM     14  C   UNL d   1     -42.480-121.900 -54.949  0.00  0.00     0.123 A 
ATOM     15  C   UNL d   1     -41.681-121.984 -55.123  0.00  0.00     0.029 A 
ATOM     16  C   UNL d   1     -41.258-121.927 -54.421  0.00  0.00     0.028 A 
ENDBRANCH  11  12
ENDBRANCH   9  11
ENDBRANCH   7   8
BRANCH   7  17
ATOM     17  C   UNL d   1     -41.444-123.527 -51.119  0.00  0.00     0.129 C 
ATOM     18  N   UNL d   1     -41.123-123.816 -51.818  0.00  0.00    -0.146 N 
ENDBRANCH   7  17
ENDBRANCH   1   7
BRANCH   2  19
ATOM     19  C   UNL d   1     -42.058-122.891 -49.008  0.00  0.00     0.067 A 
ATOM     20  C   UNL d   1     -42.182-123.624 -48.671  0.00  0.00     0.018 A 
ATOM     21  C   UNL d   1     -41.877-123.793 -47.930  0.00  0.00     0.008 A 
ATOM     22  C   UNL d   1     -41.442-123.218 -47.522  0.00  0.00     0.035 A 
ATOM     23  C   UNL d   1     -41.319-122.479 -47.865  0.00  0.00     0.008 A 
ATOM     24 BR   UNL d   1     -41.132-123.381 -46.779  0.00  0.00    -0.049 Br
ATOM     25  C   UNL d   1     -41.626-122.314 -48.607  0.00  0.00     0.018 A 
ENDBRANCH   2  19
BRANCH   5  26
ATOM     26  C   UNL d   1     -44.367-122.014 -49.948  0.00  0.00     0.011 C 
ATOM     27  C   UNL d   1     -44.832-121.882 -50.618  0.00  0.00     0.001 C 
ENDBRANCH   5  26
TORSDOF 7
ENDMDL
