MODEL 1
REMARK VINA RESULT:      52.1      0.000      0.000
REMARK  5 active torsions:
REMARK  status: ('A' for Active; 'I' for Inactive)
REMARK    1  A    between atoms: N_7  and  S_1 
REMARK    2  A    between atoms: C_10  and  S_1 
REMARK    3  A    between atoms: C_2  and  N_4 
REMARK       I    between atoms: N_4  and  C_8 
REMARK    4  A    between atoms: C_8  and  C_13 
REMARK    5  A    between atoms: O_23  and  C_14 
ROOT
ATOM      1  C   UNL d   1     -55.283-102.131 -38.887  0.00  0.00     0.104 A 
ATOM      2  C   UNL d   1     -55.104-101.971 -40.505  0.00  0.00     0.058 A 
ATOM      3  C   UNL d   1     -55.220-101.398 -39.204  0.00  0.00     0.013 A 
ATOM      4  C   UNL d   1     -55.260-102.820 -39.369  0.00  0.00     0.013 A 
ATOM      5  C   UNL d   1     -55.129-101.304 -40.018  0.00  0.00     0.005 A 
ATOM      6  C   UNL d   1     -55.169-102.730 -40.183  0.00  0.00     0.005 A 
ENDROOT
BRANCH   2   7
ATOM      7  C   UNL d   1     -55.013-101.877 -41.320  0.00  0.00     0.281 C 
ATOM      8  N   UNL d   1     -55.152-101.136 -41.666  0.00  0.00    -0.183 NA
ATOM      9  O   UNL d   1     -54.784-102.518 -41.789  0.00  0.00    -0.265 OA
BRANCH   8  10
ATOM     10  C   UNL d   1     -55.056-101.056 -42.490  0.00  0.00     0.197 A 
ATOM     11  N   UNL d   1     -55.005-101.663 -43.017  0.00  0.00    -0.219 NA
ATOM     12  C   UNL d   1     -54.913-101.350 -43.781  0.00  0.00     0.112 A 
ATOM     13  C   UNL d   1     -54.836-101.699 -44.499  0.00  0.00     0.112 A 
ATOM     14  C   UNL d   1     -54.911-100.550 -43.690  0.00  0.00     0.052 A 
ATOM     15  C   UNL d   1     -54.751-101.222 -45.169  0.00  0.00     0.026 A 
ATOM     16  C   UNL d   1     -54.749-100.423 -45.084  0.00  0.00     0.003 A 
ATOM     17  C   UNL d   1     -54.827-100.072 -44.360  0.00  0.00     0.008 A 
ATOM     18  S   UNL d   1     -54.999-100.354 -42.898  0.00  0.00    -0.047 SA
BRANCH  13  19
ATOM     19  O   UNL d   1     -54.840-102.516 -44.570  0.00  0.00    -0.327 OA
ATOM     20  C   UNL d   1     -55.190-102.868 -45.203  0.00  0.00     0.181 C 
ENDBRANCH  13  19
ENDBRANCH   8  10
ENDBRANCH   2   7
BRANCH   1  21
ATOM     21  S   UNL d   1     -55.374-102.199 -38.065  0.00  0.00     0.272 S 
ATOM     22  O   UNL d   1     -54.755-101.652 -37.953  0.00  0.00    -0.200 OA
ATOM     23  O   UNL d   1     -55.990-102.745 -38.178  0.00  0.00    -0.200 OA
BRANCH  21  24
ATOM     24  N   UNL d   1     -55.464-102.267 -37.238  0.00  0.00    -0.225 N 
ATOM     25  C   UNL d   1     -56.149-102.632 -36.919  0.00  0.00     0.118 A 
ATOM     26  C   UNL d   1     -56.229-102.693 -36.110  0.00  0.00     0.142 A 
ATOM     27  O   UNL d   1     -55.637-102.398 -35.611  0.00  0.00    -0.300 OA
ATOM     28  C   UNL d   1     -54.964-102.040 -35.910  0.00  0.00     0.142 A 
ATOM     29  C   UNL d   1     -54.885-101.979 -36.718  0.00  0.00     0.118 A 
ENDBRANCH  21  24
ENDBRANCH   1  21
TORSDOF 5
ENDMDL
