MODEL 1
REMARK VINA RESULT:     -10.9      0.000      0.000
REMARK  5 active torsions:
REMARK  status: ('A' for Active; 'I' for Inactive)
REMARK    1  A    between atoms: C_7  and  N_1 
REMARK    2  A    between atoms: C_10  and  C_2 
REMARK    3  A    between atoms: C_11  and  C_5 
REMARK    4  A    between atoms: C_9  and  C_7 
REMARK    5  A    between atoms: O_16  and  C_9 
ROOT
ATOM      1  N   UNL d   1      52.934  33.666  53.490  0.00  0.00    -0.286 N 
ATOM      2  C   UNL d   1      52.234  33.522  53.077  0.00  0.00     0.148 A 
ATOM      3  N   UNL d   1      52.030  32.749  52.885  0.00  0.00    -0.228 NA
ATOM      4  C   UNL d   1      53.210  32.278  53.509  0.00  0.00     0.035 A 
ATOM      5  C   UNL d   1      53.417  33.036  53.701  0.00  0.00     0.067 A 
ATOM      6  C   UNL d   1      52.510  32.133  53.096  0.00  0.00     0.084 A 
ATOM      7  C   UNL d   1      53.691  31.656  53.720  0.00  0.00     0.014 A 
ATOM      8  C   UNL d   1      52.304  31.369  52.904  0.00  0.00     0.020 A 
ATOM      9  C   UNL d   1      53.487  30.884  53.528  0.00  0.00     0.058 A 
ATOM     10  C   UNL d   1      52.787  30.739  53.115  0.00  0.00     0.013 A 
ATOM     11 CL   UNL d   1      53.980  30.246  53.745  0.00  0.00    -0.082 Cl
ENDROOT
BRANCH   2  12
ATOM     12  C   UNL d   1      51.513  33.821  52.697  0.00  0.00     0.035 A 
ATOM     13  C   UNL d   1      50.748  33.793  53.118  0.00  0.00     0.003 A 
ATOM     14  C   UNL d   1      50.030  34.094  52.732  0.00  0.00     0.000 A 
ATOM     15  C   UNL d   1      50.078  34.425  51.919  0.00  0.00     0.000 A 
ATOM     16  C   UNL d   1      50.847  34.449  51.507  0.00  0.00     0.000 A 
ATOM     17  C   UNL d   1      51.559  34.149  51.891  0.00  0.00     0.003 A 
ENDBRANCH   2  12
BRANCH   1  18
ATOM     18  C   UNL d   1      53.138  34.439  53.682  0.00  0.00     0.150 C 
BRANCH  18  19
ATOM     19  C   UNL d   1      52.692  34.869  54.217  0.00  0.00     0.314 C 
ATOM     20  O   UNL d   1      52.298  34.479  54.827  0.00  0.00    -0.257 OA
BRANCH  19  21
ATOM     21  O   UNL d   1      52.636  35.678  54.150  0.00  0.00    -0.295 OA
ATOM     22  C   UNL d   1      52.715  36.150  54.819  0.00  0.00     0.185 C 
ENDBRANCH  19  21
ENDBRANCH  18  19
ENDBRANCH   1  18
BRANCH   5  23
ATOM     23  C   UNL d   1      54.117  33.181  54.114  0.00  0.00     0.016 A 
ATOM     24  C   UNL d   1      54.132  33.120  54.921  0.00  0.00     0.001 A 
ATOM     25  C   UNL d   1      54.832  33.265  55.333  0.00  0.00     0.000 A 
ATOM     26  C   UNL d   1      55.505  33.468  54.931  0.00  0.00     0.000 A 
ATOM     27  C   UNL d   1      55.503  33.534  54.099  0.00  0.00     0.000 A 
ATOM     28  C   UNL d   1      54.797  33.387  53.699  0.00  0.00     0.001 A 
ENDBRANCH   5  23
TORSDOF 5
ENDMDL
