MODEL 1
REMARK VINA RESULT:      -2.3      0.000      0.000
REMARK  9 active torsions:
REMARK  status: ('A' for Active; 'I' for Inactive)
REMARK    1  A    between atoms: N_2  and  C_1 
REMARK    2  A    between atoms: N_3  and  C_5 
REMARK    3  A    between atoms: N_16  and  C_6 
REMARK    4  A    between atoms: C_11  and  C_18 
REMARK    5  A    between atoms: O_14  and  C_11 
REMARK    6  A    between atoms: C_17  and  O_14 
REMARK    7  A    between atoms: C_19  and  N_16 
REMARK    8  A    between atoms: C_18  and  C_20 
REMARK    9  A    between atoms: C_20  and  C_19 
ROOT
ATOM      1  C   UNL d   1      32.826  22.401 -21.107  0.00  0.00     0.146 A 
ATOM      2  C   UNL d   1      32.817  22.820 -20.396  0.00  0.00     0.049 A 
ATOM      3  C   UNL d   1      33.016  22.461 -19.701  0.00  0.00     0.128 A 
ATOM      4  C   UNL d   1      33.034  21.620 -21.124  0.00  0.00     0.103 A 
ATOM      5  C   UNL d   1      33.237  21.643 -19.696  0.00  0.00     0.025 A 
ATOM      6  C   UNL d   1      33.239  21.241 -20.417  0.00  0.00     0.022 A 
ENDROOT
BRANCH   4   7
ATOM      7  N   UNL d   1      33.043  21.193 -21.847  0.00  0.00    -0.242 NA
BRANCH   7   8
ATOM      8  C   UNL d   1      32.935  20.392 -21.857  0.00  0.00     0.099 C 
BRANCH   8   9
ATOM      9  C   UNL d   1      33.156  19.946 -22.509  0.00  0.00     0.026 C 
BRANCH   9  10
ATOM     10  C   UNL d   1      32.787  19.221 -22.659  0.00  0.00     0.070 C 
BRANCH  10  11
ATOM     11  C   UNL d   1      33.052  18.742 -23.276  0.00  0.00     0.300 C 
ATOM     12  O   UNL d   1      33.137  19.060 -24.031  0.00  0.00    -0.259 OA
BRANCH  11  13
ATOM     13  O   UNL d   1      33.229  17.950 -23.129  0.00  0.00    -0.273 OA
BRANCH  13  14
ATOM     14  C   UNL d   1      32.833  17.342 -23.529  0.00  0.00     0.103 C 
ATOM     15  C   UNL d   1      33.230  16.949 -24.137  0.00  0.00     0.027 C 
ATOM     16  C   UNL d   1      32.060  17.128 -23.329  0.00  0.00     0.027 C 
ENDBRANCH  13  14
ENDBRANCH  11  13
ENDBRANCH  10  11
ENDBRANCH   9  10
ENDBRANCH   8   9
ENDBRANCH   7   8
ENDBRANCH   4   7
BRANCH   1  17
ATOM     17  N   UNL d   1      32.614  22.790 -21.838  0.00  0.00    -0.112 N 
ATOM     18  O   UNL d   1      33.198  23.197 -22.283  0.00  0.00    -0.532 OA
ATOM     19  O   UNL d   1      31.832  22.765 -22.105  0.00  0.00    -0.532 OA
ENDBRANCH   1  17
BRANCH   3  20
ATOM     20  N   UNL d   1      33.002  22.893 -19.003  0.00  0.00    -0.114 N 
ATOM     21  O   UNL d   1      33.140  22.519 -18.289  0.00  0.00    -0.532 OA
ATOM     22  O   UNL d   1      32.846  23.702 -19.042  0.00  0.00    -0.532 OA
ENDBRANCH   3  20
TORSDOF 9
ENDMDL
MODEL 2
REMARK VINA RESULT:      -2.0      2.834      6.220
REMARK  9 active torsions:
REMARK  status: ('A' for Active; 'I' for Inactive)
REMARK    1  A    between atoms: N_2  and  C_1 
REMARK    2  A    between atoms: N_3  and  C_5 
REMARK    3  A    between atoms: N_16  and  C_6 
REMARK    4  A    between atoms: C_11  and  C_18 
REMARK    5  A    between atoms: O_14  and  C_11 
REMARK    6  A    between atoms: C_17  and  O_14 
REMARK    7  A    between atoms: C_19  and  N_16 
REMARK    8  A    between atoms: C_18  and  C_20 
REMARK    9  A    between atoms: C_20  and  C_19 
ROOT
ATOM      1  C   UNL d   1      31.545  16.519 -23.834  0.00  0.00     0.146 A 
ATOM      2  C   UNL d   1      30.861  16.178 -24.145  0.00  0.00     0.049 A 
ATOM      3  C   UNL d   1      30.304  16.632 -24.517  0.00  0.00     0.128 A 
ATOM      4  C   UNL d   1      31.675  17.314 -23.892  0.00  0.00     0.103 A 
ATOM      5  C   UNL d   1      30.421  17.468 -24.589  0.00  0.00     0.025 A 
ATOM      6  C   UNL d   1      31.112  17.789 -24.270  0.00  0.00     0.022 A 
ENDROOT
BRANCH   4   7
ATOM      7  N   UNL d   1      32.371  17.660 -23.575  0.00  0.00    -0.242 NA
BRANCH   7   8
ATOM      8  C   UNL d   1      32.435  18.462 -23.494  0.00  0.00     0.099 C 
BRANCH   8   9
ATOM      9  C   UNL d   1      32.869  18.790 -22.879  0.00  0.00     0.026 C 
BRANCH   9  10
ATOM     10  C   UNL d   1      32.932  19.611 -22.809  0.00  0.00     0.070 C 
BRANCH  10  11
ATOM     11  C   UNL d   1      32.876  19.968 -22.067  0.00  0.00     0.300 C 
ATOM     12  O   UNL d   1      33.228  19.608 -21.415  0.00  0.00    -0.259 OA
BRANCH  11  13
ATOM     13  O   UNL d   1      32.468  20.680 -21.987  0.00  0.00    -0.273 OA
BRANCH  13  14
ATOM     14  C   UNL d   1      32.804  21.323 -21.589  0.00  0.00     0.103 C 
ATOM     15  C   UNL d   1      33.241  21.870 -22.027  0.00  0.00     0.027 C 
ATOM     16  C   UNL d   1      32.710  21.422 -20.774  0.00  0.00     0.027 C 
ENDBRANCH  13  14
ENDBRANCH  11  13
ENDBRANCH  10  11
ENDBRANCH   9  10
ENDBRANCH   8   9
ENDBRANCH   7   8
ENDBRANCH   4   7
BRANCH   1  17
ATOM     17  N   UNL d   1      32.127  16.030 -23.443  0.00  0.00    -0.112 N 
ATOM     18  O   UNL d   1      32.045  15.847 -22.627  0.00  0.00    -0.532 OA
ATOM     19  O   UNL d   1      32.772  15.738 -23.870  0.00  0.00    -0.532 OA
ENDBRANCH   1  17
BRANCH   3  20
ATOM     20  N   UNL d   1      29.629  16.278 -24.821  0.00  0.00    -0.114 N 
ATOM     21  O   UNL d   1      28.926  16.693 -24.846  0.00  0.00    -0.532 OA
ATOM     22  O   UNL d   1      29.681  15.501 -25.097  0.00  0.00    -0.532 OA
ENDBRANCH   3  20
TORSDOF 9
ENDMDL
MODEL 3
REMARK VINA RESULT:      -1.5      1.393      2.268
REMARK  9 active torsions:
REMARK  status: ('A' for Active; 'I' for Inactive)
REMARK    1  A    between atoms: N_2  and  C_1 
REMARK    2  A    between atoms: N_3  and  C_5 
REMARK    3  A    between atoms: N_16  and  C_6 
REMARK    4  A    between atoms: C_11  and  C_18 
REMARK    5  A    between atoms: O_14  and  C_11 
REMARK    6  A    between atoms: C_17  and  O_14 
REMARK    7  A    between atoms: C_19  and  N_16 
REMARK    8  A    between atoms: C_18  and  C_20 
REMARK    9  A    between atoms: C_20  and  C_19 
ROOT
ATOM      1  C   UNL d   1      32.804  21.268 -21.432  0.00  0.00     0.146 A 
ATOM      2  C   UNL d   1      32.801  22.090 -21.501  0.00  0.00     0.049 A 
ATOM      3  C   UNL d   1      33.013  22.448 -22.194  0.00  0.00     0.128 A 
ATOM      4  C   UNL d   1      33.018  20.801 -22.055  0.00  0.00     0.103 A 
ATOM      5  C   UNL d   1      33.240  21.977 -22.861  0.00  0.00     0.025 A 
ATOM      6  C   UNL d   1      33.236  21.157 -22.770  0.00  0.00     0.022 A 
ENDROOT
BRANCH   4   7
ATOM      7  N   UNL d   1      33.021  19.964 -21.985  0.00  0.00    -0.242 NA
BRANCH   7   8
ATOM      8  C   UNL d   1      33.240  19.497 -22.607  0.00  0.00     0.099 C 
BRANCH   8   9
ATOM      9  C   UNL d   1      32.882  18.768 -22.732  0.00  0.00     0.026 C 
BRANCH   9  10
ATOM     10  C   UNL d   1      33.232  18.216 -23.238  0.00  0.00     0.070 C 
BRANCH  10  11
ATOM     11  C   UNL d   1      32.852  17.502 -23.398  0.00  0.00     0.300 C 
ATOM     12  O   UNL d   1      32.966  16.859 -22.896  0.00  0.00    -0.259 OA
BRANCH  11  13
ATOM     13  O   UNL d   1      32.362  17.440 -24.058  0.00  0.00    -0.273 OA
BRANCH  13  14
ATOM     14  C   UNL d   1      31.971  16.732 -24.236  0.00  0.00     0.103 C 
ATOM     15  C   UNL d   1      32.108  16.384 -24.972  0.00  0.00     0.027 C 
ATOM     16  C   UNL d   1      31.456  16.377 -23.696  0.00  0.00     0.027 C 
ENDBRANCH  13  14
ENDBRANCH  11  13
ENDBRANCH  10  11
ENDBRANCH   9  10
ENDBRANCH   8   9
ENDBRANCH   7   8
ENDBRANCH   4   7
BRANCH   1  17
ATOM     17  N   UNL d   1      32.579  20.899 -20.695  0.00  0.00    -0.112 N 
ATOM     18  O   UNL d   1      31.768  20.767 -20.520  0.00  0.00    -0.532 OA
ATOM     19  O   UNL d   1      33.162  20.672 -20.154  0.00  0.00    -0.532 OA
ENDBRANCH   1  17
BRANCH   3  20
ATOM     20  N   UNL d   1      33.004  23.267 -22.246  0.00  0.00    -0.114 N 
ATOM     21  O   UNL d   1      33.240  23.635 -22.937  0.00  0.00    -0.532 OA
ATOM     22  O   UNL d   1      32.755  23.702 -21.590  0.00  0.00    -0.532 OA
ENDBRANCH   3  20
TORSDOF 9
ENDMDL
