MODEL 1
REMARK VINA RESULT:      -8.9      0.000      0.000
REMARK  3 active torsions:
REMARK  status: ('A' for Active; 'I' for Inactive)
REMARK    1  A    between atoms: N_3  and  S_1 
REMARK    2  A    between atoms: C_10  and  S_1 
REMARK    3  A    between atoms: C_2  and  N_3 
ROOT
ATOM      1  N   UNL d   1      53.134  33.474  53.367  0.00  0.00     0.034 NA
ENDROOT
BRANCH   1   2
ATOM      2  C   UNL d   1      52.390  33.687  53.083  0.00  0.00     0.760 A 
ATOM      3  N   UNL d   1      51.717  33.861  53.528  0.00  0.00    -0.057 NA
ATOM      4  C   UNL d   1      51.109  34.043  53.033  0.00  0.00     0.118 A 
ATOM      5  C   UNL d   1      50.325  34.256  53.174  0.00  0.00     0.021 A 
ATOM      6  C   UNL d   1      51.390  33.988  52.259  0.00  0.00     0.118 A 
ATOM      7  C   UNL d   1      49.845  34.407  52.549  0.00  0.00     0.002 A 
ATOM      8  C   UNL d   1      50.125  34.352  51.775  0.00  0.00     0.002 A 
ATOM      9  C   UNL d   1      50.886  34.146  51.626  0.00  0.00     0.021 A 
ATOM     10  N   UNL d   1      52.166  33.773  52.288  0.00  0.00    -0.057 NA
ENDBRANCH   1   2
BRANCH   1  11
ATOM     11  S   UNL d   1      53.288  32.688  53.570  0.00  0.00     0.300 S 
ATOM     12  O   UNL d   1      53.441  31.899  53.772  0.00  0.00    -0.198 OA
ATOM     13  O   UNL d   1      52.678  32.441  53.073  0.00  0.00    -0.198 OA
BRANCH  11  14
ATOM     14  C   UNL d   1      53.898  32.937  54.068  0.00  0.00     0.106 A 
ATOM     15  C   UNL d   1      53.791  32.930  54.885  0.00  0.00     0.013 A 
ATOM     16  C   UNL d   1      54.402  33.179  55.385  0.00  0.00     0.001 A 
ATOM     17  C   UNL d   1      55.118  33.434  55.064  0.00  0.00     0.000 A 
ATOM     18  C   UNL d   1      55.198  33.431  54.255  0.00  0.00     0.001 A 
ATOM     19  C   UNL d   1      54.614  33.192  53.747  0.00  0.00     0.013 A 
ENDBRANCH  11  14
ENDBRANCH   1  11
TORSDOF 3
ENDMDL
MODEL 2
REMARK VINA RESULT:      -8.7      2.189      3.325
REMARK  3 active torsions:
REMARK  status: ('A' for Active; 'I' for Inactive)
REMARK    1  A    between atoms: N_3  and  S_1 
REMARK    2  A    between atoms: C_10  and  S_1 
REMARK    3  A    between atoms: C_2  and  N_3 
ROOT
ATOM      1  N   UNL d   1      53.236  32.869  53.586  0.00  0.00     0.034 NA
ENDROOT
BRANCH   1   2
ATOM      2  C   UNL d   1      53.190  32.047  53.539  0.00  0.00     0.760 A 
ATOM      3  N   UNL d   1      53.421  31.501  54.114  0.00  0.00    -0.057 NA
ATOM      4  C   UNL d   1      53.282  30.756  53.844  0.00  0.00     0.118 A 
ATOM      5  C   UNL d   1      53.405  30.013  54.182  0.00  0.00     0.021 A 
ATOM      6  C   UNL d   1      52.958  30.817  53.088  0.00  0.00     0.118 A 
ATOM      7  C   UNL d   1      53.204  29.358  53.764  0.00  0.00     0.002 A 
ATOM      8  C   UNL d   1      52.880  29.420  53.008  0.00  0.00     0.002 A 
ATOM      9  C   UNL d   1      52.756  30.136  52.670  0.00  0.00     0.021 A 
ATOM     10  N   UNL d   1      52.902  31.599  52.903  0.00  0.00    -0.057 NA
ENDBRANCH   1   2
BRANCH   1  11
ATOM     11  S   UNL d   1      53.968  33.237  53.684  0.00  0.00     0.300 S 
ATOM     12  O   UNL d   1      54.705  33.604  53.781  0.00  0.00    -0.198 OA
ATOM     13  O   UNL d   1      54.347  32.548  53.432  0.00  0.00    -0.198 OA
BRANCH  11  14
ATOM     14  C   UNL d   1      53.589  33.925  53.936  0.00  0.00     0.106 A 
ATOM     15  C   UNL d   1      53.160  34.380  53.397  0.00  0.00     0.013 A 
ATOM     16  C   UNL d   1      52.780  35.070  53.649  0.00  0.00     0.001 A 
ATOM     17  C   UNL d   1      52.830  35.303  54.438  0.00  0.00     0.000 A 
ATOM     18  C   UNL d   1      53.258  34.838  54.949  0.00  0.00     0.001 A 
ATOM     19  C   UNL d   1      53.639  34.159  54.725  0.00  0.00     0.013 A 
ENDBRANCH  11  14
ENDBRANCH   1  11
TORSDOF 3
ENDMDL
MODEL 3
REMARK VINA RESULT:      -8.6      2.140      2.864
REMARK  3 active torsions:
REMARK  status: ('A' for Active; 'I' for Inactive)
REMARK    1  A    between atoms: N_3  and  S_1 
REMARK    2  A    between atoms: C_10  and  S_1 
REMARK    3  A    between atoms: C_2  and  N_3 
ROOT
ATOM      1  N   UNL d   1      53.014  31.780  53.644  0.00  0.00     0.034 NA
ENDROOT
BRANCH   1   2
ATOM      2  C   UNL d   1      52.933  32.598  53.710  0.00  0.00     0.760 A 
ATOM      3  N   UNL d   1      52.294  33.057  53.461  0.00  0.00    -0.057 NA
ATOM      4  C   UNL d   1      52.439  33.830  53.631  0.00  0.00     0.118 A 
ATOM      5  C   UNL d   1      51.998  34.516  53.507  0.00  0.00     0.021 A 
ATOM      6  C   UNL d   1      53.178  33.875  53.993  0.00  0.00     0.118 A 
ATOM      7  C   UNL d   1      52.300  35.221  53.743  0.00  0.00     0.002 A 
ATOM      8  C   UNL d   1      53.040  35.265  54.106  0.00  0.00     0.002 A 
ATOM      9  C   UNL d   1      53.477  34.605  54.231  0.00  0.00     0.021 A 
ATOM     10  N   UNL d   1      53.478  33.128  54.041  0.00  0.00    -0.057 NA
ENDBRANCH   1   2
BRANCH   1  11
ATOM     11  S   UNL d   1      53.001  31.423  52.900  0.00  0.00     0.300 S 
ATOM     12  O   UNL d   1      52.988  31.067  52.152  0.00  0.00    -0.198 OA
ATOM     13  O   UNL d   1      52.973  32.167  52.544  0.00  0.00    -0.198 OA
BRANCH  11  14
ATOM     14  C   UNL d   1      53.029  30.679  53.257  0.00  0.00     0.106 A 
ATOM     15  C   UNL d   1      53.736  30.405  53.583  0.00  0.00     0.013 A 
ATOM     16  C   UNL d   1      53.765  29.659  53.941  0.00  0.00     0.001 A 
ATOM     17  C   UNL d   1      53.086  29.191  53.971  0.00  0.00     0.000 A 
ATOM     18  C   UNL d   1      52.403  29.484  53.643  0.00  0.00     0.001 A 
ATOM     19  C   UNL d   1      52.351  30.210  53.288  0.00  0.00     0.013 A 
ENDBRANCH  11  14
ENDBRANCH   1  11
TORSDOF 3
ENDMDL
MODEL 4
REMARK VINA RESULT:      -8.5      2.124      3.351
REMARK  3 active torsions:
REMARK  status: ('A' for Active; 'I' for Inactive)
REMARK    1  A    between atoms: N_3  and  S_1 
REMARK    2  A    between atoms: C_10  and  S_1 
REMARK    3  A    between atoms: C_2  and  N_3 
ROOT
ATOM      1  N   UNL d   1      52.831  33.020  53.235  0.00  0.00     0.034 NA
ENDROOT
BRANCH   1   2
ATOM      2  C   UNL d   1      52.924  32.202  53.272  0.00  0.00     0.760 A 
ATOM      3  N   UNL d   1      52.670  31.646  52.716  0.00  0.00    -0.057 NA
ATOM      4  C   UNL d   1      52.872  30.908  52.965  0.00  0.00     0.118 A 
ATOM      5  C   UNL d   1      52.758  30.161  52.634  0.00  0.00     0.021 A 
ATOM      6  C   UNL d   1      53.260  30.984  53.690  0.00  0.00     0.118 A 
ATOM      7  C   UNL d   1      53.029  29.516  53.027  0.00  0.00     0.002 A 
ATOM      8  C   UNL d   1      53.417  29.592  53.751  0.00  0.00     0.002 A 
ATOM      9  C   UNL d   1      53.533  30.313  54.083  0.00  0.00     0.021 A 
ATOM     10  N   UNL d   1      53.291  31.767  53.875  0.00  0.00    -0.057 NA
ENDBRANCH   1   2
BRANCH   1  11
ATOM     11  S   UNL d   1      52.103  33.362  53.422  0.00  0.00     0.300 S 
ATOM     12  O   UNL d   1      51.372  33.703  53.609  0.00  0.00    -0.198 OA
ATOM     13  O   UNL d   1      51.722  32.660  53.216  0.00  0.00    -0.198 OA
BRANCH  11  14
ATOM     14  C   UNL d   1      52.486  34.064  53.628  0.00  0.00     0.106 A 
ATOM     15  C   UNL d   1      52.652  34.225  54.420  0.00  0.00     0.013 A 
ATOM     16  C   UNL d   1      53.035  34.929  54.627  0.00  0.00     0.001 A 
ATOM     17  C   UNL d   1      53.252  35.468  54.042  0.00  0.00     0.000 A 
ATOM     18  C   UNL d   1      53.078  35.285  53.269  0.00  0.00     0.001 A 
ATOM     19  C   UNL d   1      52.703  34.603  53.043  0.00  0.00     0.013 A 
ENDBRANCH  11  14
ENDBRANCH   1  11
TORSDOF 3
ENDMDL
MODEL 5
REMARK VINA RESULT:      -8.0      0.867      3.973
REMARK  3 active torsions:
REMARK  status: ('A' for Active; 'I' for Inactive)
REMARK    1  A    between atoms: N_3  and  S_1 
REMARK    2  A    between atoms: C_10  and  S_1 
REMARK    3  A    between atoms: C_2  and  N_3 
ROOT
ATOM      1  N   UNL d   1      51.943  33.867  53.204  0.00  0.00     0.034 NA
ENDROOT
BRANCH   1   2
ATOM      2  C   UNL d   1      52.665  33.758  53.587  0.00  0.00     0.760 A 
ATOM      3  N   UNL d   1      53.322  33.344  53.306  0.00  0.00    -0.057 NA
ATOM      4  C   UNL d   1      53.910  33.374  53.855  0.00  0.00     0.118 A 
ATOM      5  C   UNL d   1      54.673  33.061  53.865  0.00  0.00     0.021 A 
ATOM      6  C   UNL d   1      53.634  33.810  54.498  0.00  0.00     0.118 A 
ATOM      7  C   UNL d   1      55.137  33.189  54.507  0.00  0.00     0.002 A 
ATOM      8  C   UNL d   1      54.861  33.625  55.150  0.00  0.00     0.002 A 
ATOM      9  C   UNL d   1      54.121  33.934  55.151  0.00  0.00     0.021 A 
ATOM     10  N   UNL d   1      52.879  34.043  54.337  0.00  0.00    -0.057 NA
ENDBRANCH   1   2
BRANCH   1  11
ATOM     11  S   UNL d   1      51.352  33.294  53.267  0.00  0.00     0.300 S 
ATOM     12  O   UNL d   1      50.760  32.717  53.331  0.00  0.00    -0.198 OA
ATOM     13  O   UNL d   1      51.874  32.801  53.674  0.00  0.00    -0.198 OA
BRANCH  11  14
ATOM     14  C   UNL d   1      50.831  33.787  52.859  0.00  0.00     0.106 A 
ATOM     15  C   UNL d   1      50.280  34.238  53.276  0.00  0.00     0.013 A 
ATOM     16  C   UNL d   1      49.757  34.733  52.868  0.00  0.00     0.001 A 
ATOM     17  C   UNL d   1      49.787  34.775  52.045  0.00  0.00     0.000 A 
ATOM     18  C   UNL d   1      50.339  34.321  51.658  0.00  0.00     0.001 A 
ATOM     19  C   UNL d   1      50.861  33.829  52.036  0.00  0.00     0.013 A 
ENDBRANCH  11  14
ENDBRANCH   1  11
TORSDOF 3
ENDMDL
