MODEL 1
REMARK VINA RESULT:      27.3      0.000      0.000
REMARK  1 active torsions:
REMARK  status: ('A' for Active; 'I' for Inactive)
REMARK    1  A    between atoms: C_4  and  C_2 
ROOT
ATOM      1  C   UNL d   1     -58.338 -98.763 -43.725  0.00  0.00     0.141 C 
ATOM      2  C   UNL d   1     -59.138 -98.768 -43.900  0.00  0.00     0.112 C 
ATOM      3  C   UNL d   1     -58.079 -98.760 -42.932  0.00  0.00     0.112 C 
ATOM      4  N   UNL d   1     -57.807 -98.757 -42.123  0.00  0.00    -0.191 NA
ATOM      5  N   UNL d   1     -59.961 -98.772 -44.068  0.00  0.00    -0.191 NA
ENDROOT
BRANCH   1   6
ATOM      6  C   UNL d   1     -57.790 -98.762 -44.351  0.00  0.00     0.079 A 
ATOM      7  C   UNL d   1     -57.990 -98.758 -45.130  0.00  0.00     0.281 A 
ATOM      8  N   UNL d   1     -57.305 -98.758 -45.572  0.00  0.00    -0.208 NA
ATOM      9  O   UNL d   1     -58.778 -98.756 -45.409  0.00  0.00    -0.265 OA
ATOM     10  C   UNL d   1     -56.679 -98.761 -45.061  0.00  0.00     0.085 A 
ATOM     11  C   UNL d   1     -55.858 -98.762 -45.192  0.00  0.00     0.019 A 
ATOM     12  C   UNL d   1     -56.970 -98.763 -44.288  0.00  0.00     0.024 A 
ATOM     13  C   UNL d   1     -55.353 -98.765 -44.567  0.00  0.00     0.002 A 
ATOM     14  C   UNL d   1     -55.660 -98.768 -43.789  0.00  0.00     0.000 A 
ATOM     15  C   UNL d   1     -56.476 -98.767 -43.668  0.00  0.00     0.002 A 
ENDBRANCH   1   6
TORSDOF 1
ENDMDL
MODEL 2
REMARK VINA RESULT:      28.5      1.719      2.950
REMARK  1 active torsions:
REMARK  status: ('A' for Active; 'I' for Inactive)
REMARK    1  A    between atoms: C_4  and  C_2 
ROOT
ATOM      1  C   UNL d   1     -55.428 -99.657 -44.008  0.00  0.00     0.141 C 
ATOM      2  C   UNL d   1     -55.104 -99.208 -43.403  0.00  0.00     0.112 C 
ATOM      3  C   UNL d   1     -55.139-100.422 -44.166  0.00  0.00     0.112 C 
ATOM      4  N   UNL d   1     -54.848-101.207 -44.334  0.00  0.00    -0.191 NA
ATOM      5  N   UNL d   1     -54.766 -98.757 -42.782  0.00  0.00    -0.191 NA
ENDROOT
BRANCH   1   6
ATOM      6  C   UNL d   1     -56.048 -99.334 -44.459  0.00  0.00     0.079 A 
ATOM      7  C   UNL d   1     -55.960 -99.022 -45.195  0.00  0.00     0.281 A 
ATOM      8  N   UNL d   1     -56.689 -98.764 -45.455  0.00  0.00    -0.208 NA
ATOM      9  O   UNL d   1     -55.230 -98.981 -45.600  0.00  0.00    -0.265 OA
ATOM     10  C   UNL d   1     -57.229 -98.920 -44.874  0.00  0.00     0.085 A 
ATOM     11  C   UNL d   1     -58.048 -98.782 -44.829  0.00  0.00     0.019 A 
ATOM     12  C   UNL d   1     -56.839 -99.279 -44.241  0.00  0.00     0.024 A 
ATOM     13  C   UNL d   1     -58.454 -98.998 -44.171  0.00  0.00     0.002 A 
ATOM     14  C   UNL d   1     -58.048 -99.361 -43.536  0.00  0.00     0.000 A 
ATOM     15  C   UNL d   1     -57.236 -99.495 -43.589  0.00  0.00     0.002 A 
ENDBRANCH   1   6
TORSDOF 1
ENDMDL
