MODEL 1
REMARK VINA RESULT:      87.4      0.000      0.000
REMARK  5 active torsions:
REMARK  status: ('A' for Active; 'I' for Inactive)
REMARK    1  A    between atoms: C_6  and  C_1 
REMARK    2  A    between atoms: C_11  and  N_3 
REMARK    3  A    between atoms: C_20  and  C_11 
REMARK    4  A    between atoms: C_13  and  O_19 
REMARK    5  A    between atoms: O_19  and  C_20 
ROOT
ATOM      1  C   UNL d   1      58.034  49.258  50.294  0.00  0.00     0.171 A 
ATOM      2  N   UNL d   1      58.708  49.706  50.127  0.00  0.00    -0.225 NA
ATOM      3  N   UNL d   1      58.261  48.615  50.771  0.00  0.00    -0.286 N 
ATOM      4  C   UNL d   1      59.077  48.667  50.898  0.00  0.00     0.083 A 
ATOM      5  C   UNL d   1      59.355  49.341  50.500  0.00  0.00     0.099 A 
ATOM      6  C   UNL d   1      59.616  48.192  51.324  0.00  0.00     0.019 A 
ATOM      7  C   UNL d   1      60.162  49.538  50.528  0.00  0.00     0.021 A 
ATOM      8  C   UNL d   1      60.415  48.391  51.349  0.00  0.00     0.002 A 
ATOM      9  C   UNL d   1      60.689  49.065  50.950  0.00  0.00     0.002 A 
ENDROOT
BRANCH   3  10
ATOM     10  C   UNL d   1      57.642  48.114  50.984  0.00  0.00     0.108 C 
BRANCH  10  11
ATOM     11  C   UNL d   1      57.555  47.386  50.609  0.00  0.00     0.142 C 
BRANCH  11  12
ATOM     12  O   UNL d   1      56.945  46.878  50.834  0.00  0.00    -0.304 OA
BRANCH  12  13
ATOM     13  C   UNL d   1      56.943  46.097  50.570  0.00  0.00     0.100 A 
ATOM     14  C   UNL d   1      57.471  45.557  50.903  0.00  0.00     0.026 A 
ATOM     15  C   UNL d   1      57.472  44.774  50.642  0.00  0.00     0.013 A 
ATOM     16  C   UNL d   1      56.944  44.538  50.047  0.00  0.00     0.058 A 
ATOM     17  C   UNL d   1      56.420  45.083  49.720  0.00  0.00     0.013 A 
ATOM     18 CL   UNL d   1      56.944  43.758  49.786  0.00  0.00    -0.082 Cl
ATOM     19  C   UNL d   1      56.422  45.865  49.984  0.00  0.00     0.026 A 
ENDBRANCH  12  13
ENDBRANCH  11  12
ENDBRANCH  10  11
ENDBRANCH   3  10
BRANCH   1  20
ATOM     20  C   UNL d   1      57.267  49.419  50.033  0.00  0.00     0.134 A 
ATOM     21  O   UNL d   1      56.626  49.499  50.351  0.00  0.00    -0.302 OA
ATOM     22  C   UNL d   1      56.042  49.642  49.957  0.00  0.00     0.123 A 
ATOM     23  C   UNL d   1      56.096  49.707  49.237  0.00  0.00     0.029 A 
ATOM     24  C   UNL d   1      56.736  49.627  48.924  0.00  0.00     0.030 A 
ENDBRANCH   1  20
TORSDOF 5
ENDMDL
MODEL 2
REMARK VINA RESULT:      87.7      8.049     10.263
REMARK  5 active torsions:
REMARK  status: ('A' for Active; 'I' for Inactive)
REMARK    1  A    between atoms: C_6  and  C_1 
REMARK    2  A    between atoms: C_11  and  N_3 
REMARK    3  A    between atoms: C_20  and  C_11 
REMARK    4  A    between atoms: C_13  and  O_19 
REMARK    5  A    between atoms: O_19  and  C_20 
ROOT
ATOM      1  C   UNL d   1      58.164  37.984  55.233  0.00  0.00     0.171 A 
ATOM      2  N   UNL d   1      58.917  38.015  55.573  0.00  0.00    -0.225 NA
ATOM      3  N   UNL d   1      57.857  38.757  55.211  0.00  0.00    -0.286 N 
ATOM      4  C   UNL d   1      58.422  39.266  55.538  0.00  0.00     0.083 A 
ATOM      5  C   UNL d   1      59.077  38.808  55.763  0.00  0.00     0.099 A 
ATOM      6  C   UNL d   1      58.435  40.091  55.667  0.00  0.00     0.019 A 
ATOM      7  C   UNL d   1      59.739  39.172  56.112  0.00  0.00     0.021 A 
ATOM      8  C   UNL d   1      59.093  40.447  56.013  0.00  0.00     0.002 A 
ATOM      9  C   UNL d   1      59.746  39.986  56.236  0.00  0.00     0.002 A 
ENDROOT
BRANCH   3  10
ATOM     10  C   UNL d   1      57.103  38.814  54.883  0.00  0.00     0.108 C 
BRANCH  10  11
ATOM     11  C   UNL d   1      56.728  39.547  54.841  0.00  0.00     0.142 C 
BRANCH  11  12
ATOM     12  O   UNL d   1      56.034  39.629  54.403  0.00  0.00    -0.304 OA
BRANCH  12  13
ATOM     13  C   UNL d   1      56.034  40.084  53.716  0.00  0.00     0.100 A 
ATOM     14  C   UNL d   1      56.034  39.706  52.982  0.00  0.00     0.026 A 
ATOM     15  C   UNL d   1      56.034  40.157  52.291  0.00  0.00     0.013 A 
ATOM     16  C   UNL d   1      56.034  40.986  52.340  0.00  0.00     0.058 A 
ATOM     17  C   UNL d   1      56.034  41.355  53.077  0.00  0.00     0.013 A 
ATOM     18 CL   UNL d   1      56.034  41.437  51.652  0.00  0.00    -0.082 Cl
ATOM     19  C   UNL d   1      56.034  40.900  53.765  0.00  0.00     0.026 A 
ENDBRANCH  12  13
ENDBRANCH  11  12
ENDBRANCH  10  11
ENDBRANCH   3  10
BRANCH   1  20
ATOM     20  C   UNL d   1      57.782  37.304  54.962  0.00  0.00     0.134 A 
ATOM     21  O   UNL d   1      57.990  36.699  54.631  0.00  0.00    -0.302 OA
ATOM     22  C   UNL d   1      57.507  36.195  54.462  0.00  0.00     0.123 A 
ATOM     23  C   UNL d   1      56.808  36.292  54.625  0.00  0.00     0.029 A 
ATOM     24  C   UNL d   1      56.604  36.895  54.954  0.00  0.00     0.030 A 
ENDBRANCH   1  20
TORSDOF 5
ENDMDL
