MODEL 1
REMARK VINA RESULT:      -3.0      0.000      0.000
REMARK  2 active torsions:
REMARK  status: ('A' for Active; 'I' for Inactive)
REMARK    1  A    between atoms: N_9  and  C_2 
REMARK    2  A    between atoms: C_11  and  N_9 
ROOT
ATOM      1  C   UNL d   1      29.682  16.382 -23.945  0.00  0.00     0.154 A 
ATOM      2  C   UNL d   1      30.209  16.865 -24.348  0.00  0.00     0.185 A 
ATOM      3  C   UNL d   1      28.876  16.556 -23.947  0.00  0.00     0.186 A 
ATOM      4  N   UNL d   1      29.795  15.697 -23.499  0.00  0.00    -0.218 NA
ATOM      5  N   UNL d   1      28.492  15.979 -23.502  0.00  0.00    -0.203 NA
ATOM      6  N   UNL d   1      29.931  17.527 -24.755  0.00  0.00    -0.203 NA
ATOM      7  N   UNL d   1      28.596  17.214 -24.351  0.00  0.00    -0.203 NA
ATOM      8  C   UNL d   1      29.053  15.453 -23.227  0.00  0.00     0.201 A 
ATOM      9  C   UNL d   1      29.125  17.701 -24.757  0.00  0.00     0.202 A 
ENDROOT
BRANCH   2  10
ATOM     10  N   UNL d   1      31.015  16.691 -24.346  0.00  0.00    -0.225 NA
BRANCH  10  11
ATOM     11  C   UNL d   1      31.569  17.298 -24.338  0.00  0.00     0.083 A 
ATOM     12  C   UNL d   1      31.849  17.594 -23.621  0.00  0.00     0.021 A 
ATOM     13  C   UNL d   1      32.400  18.198 -23.611  0.00  0.00     0.031 A 
ATOM     14  C   UNL d   1      32.681  18.518 -24.327  0.00  0.00     0.140 A 
ATOM     15  C   UNL d   1      32.401  18.222 -25.044  0.00  0.00     0.031 A 
ATOM     16  F   UNL d   1      33.240  19.131 -24.325  0.00  0.00    -0.204 F 
ATOM     17  C   UNL d   1      31.845  17.612 -25.050  0.00  0.00     0.021 A 
ENDBRANCH  10  11
ENDBRANCH   2  10
TORSDOF 2
ENDMDL
MODEL 2
REMARK VINA RESULT:      -2.9      2.103      3.656
REMARK  2 active torsions:
REMARK  status: ('A' for Active; 'I' for Inactive)
REMARK    1  A    between atoms: N_9  and  C_2 
REMARK    2  A    between atoms: C_11  and  N_9 
ROOT
ATOM      1  C   UNL d   1      32.001  16.414 -23.693  0.00  0.00     0.154 A 
ATOM      2  C   UNL d   1      31.221  16.338 -23.939  0.00  0.00     0.185 A 
ATOM      3  C   UNL d   1      32.389  17.139 -23.767  0.00  0.00     0.186 A 
ATOM      4  N   UNL d   1      32.527  15.874 -23.359  0.00  0.00    -0.218 NA
ATOM      5  N   UNL d   1      33.155  17.045 -23.478  0.00  0.00    -0.203 NA
ATOM      6  N   UNL d   1      30.825  16.987 -24.259  0.00  0.00    -0.203 NA
ATOM      7  N   UNL d   1      31.998  17.787 -24.085  0.00  0.00    -0.203 NA
ATOM      8  C   UNL d   1      33.241  16.272 -23.228  0.00  0.00     0.201 A 
ATOM      9  C   UNL d   1      31.213  17.712 -24.332  0.00  0.00     0.202 A 
ENDROOT
BRANCH   2  10
ATOM     10  N   UNL d   1      30.833  15.614 -23.865  0.00  0.00    -0.225 NA
BRANCH  10  11
ATOM     11  C   UNL d   1      30.017  15.590 -23.777  0.00  0.00     0.083 A 
ATOM     12  C   UNL d   1      29.679  15.636 -23.026  0.00  0.00     0.021 A 
ATOM     13  C   UNL d   1      28.867  15.613 -22.936  0.00  0.00     0.031 A 
ATOM     14  C   UNL d   1      28.376  15.541 -23.605  0.00  0.00     0.140 A 
ATOM     15  C   UNL d   1      28.713  15.495 -24.357  0.00  0.00     0.031 A 
ATOM     16  F   UNL d   1      27.551  15.516 -23.522  0.00  0.00    -0.204 F 
ATOM     17  C   UNL d   1      29.534  15.519 -24.443  0.00  0.00     0.021 A 
ENDBRANCH  10  11
ENDBRANCH   2  10
TORSDOF 2
ENDMDL
MODEL 3
REMARK VINA RESULT:      -2.5      2.018      3.636
REMARK  2 active torsions:
REMARK  status: ('A' for Active; 'I' for Inactive)
REMARK    1  A    between atoms: N_9  and  C_2 
REMARK    2  A    between atoms: C_11  and  N_9 
ROOT
ATOM      1  C   UNL d   1      32.445  17.988 -23.529  0.00  0.00     0.154 A 
ATOM      2  C   UNL d   1      31.945  17.513 -23.975  0.00  0.00     0.185 A 
ATOM      3  C   UNL d   1      32.768  18.672 -23.857  0.00  0.00     0.186 A 
ATOM      4  N   UNL d   1      32.719  17.921 -22.754  0.00  0.00    -0.218 NA
ATOM      5  N   UNL d   1      33.240  19.028 -23.284  0.00  0.00    -0.203 NA
ATOM      6  N   UNL d   1      31.765  17.722 -24.753  0.00  0.00    -0.203 NA
ATOM      7  N   UNL d   1      32.591  18.883 -24.631  0.00  0.00    -0.203 NA
ATOM      8  C   UNL d   1      33.212  18.570 -22.608  0.00  0.00     0.201 A 
ATOM      9  C   UNL d   1      32.088  18.407 -25.081  0.00  0.00     0.202 A 
ENDROOT
BRANCH   2  10
ATOM     10  N   UNL d   1      31.622  16.829 -23.647  0.00  0.00    -0.225 NA
BRANCH  10  11
ATOM     11  C   UNL d   1      30.956  16.485 -23.982  0.00  0.00     0.083 A 
ATOM     12  C   UNL d   1      31.036  15.889 -24.547  0.00  0.00     0.021 A 
ATOM     13  C   UNL d   1      30.374  15.546 -24.882  0.00  0.00     0.031 A 
ATOM     14  C   UNL d   1      29.613  15.797 -24.653  0.00  0.00     0.140 A 
ATOM     15  C   UNL d   1      29.533  16.392 -24.087  0.00  0.00     0.031 A 
ATOM     16  F   UNL d   1      28.937  15.453 -24.988  0.00  0.00    -0.204 F 
ATOM     17  C   UNL d   1      30.204  16.736 -23.752  0.00  0.00     0.021 A 
ENDBRANCH  10  11
ENDBRANCH   2  10
TORSDOF 2
ENDMDL
MODEL 4
REMARK VINA RESULT:      -2.4      1.400      1.960
REMARK  2 active torsions:
REMARK  status: ('A' for Active; 'I' for Inactive)
REMARK    1  A    between atoms: N_9  and  C_2 
REMARK    2  A    between atoms: C_11  and  N_9 
ROOT
ATOM      1  C   UNL d   1      31.663  16.679 -23.932  0.00  0.00     0.154 A 
ATOM      2  C   UNL d   1      31.934  17.419 -24.161  0.00  0.00     0.185 A 
ATOM      3  C   UNL d   1      30.897  16.440 -24.127  0.00  0.00     0.186 A 
ATOM      4  N   UNL d   1      32.022  16.068 -23.511  0.00  0.00    -0.218 NA
ATOM      5  N   UNL d   1      30.786  15.682 -23.826  0.00  0.00    -0.203 NA
ATOM      6  N   UNL d   1      31.441  17.925 -24.588  0.00  0.00    -0.203 NA
ATOM      7  N   UNL d   1      30.404  16.941 -24.552  0.00  0.00    -0.203 NA
ATOM      8  C   UNL d   1      31.473  15.453 -23.449  0.00  0.00     0.201 A 
ATOM      9  C   UNL d   1      30.676  17.686 -24.783  0.00  0.00     0.202 A 
ENDROOT
BRANCH   2  10
ATOM     10  N   UNL d   1      32.699  17.658 -23.966  0.00  0.00    -0.225 NA
BRANCH  10  11
ATOM     11  C   UNL d   1      32.834  18.413 -23.672  0.00  0.00     0.083 A 
ATOM     12  C   UNL d   1      32.838  18.547 -22.858  0.00  0.00     0.021 A 
ATOM     13  C   UNL d   1      32.972  19.298 -22.565  0.00  0.00     0.031 A 
ATOM     14  C   UNL d   1      33.104  19.933 -23.087  0.00  0.00     0.140 A 
ATOM     15  C   UNL d   1      33.100  19.799 -23.901  0.00  0.00     0.031 A 
ATOM     16  F   UNL d   1      33.241  20.698 -22.796  0.00  0.00    -0.204 F 
ATOM     17  C   UNL d   1      32.965  19.039 -24.194  0.00  0.00     0.021 A 
ENDBRANCH  10  11
ENDBRANCH   2  10
TORSDOF 2
ENDMDL
MODEL 5
REMARK VINA RESULT:      -2.4      2.521      3.954
REMARK  2 active torsions:
REMARK  status: ('A' for Active; 'I' for Inactive)
REMARK    1  A    between atoms: N_9  and  C_2 
REMARK    2  A    between atoms: C_11  and  N_9 
ROOT
ATOM      1  C   UNL d   1      32.982  19.115 -23.030  0.00  0.00     0.154 A 
ATOM      2  C   UNL d   1      32.874  18.476 -23.534  0.00  0.00     0.185 A 
ATOM      3  C   UNL d   1      33.166  19.858 -23.336  0.00  0.00     0.186 A 
ATOM      4  N   UNL d   1      32.944  19.179 -22.208  0.00  0.00    -0.218 NA
ATOM      5  N   UNL d   1      33.240  20.381 -22.704  0.00  0.00    -0.203 NA
ATOM      6  N   UNL d   1      32.949  18.578 -24.349  0.00  0.00    -0.203 NA
ATOM      7  N   UNL d   1      33.241  19.963 -24.148  0.00  0.00    -0.203 NA
ATOM      8  C   UNL d   1      33.104  19.967 -22.013  0.00  0.00     0.201 A 
ATOM      9  C   UNL d   1      33.133  19.322 -24.656  0.00  0.00     0.202 A 
ENDROOT
BRANCH   2  10
ATOM     10  N   UNL d   1      32.691  17.733 -23.227  0.00  0.00    -0.225 NA
BRANCH  10  11
ATOM     11  C   UNL d   1      32.204  17.221 -23.646  0.00  0.00     0.083 A 
ATOM     12  C   UNL d   1      31.385  17.259 -23.553  0.00  0.00     0.021 A 
ATOM     13  C   UNL d   1      30.899  16.751 -23.970  0.00  0.00     0.031 A 
ATOM     14  C   UNL d   1      31.229  16.192 -24.492  0.00  0.00     0.140 A 
ATOM     15  C   UNL d   1      32.048  16.154 -24.585  0.00  0.00     0.031 A 
ATOM     16  F   UNL d   1      30.742  15.673 -24.918  0.00  0.00    -0.204 F 
ATOM     17  C   UNL d   1      32.536  16.669 -24.163  0.00  0.00     0.021 A 
ENDBRANCH  10  11
ENDBRANCH   2  10
TORSDOF 2
ENDMDL
MODEL 6
REMARK VINA RESULT:      -1.9      6.864      7.994
REMARK  2 active torsions:
REMARK  status: ('A' for Active; 'I' for Inactive)
REMARK    1  A    between atoms: N_9  and  C_2 
REMARK    2  A    between atoms: C_11  and  N_9 
ROOT
ATOM      1  C   UNL d   1      32.773  22.661 -20.903  0.00  0.00     0.154 A 
ATOM      2  C   UNL d   1      32.933  22.640 -20.098  0.00  0.00     0.185 A 
ATOM      3  C   UNL d   1      32.683  21.958 -21.325  0.00  0.00     0.186 A 
ATOM      4  N   UNL d   1      32.674  23.289 -21.428  0.00  0.00    -0.218 NA
ATOM      5  N   UNL d   1      32.529  22.154 -22.110  0.00  0.00    -0.203 NA
ATOM      6  N   UNL d   1      33.003  21.915 -19.711  0.00  0.00    -0.203 NA
ATOM      7  N   UNL d   1      32.753  21.234 -20.943  0.00  0.00    -0.203 NA
ATOM      8  C   UNL d   1      32.523  22.968 -22.175  0.00  0.00     0.201 A 
ATOM      9  C   UNL d   1      32.913  21.212 -20.133  0.00  0.00     0.202 A 
ENDROOT
BRANCH   2  10
ATOM     10  N   UNL d   1      33.022  23.343 -19.676  0.00  0.00    -0.225 NA
BRANCH  10  11
ATOM     11  C   UNL d   1      32.745  23.400 -18.905  0.00  0.00     0.083 A 
ATOM     12  C   UNL d   1      33.241  23.216 -18.271  0.00  0.00     0.021 A 
ATOM     13  C   UNL d   1      32.966  23.272 -17.503  0.00  0.00     0.031 A 
ATOM     14  C   UNL d   1      32.183  23.516 -17.357  0.00  0.00     0.140 A 
ATOM     15  C   UNL d   1      31.688  23.700 -17.990  0.00  0.00     0.031 A 
ATOM     16  F   UNL d   1      31.898  23.575 -16.580  0.00  0.00    -0.204 F 
ATOM     17  C   UNL d   1      31.969  23.643 -18.765  0.00  0.00     0.021 A 
ENDBRANCH  10  11
ENDBRANCH   2  10
TORSDOF 2
ENDMDL
MODEL 7
REMARK VINA RESULT:      -1.7      3.059      4.298
REMARK  2 active torsions:
REMARK  status: ('A' for Active; 'I' for Inactive)
REMARK    1  A    between atoms: N_9  and  C_2 
REMARK    2  A    between atoms: C_11  and  N_9 
ROOT
ATOM      1  C   UNL d   1      32.824  18.710 -23.295  0.00  0.00     0.154 A 
ATOM      2  C   UNL d   1      33.086  19.462 -23.092  0.00  0.00     0.185 A 
ATOM      3  C   UNL d   1      32.672  18.524 -24.083  0.00  0.00     0.186 A 
ATOM      4  N   UNL d   1      32.667  18.042 -22.838  0.00  0.00    -0.218 NA
ATOM      5  N   UNL d   1      32.420  17.740 -24.113  0.00  0.00    -0.203 NA
ATOM      6  N   UNL d   1      33.197  20.031 -23.679  0.00  0.00    -0.203 NA
ATOM      7  N   UNL d   1      32.781  19.088 -24.670  0.00  0.00    -0.203 NA
ATOM      8  C   UNL d   1      32.417  17.444 -23.352  0.00  0.00     0.201 A 
ATOM      9  C   UNL d   1      33.044  19.845 -24.468  0.00  0.00     0.202 A 
ENDROOT
BRANCH   2  10
ATOM     10  N   UNL d   1      33.239  19.648 -22.303  0.00  0.00    -0.225 NA
BRANCH  10  11
ATOM     11  C   UNL d   1      32.997  20.371 -21.995  0.00  0.00     0.083 A 
ATOM     12  C   UNL d   1      33.238  21.075 -22.351  0.00  0.00     0.021 A 
ATOM     13  C   UNL d   1      32.999  21.794 -22.046  0.00  0.00     0.031 A 
ATOM     14  C   UNL d   1      32.509  21.820 -21.373  0.00  0.00     0.140 A 
ATOM     15  C   UNL d   1      32.268  21.115 -21.016  0.00  0.00     0.031 A 
ATOM     16  F   UNL d   1      32.263  22.546 -21.058  0.00  0.00    -0.204 F 
ATOM     17  C   UNL d   1      32.512  20.391 -21.328  0.00  0.00     0.021 A 
ENDBRANCH  10  11
ENDBRANCH   2  10
TORSDOF 2
ENDMDL
MODEL 8
REMARK VINA RESULT:      -1.4      5.787      6.839
REMARK  2 active torsions:
REMARK  status: ('A' for Active; 'I' for Inactive)
REMARK    1  A    between atoms: N_9  and  C_2 
REMARK    2  A    between atoms: C_11  and  N_9 
ROOT
ATOM      1  C   UNL d   1      32.939  22.722 -20.605  0.00  0.00     0.154 A 
ATOM      2  C   UNL d   1      32.894  22.618 -21.418  0.00  0.00     0.185 A 
ATOM      3  C   UNL d   1      32.740  22.104 -20.096  0.00  0.00     0.186 A 
ATOM      4  N   UNL d   1      33.161  23.371 -20.146  0.00  0.00    -0.218 NA
ATOM      5  N   UNL d   1      32.839  22.372 -19.324  0.00  0.00    -0.203 NA
ATOM      6  N   UNL d   1      32.648  21.893 -21.727  0.00  0.00    -0.203 NA
ATOM      7  N   UNL d   1      32.495  21.382 -20.400  0.00  0.00    -0.203 NA
ATOM      8  C   UNL d   1      33.096  23.146 -19.352  0.00  0.00     0.201 A 
ATOM      9  C   UNL d   1      32.449  21.275 -21.218  0.00  0.00     0.202 A 
ENDROOT
BRANCH   2  10
ATOM     10  N   UNL d   1      33.093  23.236 -21.926  0.00  0.00    -0.225 NA
BRANCH  10  11
ATOM     11  C   UNL d   1      32.857  23.216 -22.713  0.00  0.00     0.083 A 
ATOM     12  C   UNL d   1      33.241  22.721 -23.249  0.00  0.00     0.021 A 
ATOM     13  C   UNL d   1      33.007  22.700 -24.032  0.00  0.00     0.031 A 
ATOM     14  C   UNL d   1      32.378  23.180 -24.293  0.00  0.00     0.140 A 
ATOM     15  C   UNL d   1      31.994  23.676 -23.756  0.00  0.00     0.031 A 
ATOM     16  F   UNL d   1      32.136  23.164 -25.086  0.00  0.00    -0.204 F 
ATOM     17  C   UNL d   1      32.233  23.694 -22.966  0.00  0.00     0.021 A 
ENDBRANCH  10  11
ENDBRANCH   2  10
TORSDOF 2
ENDMDL
MODEL 9
REMARK VINA RESULT:      -1.2      5.905      7.225
REMARK  2 active torsions:
REMARK  status: ('A' for Active; 'I' for Inactive)
REMARK    1  A    between atoms: N_9  and  C_2 
REMARK    2  A    between atoms: C_11  and  N_9 
ROOT
ATOM      1  C   UNL d   1      32.711  23.001 -22.947  0.00  0.00     0.154 A 
ATOM      2  C   UNL d   1      32.742  22.897 -22.134  0.00  0.00     0.185 A 
ATOM      3  C   UNL d   1      32.944  22.391 -23.452  0.00  0.00     0.186 A 
ATOM      4  N   UNL d   1      32.475  23.641 -23.411  0.00  0.00    -0.218 NA
ATOM      5  N   UNL d   1      32.852  22.656 -24.226  0.00  0.00    -0.203 NA
ATOM      6  N   UNL d   1      33.007  22.182 -21.820  0.00  0.00    -0.203 NA
ATOM      7  N   UNL d   1      33.209  21.678 -23.142  0.00  0.00    -0.203 NA
ATOM      8  C   UNL d   1      32.566  23.420 -24.203  0.00  0.00     0.201 A 
ATOM      9  C   UNL d   1      33.241  21.572 -22.324  0.00  0.00     0.202 A 
ENDROOT
BRANCH   2  10
ATOM     10  N   UNL d   1      32.508  23.507 -21.629  0.00  0.00    -0.225 NA
BRANCH  10  11
ATOM     11  C   UNL d   1      32.521  23.398 -20.816  0.00  0.00     0.083 A 
ATOM     12  C   UNL d   1      33.223  23.500 -20.394  0.00  0.00     0.021 A 
ATOM     13  C   UNL d   1      33.237  23.391 -19.584  0.00  0.00     0.031 A 
ATOM     14  C   UNL d   1      32.541  23.176 -19.180  0.00  0.00     0.140 A 
ATOM     15  C   UNL d   1      31.839  23.074 -19.601  0.00  0.00     0.031 A 
ATOM     16  F   UNL d   1      32.548  23.065 -18.358  0.00  0.00    -0.204 F 
ATOM     17  C   UNL d   1      31.829  23.185 -20.419  0.00  0.00     0.021 A 
ENDBRANCH  10  11
ENDBRANCH   2  10
TORSDOF 2
ENDMDL
