MODEL 1
REMARK VINA RESULT:      -7.0      0.000      0.000
REMARK  3 active torsions:
REMARK  status: ('A' for Active; 'I' for Inactive)
REMARK    1  A    between atoms: C_9  and  C_4 
REMARK    2  A    between atoms: C_10  and  C_7 
REMARK    3  A    between atoms: C_17  and  C_10 
ROOT
ATOM      1  C   UNL d   1     -41.450-123.350 -52.119  0.00  0.00     0.179 A 
ATOM      2  N   UNL d   1     -41.447-122.554 -51.881  0.00  0.00    -0.282 N 
ATOM      3  N   UNL d   1     -41.574-123.374 -52.935  0.00  0.00    -0.221 NA
ATOM      4  C   UNL d   1     -41.647-122.590 -53.205  0.00  0.00     0.101 A 
ATOM      5  S   UNL d   1     -41.329-123.817 -51.451  0.00  0.00    -0.048 SA
ATOM      6  C   UNL d   1     -41.568-122.094 -52.555  0.00  0.00     0.101 A 
ATOM      7  C   UNL d   1     -41.251-123.308 -50.803  0.00  0.00     0.050 A 
ATOM      8  C   UNL d   1     -41.323-122.543 -51.069  0.00  0.00     0.089 A 
ENDROOT
BRANCH   4   9
ATOM      9  C   UNL d   1     -41.775-122.366 -53.980  0.00  0.00     0.019 A 
ATOM     10  C   UNL d   1     -41.235-122.591 -54.562  0.00  0.00     0.004 A 
ATOM     11  C   UNL d   1     -41.352-122.372 -55.350  0.00  0.00     0.030 A 
ATOM     12  C   UNL d   1     -42.018-121.922 -55.548  0.00  0.00     0.140 A 
ATOM     13  C   UNL d   1     -42.557-121.696 -54.973  0.00  0.00     0.030 A 
ATOM     14  F   UNL d   1     -42.283-121.622 -56.275  0.00  0.00    -0.204 F 
ATOM     15  C   UNL d   1     -42.439-121.916 -54.188  0.00  0.00     0.004 A 
ENDBRANCH   4   9
BRANCH   7  16
ATOM     16  C   UNL d   1     -41.123-123.550 -50.024  0.00  0.00     0.008 C 
BRANCH  16  17
ATOM     17  C   UNL d   1     -41.707-123.461 -49.452  0.00  0.00     0.001 A 
ATOM     18  C   UNL d   1     -42.444-123.813 -49.546  0.00  0.00     0.000 A 
ATOM     19  C   UNL d   1     -43.033-123.721 -48.967  0.00  0.00     0.000 A 
ATOM     20  C   UNL d   1     -42.875-123.272 -48.292  0.00  0.00     0.000 A 
ATOM     21  C   UNL d   1     -42.137-122.917 -48.194  0.00  0.00     0.000 A 
ATOM     22  C   UNL d   1     -41.550-123.009 -48.771  0.00  0.00     0.000 A 
ENDBRANCH  16  17
ENDBRANCH   7  16
TORSDOF 3
ENDMDL
