MODEL 1
REMARK VINA RESULT:      -1.9      0.000      0.000
REMARK  6 active torsions:
REMARK  status: ('A' for Active; 'I' for Inactive)
REMARK    1  A    between atoms: N_7  and  C_1 
REMARK    2  A    between atoms: C_6  and  C_4 
REMARK    3  A    between atoms: C_20  and  N_9 
REMARK    4  A    between atoms: C_23  and  C_13 
REMARK    5  A    between atoms: O_19  and  C_23 
REMARK    6  A    between atoms: C_21  and  O_19 
ROOT
ATOM      1  C   UNL d   1      33.018  19.984 -21.622  0.00  0.00     0.198 A 
ATOM      2  C   UNL d   1      33.066  20.199 -22.422  0.00  0.00     0.191 A 
ATOM      3  O   UNL d   1      32.937  19.171 -21.571  0.00  0.00    -0.268 OA
ATOM      4  C   UNL d   1      32.934  18.876 -22.316  0.00  0.00     0.208 A 
ATOM      5  N   UNL d   1      33.013  19.499 -22.856  0.00  0.00    -0.206 NA
ATOM      6  C   UNL d   1      33.152  20.968 -22.754  0.00  0.00     0.124 C 
ATOM      7  N   UNL d   1      33.238  21.738 -23.077  0.00  0.00    -0.190 NA
ENDROOT
BRANCH   1   8
ATOM      8  N   UNL d   1      33.055  20.577 -21.043  0.00  0.00    -0.280 N 
ATOM      9  C   UNL d   1      32.971  20.378 -20.263  0.00  0.00     0.101 A 
ATOM     10  C   UNL d   1      33.009  20.968 -19.688  0.00  0.00     0.100 A 
ATOM     11  N   UNL d   1      33.129  21.743 -19.907  0.00  0.00    -0.301 N 
ATOM     12  C   UNL d   1      33.217  21.953 -20.712  0.00  0.00     0.100 A 
ATOM     13  C   UNL d   1      33.179  21.363 -21.287  0.00  0.00     0.101 A 
BRANCH  11  14
ATOM     14  C   UNL d   1      33.167  22.329 -19.335  0.00  0.00     0.064 A 
ATOM     15  C   UNL d   1      33.187  23.109 -19.560  0.00  0.00     0.018 A 
ATOM     16  C   UNL d   1      33.225  23.702 -18.981  0.00  0.00     0.002 A 
ATOM     17  C   UNL d   1      33.241  23.494 -18.199  0.00  0.00     0.000 A 
ATOM     18  C   UNL d   1      33.220  22.704 -17.956  0.00  0.00     0.002 A 
ATOM     19  C   UNL d   1      33.183  22.110 -18.535  0.00  0.00     0.018 A 
ENDBRANCH  11  14
ENDBRANCH   1   8
BRANCH   4  20
ATOM     20  C   UNL d   1      32.903  18.333 -22.947  0.00  0.00     0.141 A 
ATOM     21  O   UNL d   1      32.825  18.156 -23.743  0.00  0.00    -0.301 OA
ATOM     22  C   UNL d   1      32.880  17.345 -23.806  0.00  0.00     0.125 A 
ATOM     23  C   UNL d   1      32.989  16.998 -23.099  0.00  0.00     0.029 A 
ATOM     24  C   UNL d   1      33.005  17.604 -22.551  0.00  0.00     0.030 A 
BRANCH  22  25
ATOM     25  C   UNL d   1      32.833  16.903 -24.509  0.00  0.00     0.147 C 
BRANCH  25  26
ATOM     26  O   UNL d   1      32.225  17.001 -25.058  0.00  0.00    -0.303 OA
BRANCH  26  27
ATOM     27  C   UNL d   1      31.500  16.686 -24.937  0.00  0.00     0.100 A 
ATOM     28  C   UNL d   1      30.825  17.158 -24.944  0.00  0.00     0.023 A 
ATOM     29  C   UNL d   1      30.895  17.999 -25.081  0.00  0.00     0.002 C 
ATOM     30  C   UNL d   1      30.079  16.861 -24.823  0.00  0.00     0.002 A 
ATOM     31  C   UNL d   1      29.999  16.043 -24.688  0.00  0.00     0.000 A 
ATOM     32  C   UNL d   1      30.658  15.553 -24.677  0.00  0.00     0.002 A 
ATOM     33  C   UNL d   1      31.397  15.886 -24.803  0.00  0.00     0.025 A 
ENDBRANCH  26  27
ENDBRANCH  25  26
ENDBRANCH  22  25
ENDBRANCH   4  20
TORSDOF 6
ENDMDL
MODEL 2
REMARK VINA RESULT:       0.1      1.567      6.690
REMARK  6 active torsions:
REMARK  status: ('A' for Active; 'I' for Inactive)
REMARK    1  A    between atoms: N_7  and  C_1 
REMARK    2  A    between atoms: C_6  and  C_4 
REMARK    3  A    between atoms: C_20  and  N_9 
REMARK    4  A    between atoms: C_23  and  C_13 
REMARK    5  A    between atoms: O_19  and  C_23 
REMARK    6  A    between atoms: C_21  and  O_19 
ROOT
ATOM      1  C   UNL d   1      32.688  19.870 -22.602  0.00  0.00     0.198 A 
ATOM      2  C   UNL d   1      32.926  19.912 -21.809  0.00  0.00     0.191 A 
ATOM      3  O   UNL d   1      32.611  20.629 -22.897  0.00  0.00    -0.268 OA
ATOM      4  C   UNL d   1      32.795  21.141 -22.308  0.00  0.00     0.208 A 
ATOM      5  N   UNL d   1      32.992  20.714 -21.627  0.00  0.00    -0.206 NA
ATOM      6  C   UNL d   1      33.077  19.281 -21.272  0.00  0.00     0.124 C 
ATOM      7  N   UNL d   1      33.225  18.647 -20.743  0.00  0.00    -0.190 NA
ENDROOT
BRANCH   1   8
ATOM      8  N   UNL d   1      32.573  19.124 -22.948  0.00  0.00    -0.280 N 
ATOM      9  C   UNL d   1      33.209  18.638 -23.063  0.00  0.00     0.101 A 
ATOM     10  C   UNL d   1      33.095  17.896 -23.407  0.00  0.00     0.100 A 
ATOM     11  N   UNL d   1      32.348  17.660 -23.627  0.00  0.00    -0.301 N 
ATOM     12  C   UNL d   1      31.688  18.160 -23.510  0.00  0.00     0.100 A 
ATOM     13  C   UNL d   1      31.802  18.902 -23.166  0.00  0.00     0.101 A 
BRANCH  11  14
ATOM     14  C   UNL d   1      32.235  16.924 -23.969  0.00  0.00     0.064 A 
ATOM     15  C   UNL d   1      32.772  16.645 -24.510  0.00  0.00     0.018 A 
ATOM     16  C   UNL d   1      32.657  15.899 -24.856  0.00  0.00     0.002 A 
ATOM     17  C   UNL d   1      32.010  15.460 -24.648  0.00  0.00     0.000 A 
ATOM     18  C   UNL d   1      31.455  15.732 -24.097  0.00  0.00     0.002 A 
ATOM     19  C   UNL d   1      31.570  16.478 -23.752  0.00  0.00     0.018 A 
ENDBRANCH  11  14
ENDBRANCH   1   8
BRANCH   4  20
ATOM     20  C   UNL d   1      32.927  21.855 -21.899  0.00  0.00     0.141 A 
ATOM     21  O   UNL d   1      33.227  22.277 -21.265  0.00  0.00    -0.301 OA
ATOM     22  C   UNL d   1      33.044  23.060 -21.401  0.00  0.00     0.125 A 
ATOM     23  C   UNL d   1      32.646  23.159 -22.082  0.00  0.00     0.029 A 
ATOM     24  C   UNL d   1      32.566  22.413 -22.406  0.00  0.00     0.030 A 
BRANCH  22  25
ATOM     25  C   UNL d   1      33.234  23.702 -20.907  0.00  0.00     0.147 C 
BRANCH  25  26
ATOM     26  O   UNL d   1      33.214  23.653 -20.084  0.00  0.00    -0.303 OA
BRANCH  26  27
ATOM     27  C   UNL d   1      32.521  23.652 -19.684  0.00  0.00     0.100 A 
ATOM     28  C   UNL d   1      32.505  23.602 -18.862  0.00  0.00     0.023 A 
ATOM     29  C   UNL d   1      33.238  23.551 -18.424  0.00  0.00     0.002 C 
ATOM     30  C   UNL d   1      31.815  23.599 -18.435  0.00  0.00     0.002 A 
ATOM     31  C   UNL d   1      31.095  23.648 -18.850  0.00  0.00     0.000 A 
ATOM     32  C   UNL d   1      31.087  23.698 -19.670  0.00  0.00     0.002 A 
ATOM     33  C   UNL d   1      31.803  23.699 -20.071  0.00  0.00     0.025 A 
ENDBRANCH  26  27
ENDBRANCH  25  26
ENDBRANCH  22  25
ENDBRANCH   4  20
TORSDOF 6
ENDMDL
