MODEL 1
REMARK VINA RESULT:      36.0      0.000      0.000
REMARK  6 active torsions:
REMARK  status: ('A' for Active; 'I' for Inactive)
REMARK    1  A    between atoms: N_2  and  S_1 
REMARK    2  A    between atoms: C_3  and  S_1 
REMARK    3  A    between atoms: C_4  and  C_9 
REMARK    4  A    between atoms: O_12  and  C_4 
REMARK    5  A    between atoms: C_19  and  O_12 
REMARK    6  A    between atoms: C_18  and  C_19 
ROOT
ATOM      1  C   UNL d   1      13.985  12.327  -1.599  0.00  0.00     0.104 A 
ATOM      2  C   UNL d   1      14.594  12.829  -1.332  0.00  0.00     0.018 A 
ATOM      3  C   UNL d   1      14.821  12.802  -0.538  0.00  0.00     0.064 A 
ATOM      4  C   UNL d   1      13.609  11.807  -1.081  0.00  0.00     0.013 A 
ATOM      5  C   UNL d   1      14.444  12.280  -0.015  0.00  0.00     0.005 A 
ATOM      6  C   UNL d   1      13.836  11.780  -0.287  0.00  0.00     0.001 A 
ENDROOT
BRANCH   3   7
ATOM      7  C   UNL d   1      15.425  13.296  -0.255  0.00  0.00     0.300 C 
ATOM      8  O   UNL d   1      16.193  13.006  -0.163  0.00  0.00    -0.259 OA
BRANCH   7   9
ATOM      9  O   UNL d   1      15.251  14.081  -0.067  0.00  0.00    -0.271 OA
BRANCH   9  10
ATOM     10  C   UNL d   1      15.792  14.675  -0.248  0.00  0.00     0.126 C 
BRANCH  10  11
ATOM     11  C   UNL d   1      15.528  15.383  -0.559  0.00  0.00     0.027 A 
ATOM     12  C   UNL d   1      15.476  15.473  -1.366  0.00  0.00     0.028 A 
ATOM     13  C   UNL d   1      15.210  16.186  -1.677  0.00  0.00     0.119 A 
ATOM     14  O   UNL d   1      15.098  16.441  -2.460  0.00  0.00    -0.300 OA
ATOM     15  C   UNL d   1      14.998  16.804  -1.182  0.00  0.00     0.119 A 
ATOM     16  C   UNL d   1      14.818  17.217  -2.431  0.00  0.00     0.304 A 
ATOM     17  O   UNL d   1      14.756  17.440  -1.645  0.00  0.00    -0.300 OA
ATOM     18  C   UNL d   1      15.051  16.710  -0.365  0.00  0.00     0.026 A 
ATOM     19  C   UNL d   1      15.317  15.997  -0.054  0.00  0.00     0.004 A 
ENDBRANCH  10  11
ENDBRANCH   9  10
ENDBRANCH   7   9
ENDBRANCH   3   7
BRANCH   1  20
ATOM     20  S   UNL d   1      13.759  12.354  -2.393  0.00  0.00     0.271 S 
ATOM     21  O   UNL d   1      14.414  11.903  -2.633  0.00  0.00    -0.200 OA
ATOM     22  O   UNL d   1      13.101  12.806  -2.157  0.00  0.00    -0.200 OA
BRANCH  20  23
ATOM     23  N   UNL d   1      13.542  12.373  -3.196  0.00  0.00    -0.229 N 
ATOM     24  C   UNL d   1      13.045  11.779  -3.503  0.00  0.00     0.092 A 
ATOM     25  C   UNL d   1      12.837  11.808  -4.300  0.00  0.00     0.020 A 
ATOM     26  C   UNL d   1      13.110  12.412  -4.800  0.00  0.00     0.003 A 
ATOM     27  C   UNL d   1      13.600  12.994  -4.486  0.00  0.00     0.020 A 
ATOM     28  C   UNL d   1      13.817  12.975  -3.684  0.00  0.00     0.092 A 
ENDBRANCH  20  23
ENDBRANCH   1  20
TORSDOF 6
ENDMDL
MODEL 2
REMARK VINA RESULT:      38.4      1.285      3.261
REMARK  6 active torsions:
REMARK  status: ('A' for Active; 'I' for Inactive)
REMARK    1  A    between atoms: N_2  and  S_1 
REMARK    2  A    between atoms: C_3  and  S_1 
REMARK    3  A    between atoms: C_4  and  C_9 
REMARK    4  A    between atoms: O_12  and  C_4 
REMARK    5  A    between atoms: C_19  and  O_12 
REMARK    6  A    between atoms: C_18  and  C_19 
ROOT
ATOM      1  C   UNL d   1      13.480  12.401  -3.063  0.00  0.00     0.104 A 
ATOM      2  C   UNL d   1      13.463  13.184  -3.349  0.00  0.00     0.018 A 
ATOM      3  C   UNL d   1      13.141  13.333  -4.096  0.00  0.00     0.064 A 
ATOM      4  C   UNL d   1      13.182  11.779  -3.514  0.00  0.00     0.013 A 
ATOM      5  C   UNL d   1      12.840  12.709  -4.552  0.00  0.00     0.005 A 
ATOM      6  C   UNL d   1      12.860  11.929  -4.261  0.00  0.00     0.001 A 
ENDROOT
BRANCH   3   7
ATOM      7  C   UNL d   1      13.116  14.106  -4.396  0.00  0.00     0.300 C 
ATOM      8  O   UNL d   1      12.845  14.249  -5.163  0.00  0.00    -0.259 OA
BRANCH   7   9
ATOM      9  O   UNL d   1      13.366  14.734  -3.919  0.00  0.00    -0.271 OA
BRANCH   9  10
ATOM     10  C   UNL d   1      14.017  15.184  -4.143  0.00  0.00     0.126 C 
BRANCH  10  11
ATOM     11  C   UNL d   1      14.378  15.675  -3.599  0.00  0.00     0.027 A 
ATOM     12  C   UNL d   1      14.297  15.522  -2.804  0.00  0.00     0.028 A 
ATOM     13  C   UNL d   1      14.660  16.017  -2.258  0.00  0.00     0.119 A 
ATOM     14  O   UNL d   1      14.679  16.006  -1.427  0.00  0.00    -0.300 OA
ATOM     15  C   UNL d   1      15.101  16.662  -2.507  0.00  0.00     0.119 A 
ATOM     16  C   UNL d   1      15.134  16.647  -1.179  0.00  0.00     0.304 A 
ATOM     17  O   UNL d   1      15.394  17.051  -1.844  0.00  0.00    -0.300 OA
ATOM     18  C   UNL d   1      15.181  16.815  -3.313  0.00  0.00     0.026 A 
ATOM     19  C   UNL d   1      14.818  16.320  -3.859  0.00  0.00     0.004 A 
ENDBRANCH  10  11
ENDBRANCH   9  10
ENDBRANCH   7   9
ENDBRANCH   3   7
BRANCH   1  20
ATOM     20  S   UNL d   1      13.802  12.252  -2.316  0.00  0.00     0.271 S 
ATOM     21  O   UNL d   1      14.535  12.584  -2.526  0.00  0.00    -0.200 OA
ATOM     22  O   UNL d   1      13.070  11.918  -2.103  0.00  0.00    -0.200 OA
BRANCH  20  23
ATOM     23  N   UNL d   1      14.138  12.107  -1.570  0.00  0.00    -0.229 N 
ATOM     24  C   UNL d   1      14.965  12.150  -1.475  0.00  0.00     0.092 A 
ATOM     25  C   UNL d   1      15.288  12.005  -0.730  0.00  0.00     0.020 A 
ATOM     26  C   UNL d   1      14.810  11.819  -0.078  0.00  0.00     0.003 A 
ATOM     27  C   UNL d   1      13.995  11.779  -0.182  0.00  0.00     0.020 A 
ATOM     28  C   UNL d   1      13.658  11.923  -0.928  0.00  0.00     0.092 A 
ENDBRANCH  20  23
ENDBRANCH   1  20
TORSDOF 6
ENDMDL
