MODEL 1
REMARK VINA RESULT:      -7.4      0.000      0.000
REMARK  3 active torsions:
REMARK  status: ('A' for Active; 'I' for Inactive)
REMARK    1  A    between atoms: S_8  and  C_1 
REMARK    2  A    between atoms: C_7  and  C_12 
REMARK    3  A    between atoms: C_12  and  S_8 
ROOT
ATOM      1  C   UNL d   1      53.239  32.191  53.470  0.00  0.00     0.141 A 
ATOM      2  N   UNL d   1      53.668  31.686  53.945  0.00  0.00    -0.232 NA
ATOM      3  S   UNL d   1      52.763  31.758  52.979  0.00  0.00    -0.060 SA
ATOM      4  C   UNL d   1      53.448  30.932  53.736  0.00  0.00     0.088 A 
ATOM      5  C   UNL d   1      52.888  30.977  53.139  0.00  0.00     0.049 A 
ATOM      6  C   UNL d   1      53.697  30.194  54.027  0.00  0.00     0.020 A 
ATOM      7  C   UNL d   1      52.573  30.283  52.828  0.00  0.00     0.008 A 
ATOM      8  C   UNL d   1      53.369  29.497  53.703  0.00  0.00     0.002 A 
ATOM      9  C   UNL d   1      52.809  29.541  53.105  0.00  0.00     0.001 A 
ENDROOT
BRANCH   1  10
ATOM     10  S   UNL d   1      53.284  33.016  53.489  0.00  0.00    -0.060 SA
BRANCH  10  11
ATOM     11  C   UNL d   1      53.035  33.434  54.144  0.00  0.00     0.044 C 
BRANCH  11  12
ATOM     12  C   UNL d   1      53.027  34.272  54.142  0.00  0.00     0.036 A 
ATOM     13  S   UNL d   1      53.236  34.679  54.831  0.00  0.00    -0.086 SA
ATOM     14  C   UNL d   1      53.177  35.479  54.662  0.00  0.00     0.035 A 
ATOM     15  C   UNL d   1      52.934  35.563  53.875  0.00  0.00     0.007 A 
ATOM     16  C   UNL d   1      52.842  34.808  53.556  0.00  0.00     0.007 A 
ENDBRANCH  11  12
ENDBRANCH  10  11
ENDBRANCH   1  10
TORSDOF 3
ENDMDL
MODEL 2
REMARK VINA RESULT:      -7.3      0.830      4.250
REMARK  3 active torsions:
REMARK  status: ('A' for Active; 'I' for Inactive)
REMARK    1  A    between atoms: S_8  and  C_1 
REMARK    2  A    between atoms: C_7  and  C_12 
REMARK    3  A    between atoms: C_12  and  S_8 
ROOT
ATOM      1  C   UNL d   1      53.490  32.826  53.887  0.00  0.00     0.141 A 
ATOM      2  N   UNL d   1      53.143  33.307  53.326  0.00  0.00    -0.232 NA
ATOM      3  S   UNL d   1      53.643  33.260  54.553  0.00  0.00    -0.060 SA
ATOM      4  C   UNL d   1      53.086  34.045  53.661  0.00  0.00     0.088 A 
ATOM      5  C   UNL d   1      53.395  34.016  54.420  0.00  0.00     0.049 A 
ATOM      6  C   UNL d   1      52.781  34.757  53.356  0.00  0.00     0.020 A 
ATOM      7  C   UNL d   1      53.402  34.698  54.880  0.00  0.00     0.008 A 
ATOM      8  C   UNL d   1      52.794  35.442  53.833  0.00  0.00     0.002 A 
ATOM      9  C   UNL d   1      53.104  35.413  54.592  0.00  0.00     0.001 A 
ENDROOT
BRANCH   1  10
ATOM     10  S   UNL d   1      53.657  32.024  53.788  0.00  0.00    -0.060 SA
BRANCH  10  11
ATOM     11  C   UNL d   1      53.161  31.542  53.354  0.00  0.00     0.044 C 
BRANCH  11  12
ATOM     12  C   UNL d   1      53.173  30.710  53.454  0.00  0.00     0.036 A 
ATOM     13  S   UNL d   1      52.673  30.241  52.993  0.00  0.00    -0.086 SA
ATOM     14  C   UNL d   1      52.807  29.462  53.211  0.00  0.00     0.035 A 
ATOM     15  C   UNL d   1      53.387  29.453  53.802  0.00  0.00     0.007 A 
ATOM     16  C   UNL d   1      53.611  30.233  53.949  0.00  0.00     0.007 A 
ENDBRANCH  11  12
ENDBRANCH  10  11
ENDBRANCH   1  10
TORSDOF 3
ENDMDL
MODEL 3
REMARK VINA RESULT:      -6.9      2.239      3.308
REMARK  3 active torsions:
REMARK  status: ('A' for Active; 'I' for Inactive)
REMARK    1  A    between atoms: S_8  and  C_1 
REMARK    2  A    between atoms: C_7  and  C_12 
REMARK    3  A    between atoms: C_12  and  S_8 
ROOT
ATOM      1  C   UNL d   1      52.523  33.902  53.481  0.00  0.00     0.141 A 
ATOM      2  N   UNL d   1      52.792  33.141  53.600  0.00  0.00    -0.232 NA
ATOM      3  S   UNL d   1      52.949  34.412  53.943  0.00  0.00    -0.060 SA
ATOM      4  C   UNL d   1      53.392  33.193  54.146  0.00  0.00     0.088 A 
ATOM      5  C   UNL d   1      53.489  33.980  54.357  0.00  0.00     0.049 A 
ATOM      6  C   UNL d   1      53.872  32.603  54.482  0.00  0.00     0.020 A 
ATOM      7  C   UNL d   1      54.067  34.181  54.907  0.00  0.00     0.008 A 
ATOM      8  C   UNL d   1      54.455  32.821  55.039  0.00  0.00     0.002 A 
ATOM      9  C   UNL d   1      54.553  33.607  55.251  0.00  0.00     0.001 A 
ENDROOT
BRANCH   1  10
ATOM     10  S   UNL d   1      51.912  34.116  52.968  0.00  0.00    -0.060 SA
BRANCH  10  11
ATOM     11  C   UNL d   1      51.131  34.035  53.189  0.00  0.00     0.044 C 
BRANCH  11  12
ATOM     12  C   UNL d   1      50.511  34.237  52.663  0.00  0.00     0.036 A 
ATOM     13  S   UNL d   1      49.838  34.616  52.957  0.00  0.00    -0.086 SA
ATOM     14  C   UNL d   1      49.337  34.740  52.321  0.00  0.00     0.035 A 
ATOM     15  C   UNL d   1      49.698  34.440  51.640  0.00  0.00     0.007 A 
ATOM     16  C   UNL d   1      50.430  34.127  51.859  0.00  0.00     0.007 A 
ENDBRANCH  11  12
ENDBRANCH  10  11
ENDBRANCH   1  10
TORSDOF 3
ENDMDL
MODEL 4
REMARK VINA RESULT:      -6.6      2.524      3.693
REMARK  3 active torsions:
REMARK  status: ('A' for Active; 'I' for Inactive)
REMARK    1  A    between atoms: S_8  and  C_1 
REMARK    2  A    between atoms: C_7  and  C_12 
REMARK    3  A    between atoms: C_12  and  S_8 
ROOT
ATOM      1  C   UNL d   1      52.036  34.275  53.259  0.00  0.00     0.141 A 
ATOM      2  N   UNL d   1      51.318  34.496  53.577  0.00  0.00    -0.232 NA
ATOM      3  S   UNL d   1      51.940  34.105  52.474  0.00  0.00    -0.060 SA
ATOM      4  C   UNL d   1      50.778  34.459  52.971  0.00  0.00     0.088 A 
ATOM      5  C   UNL d   1      51.163  34.217  52.289  0.00  0.00     0.049 A 
ATOM      6  C   UNL d   1      49.962  34.620  52.961  0.00  0.00     0.020 A 
ATOM      7  C   UNL d   1      50.735  34.135  51.591  0.00  0.00     0.008 A 
ATOM      8  C   UNL d   1      49.539  34.533  52.246  0.00  0.00     0.002 A 
ATOM      9  C   UNL d   1      49.924  34.291  51.564  0.00  0.00     0.001 A 
ENDROOT
BRANCH   1  10
ATOM     10  S   UNL d   1      52.748  34.233  53.676  0.00  0.00    -0.060 SA
BRANCH  10  11
ATOM     11  C   UNL d   1      52.965  33.550  54.067  0.00  0.00     0.044 C 
BRANCH  11  12
ATOM     12  C   UNL d   1      53.670  33.518  54.519  0.00  0.00     0.036 A 
ATOM     13  S   UNL d   1      53.944  32.787  54.789  0.00  0.00    -0.086 SA
ATOM     14  C   UNL d   1      54.634  32.930  55.208  0.00  0.00     0.035 A 
ATOM     15  C   UNL d   1      54.783  33.744  55.196  0.00  0.00     0.007 A 
ATOM     16  C   UNL d   1      54.179  34.105  54.765  0.00  0.00     0.007 A 
ENDBRANCH  11  12
ENDBRANCH  10  11
ENDBRANCH   1  10
TORSDOF 3
ENDMDL
MODEL 5
REMARK VINA RESULT:      -6.4      1.593      1.906
REMARK  3 active torsions:
REMARK  status: ('A' for Active; 'I' for Inactive)
REMARK    1  A    between atoms: S_8  and  C_1 
REMARK    2  A    between atoms: C_7  and  C_12 
REMARK    3  A    between atoms: C_12  and  S_8 
ROOT
ATOM      1  C   UNL d   1      52.664  32.044  53.005  0.00  0.00     0.141 A 
ATOM      2  N   UNL d   1      52.377  31.336  52.718  0.00  0.00    -0.232 NA
ATOM      3  S   UNL d   1      53.254  31.898  53.538  0.00  0.00    -0.060 SA
ATOM      4  C   UNL d   1      52.804  30.751  53.087  0.00  0.00     0.088 A 
ATOM      5  C   UNL d   1      53.346  31.099  53.594  0.00  0.00     0.049 A 
ATOM      6  C   UNL d   1      52.761  29.923  53.018  0.00  0.00     0.020 A 
ATOM      7  C   UNL d   1      53.850  30.621  54.036  0.00  0.00     0.008 A 
ATOM      8  C   UNL d   1      53.278  29.449  53.472  0.00  0.00     0.002 A 
ATOM      9  C   UNL d   1      53.820  29.797  53.980  0.00  0.00     0.001 A 
ENDROOT
BRANCH   1  10
ATOM     10  S   UNL d   1      52.391  32.792  52.783  0.00  0.00    -0.060 SA
BRANCH  10  11
ATOM     11  C   UNL d   1      51.829  33.182  53.227  0.00  0.00     0.044 C 
BRANCH  11  12
ATOM     12  C   UNL d   1      51.309  33.736  52.873  0.00  0.00     0.036 A 
ATOM     13  S   UNL d   1      50.611  33.942  53.264  0.00  0.00    -0.086 SA
ATOM     14  C   UNL d   1      50.223  34.487  52.789  0.00  0.00     0.035 A 
ATOM     15  C   UNL d   1      50.680  34.614  52.111  0.00  0.00     0.007 A 
ATOM     16  C   UNL d   1      51.355  34.144  52.168  0.00  0.00     0.007 A 
ENDBRANCH  11  12
ENDBRANCH  10  11
ENDBRANCH   1  10
TORSDOF 3
ENDMDL
MODEL 6
REMARK VINA RESULT:      -5.2     10.317     10.568
REMARK  3 active torsions:
REMARK  status: ('A' for Active; 'I' for Inactive)
REMARK    1  A    between atoms: S_8  and  C_1 
REMARK    2  A    between atoms: C_7  and  C_12 
REMARK    3  A    between atoms: C_12  and  S_8 
ROOT
ATOM      1  C   UNL d   1      44.923  30.089  59.058  0.00  0.00     0.141 A 
ATOM      2  N   UNL d   1      45.141  29.312  58.941  0.00  0.00    -0.232 NA
ATOM      3  S   UNL d   1      44.740  30.426  58.346  0.00  0.00    -0.060 SA
ATOM      4  C   UNL d   1      45.088  29.177  58.142  0.00  0.00     0.088 A 
ATOM      5  C   UNL d   1      44.840  29.866  57.774  0.00  0.00     0.049 A 
ATOM      6  C   UNL d   1      45.241  28.491  57.696  0.00  0.00     0.020 A 
ATOM      7  C   UNL d   1      44.743  29.875  56.956  0.00  0.00     0.008 A 
ATOM      8  C   UNL d   1      45.138  28.513  56.867  0.00  0.00     0.002 A 
ATOM      9  C   UNL d   1      44.890  29.203  56.499  0.00  0.00     0.001 A 
ENDROOT
BRANCH   1  10
ATOM     10  S   UNL d   1      44.894  30.470  59.791  0.00  0.00    -0.060 SA
BRANCH  10  11
ATOM     11  C   UNL d   1      44.687  30.064  60.467  0.00  0.00     0.044 C 
BRANCH  11  12
ATOM     12  C   UNL d   1      44.585  30.464  61.196  0.00  0.00     0.036 A 
ATOM     13  S   UNL d   1      44.565  30.028  61.897  0.00  0.00    -0.086 SA
ATOM     14  C   UNL d   1      44.460  30.564  62.509  0.00  0.00     0.035 A 
ATOM     15  C   UNL d   1      44.415  31.325  62.186  0.00  0.00     0.007 A 
ATOM     16  C   UNL d   1      44.494  31.256  61.367  0.00  0.00     0.007 A 
ENDBRANCH  11  12
ENDBRANCH  10  11
ENDBRANCH   1  10
TORSDOF 3
ENDMDL
MODEL 7
REMARK VINA RESULT:      -5.0      3.126      4.421
REMARK  3 active torsions:
REMARK  status: ('A' for Active; 'I' for Inactive)
REMARK    1  A    between atoms: S_8  and  C_1 
REMARK    2  A    between atoms: C_7  and  C_12 
REMARK    3  A    between atoms: C_12  and  S_8 
ROOT
ATOM      1  C   UNL d   1      50.634  34.193  52.769  0.00  0.00     0.141 A 
ATOM      2  N   UNL d   1      50.049  34.646  53.115  0.00  0.00    -0.232 NA
ATOM      3  S   UNL d   1      50.440  34.052  51.996  0.00  0.00    -0.060 SA
ATOM      4  C   UNL d   1      49.492  34.780  52.539  0.00  0.00     0.088 A 
ATOM      5  C   UNL d   1      49.734  34.412  51.847  0.00  0.00     0.049 A 
ATOM      6  C   UNL d   1      48.777  35.203  52.564  0.00  0.00     0.020 A 
ATOM      7  C   UNL d   1      49.262  34.466  51.175  0.00  0.00     0.008 A 
ATOM      8  C   UNL d   1      48.307  35.250  51.875  0.00  0.00     0.002 A 
ATOM      9  C   UNL d   1      48.549  34.883  51.183  0.00  0.00     0.001 A 
ENDROOT
BRANCH   1  10
ATOM     10  S   UNL d   1      51.315  33.923  53.151  0.00  0.00    -0.060 SA
BRANCH  10  11
ATOM     11  C   UNL d   1      51.919  34.436  53.342  0.00  0.00     0.044 C 
BRANCH  11  12
ATOM     12  C   UNL d   1      52.571  34.181  53.803  0.00  0.00     0.036 A 
ATOM     13  S   UNL d   1      53.028  34.742  54.202  0.00  0.00    -0.086 SA
ATOM     14  C   UNL d   1      53.616  34.332  54.600  0.00  0.00     0.035 A 
ATOM     15  C   UNL d   1      53.521  33.525  54.447  0.00  0.00     0.007 A 
ATOM     16  C   UNL d   1      52.869  33.436  53.950  0.00  0.00     0.007 A 
ENDBRANCH  11  12
ENDBRANCH  10  11
ENDBRANCH   1  10
TORSDOF 3
ENDMDL
MODEL 8
REMARK VINA RESULT:      -5.0      1.873      4.138
REMARK  3 active torsions:
REMARK  status: ('A' for Active; 'I' for Inactive)
REMARK    1  A    between atoms: S_8  and  C_1 
REMARK    2  A    between atoms: C_7  and  C_12 
REMARK    3  A    between atoms: C_12  and  S_8 
ROOT
ATOM      1  C   UNL d   1      52.010  32.903  53.167  0.00  0.00     0.141 A 
ATOM      2  N   UNL d   1      51.354  33.123  53.599  0.00  0.00    -0.232 NA
ATOM      3  S   UNL d   1      52.018  33.307  52.466  0.00  0.00    -0.060 SA
ATOM      4  C   UNL d   1      50.958  33.672  53.150  0.00  0.00     0.088 A 
ATOM      5  C   UNL d   1      51.368  33.786  52.449  0.00  0.00     0.049 A 
ATOM      6  C   UNL d   1      50.256  34.091  53.300  0.00  0.00     0.020 A 
ATOM      7  C   UNL d   1      51.079  34.320  51.894  0.00  0.00     0.008 A 
ATOM      8  C   UNL d   1      49.972  34.630  52.729  0.00  0.00     0.002 A 
ATOM      9  C   UNL d   1      50.382  34.744  52.028  0.00  0.00     0.001 A 
ENDROOT
BRANCH   1  10
ATOM     10  S   UNL d   1      52.577  32.352  53.409  0.00  0.00    -0.060 SA
BRANCH  10  11
ATOM     11  C   UNL d   1      52.793  31.732  52.924  0.00  0.00     0.044 C 
BRANCH  11  12
ATOM     12  C   UNL d   1      53.025  30.995  53.246  0.00  0.00     0.036 A 
ATOM     13  S   UNL d   1      53.717  30.950  53.696  0.00  0.00    -0.086 SA
ATOM     14  C   UNL d   1      53.798  30.169  53.933  0.00  0.00     0.035 A 
ATOM     15  C   UNL d   1      53.160  29.737  53.631  0.00  0.00     0.007 A 
ATOM     16  C   UNL d   1      52.682  30.256  53.204  0.00  0.00     0.007 A 
ENDBRANCH  11  12
ENDBRANCH  10  11
ENDBRANCH   1  10
TORSDOF 3
ENDMDL
MODEL 9
REMARK VINA RESULT:      -4.8     10.521     11.313
REMARK  3 active torsions:
REMARK  status: ('A' for Active; 'I' for Inactive)
REMARK    1  A    between atoms: S_8  and  C_1 
REMARK    2  A    between atoms: C_7  and  C_12 
REMARK    3  A    between atoms: C_12  and  S_8 
ROOT
ATOM      1  C   UNL d   1      44.585  29.505  59.518  0.00  0.00     0.141 A 
ATOM      2  N   UNL d   1      44.415  29.120  60.217  0.00  0.00    -0.232 NA
ATOM      3  S   UNL d   1      44.710  30.290  59.668  0.00  0.00    -0.060 SA
ATOM      4  C   UNL d   1      44.440  29.684  60.801  0.00  0.00     0.088 A 
ATOM      5  C   UNL d   1      44.622  30.408  60.461  0.00  0.00     0.049 A 
ATOM      6  C   UNL d   1      44.314  29.623  61.621  0.00  0.00     0.020 A 
ATOM      7  C   UNL d   1      44.680  31.076  60.939  0.00  0.00     0.008 A 
ATOM      8  C   UNL d   1      44.376  30.308  62.095  0.00  0.00     0.002 A 
ATOM      9  C   UNL d   1      44.559  31.031  61.756  0.00  0.00     0.001 A 
ENDROOT
BRANCH   1  10
ATOM     10  S   UNL d   1      44.621  29.147  58.774  0.00  0.00    -0.060 SA
BRANCH  10  11
ATOM     11  C   UNL d   1      44.965  28.413  58.679  0.00  0.00     0.044 C 
BRANCH  11  12
ATOM     12  C   UNL d   1      45.021  28.060  57.921  0.00  0.00     0.036 A 
ATOM     13  S   UNL d   1      45.461  27.366  57.831  0.00  0.00    -0.086 SA
ATOM     14  C   UNL d   1      45.415  27.155  57.040  0.00  0.00     0.035 A 
ATOM     15  C   UNL d   1      44.950  27.715  56.646  0.00  0.00     0.007 A 
ATOM     16  C   UNL d   1      44.708  28.277  57.200  0.00  0.00     0.007 A 
ENDBRANCH  11  12
ENDBRANCH  10  11
ENDBRANCH   1  10
TORSDOF 3
ENDMDL
