MODEL 1
REMARK VINA RESULT:      -5.3      0.000      0.000
REMARK  3 active torsions:
REMARK  status: ('A' for Active; 'I' for Inactive)
REMARK    1  A    between atoms: C_5  and  C_4 
REMARK    2  A    between atoms: C_6  and  C_5 
REMARK       I    between atoms: N_9  and  C_6 
REMARK    3  A    between atoms: C_12  and  N_9 
ROOT
ATOM      1  N   UNL d   1     -41.605-121.628 -53.128  0.00  0.00    -0.205 NA
ATOM      2  C   UNL d   1     -41.457-121.600 -52.316  0.00  0.00     0.297 A 
ATOM      3  N   UNL d   1     -41.228-123.021 -52.274  0.00  0.00    -0.239 NA
ATOM      4  C   UNL d   1     -41.272-122.285 -51.896  0.00  0.00     0.144 A 
ATOM      5  C   UNL d   1     -41.563-122.362 -53.513  0.00  0.00     0.102 A 
ATOM      6  C   UNL d   1     -41.378-123.047 -53.093  0.00  0.00     0.099 A 
ATOM      7  O   UNL d   1     -41.499-120.869 -51.935  0.00  0.00    -0.264 OA
ATOM      8  C   UNL d   1     -41.711-122.397 -54.334  0.00  0.00     0.021 A 
ATOM      9  C   UNL d   1     -41.335-123.789 -53.480  0.00  0.00     0.021 A 
ATOM     10  C   UNL d   1     -41.669-123.128 -54.715  0.00  0.00     0.002 A 
ATOM     11  C   UNL d   1     -41.484-123.812 -54.295  0.00  0.00     0.002 A 
ENDROOT
BRANCH   4  12
ATOM     12  C   UNL d   1     -41.123-122.261 -51.081  0.00  0.00     0.086 C 
BRANCH  12  13
ATOM     13  C   UNL d   1     -41.557-122.751 -50.576  0.00  0.00     0.281 C 
ATOM     14  N   UNL d   1     -42.059-122.413 -50.049  0.00  0.00    -0.208 NA
ATOM     15  O   UNL d   1     -41.480-123.560 -50.608  0.00  0.00    -0.265 OA
BRANCH  14  16
ATOM     16  C   UNL d   1     -42.509-122.893 -49.526  0.00  0.00     0.085 A 
ATOM     17  C   UNL d   1     -43.212-123.204 -49.758  0.00  0.00     0.019 A 
ATOM     18  C   UNL d   1     -43.654-123.679 -49.238  0.00  0.00     0.002 A 
ATOM     19  C   UNL d   1     -43.356-123.817 -48.493  0.00  0.00     0.000 A 
ATOM     20  C   UNL d   1     -42.654-123.509 -48.254  0.00  0.00     0.002 A 
ATOM     21  C   UNL d   1     -42.231-123.047 -48.771  0.00  0.00     0.019 A 
ENDBRANCH  14  16
ENDBRANCH  12  13
ENDBRANCH   4  12
TORSDOF 3
ENDMDL
MODEL 2
REMARK VINA RESULT:      -5.3      0.888      4.335
REMARK  3 active torsions:
REMARK  status: ('A' for Active; 'I' for Inactive)
REMARK    1  A    between atoms: C_5  and  C_4 
REMARK    2  A    between atoms: C_6  and  C_5 
REMARK       I    between atoms: N_9  and  C_6 
REMARK    3  A    between atoms: C_12  and  N_9 
ROOT
ATOM      1  N   UNL d   1     -42.868-122.353 -49.947  0.00  0.00    -0.205 NA
ATOM      2  C   UNL d   1     -42.552-122.035 -50.641  0.00  0.00     0.297 A 
ATOM      3  N   UNL d   1     -41.289-122.685 -50.402  0.00  0.00    -0.239 NA
ATOM      4  C   UNL d   1     -41.776-122.199 -50.864  0.00  0.00     0.144 A 
ATOM      5  C   UNL d   1     -42.387-122.841 -49.479  0.00  0.00     0.102 A 
ATOM      6  C   UNL d   1     -41.611-123.004 -49.703  0.00  0.00     0.099 A 
ATOM      7  O   UNL d   1     -43.032-121.550 -51.105  0.00  0.00    -0.264 OA
ATOM      8  C   UNL d   1     -42.702-123.164 -48.777  0.00  0.00     0.021 A 
ATOM      9  C   UNL d   1     -41.123-123.497 -49.232  0.00  0.00     0.021 A 
ATOM     10  C   UNL d   1     -42.221-123.650 -48.313  0.00  0.00     0.002 A 
ATOM     11  C   UNL d   1     -41.445-123.813 -48.537  0.00  0.00     0.002 A 
ENDROOT
BRANCH   4  12
ATOM     12  C   UNL d   1     -41.454-121.883 -51.559  0.00  0.00     0.086 C 
BRANCH  12  13
ATOM     13  C   UNL d   1     -41.527-122.303 -52.268  0.00  0.00     0.281 C 
ATOM     14  N   UNL d   1     -41.410-121.915 -52.960  0.00  0.00    -0.208 NA
ATOM     15  O   UNL d   1     -41.713-123.095 -52.268  0.00  0.00    -0.265 OA
BRANCH  14  16
ATOM     16  C   UNL d   1     -41.480-122.325 -53.691  0.00  0.00     0.085 A 
ATOM     17  C   UNL d   1     -41.134-123.043 -53.794  0.00  0.00     0.019 A 
ATOM     18  C   UNL d   1     -41.206-123.444 -54.518  0.00  0.00     0.002 A 
ATOM     19  C   UNL d   1     -41.633-123.092 -55.115  0.00  0.00     0.000 A 
ATOM     20  C   UNL d   1     -41.981-122.375 -55.019  0.00  0.00     0.002 A 
ATOM     21  C   UNL d   1     -41.905-121.992 -54.308  0.00  0.00     0.019 A 
ENDBRANCH  14  16
ENDBRANCH  12  13
ENDBRANCH   4  12
TORSDOF 3
ENDMDL
MODEL 3
REMARK VINA RESULT:      -4.6      0.992      1.628
REMARK  3 active torsions:
REMARK  status: ('A' for Active; 'I' for Inactive)
REMARK    1  A    between atoms: C_5  and  C_4 
REMARK    2  A    between atoms: C_6  and  C_5 
REMARK       I    between atoms: N_9  and  C_6 
REMARK    3  A    between atoms: C_12  and  N_9 
ROOT
ATOM      1  N   UNL d   1     -41.612-123.371 -53.827  0.00  0.00    -0.205 NA
ATOM      2  C   UNL d   1     -41.411-123.203 -53.044  0.00  0.00     0.297 A 
ATOM      3  N   UNL d   1     -41.785-121.823 -53.208  0.00  0.00    -0.239 NA
ATOM      4  C   UNL d   1     -41.496-122.442 -52.740  0.00  0.00     0.144 A 
ATOM      5  C   UNL d   1     -41.903-122.755 -54.302  0.00  0.00     0.102 A 
ATOM      6  C   UNL d   1     -41.987-121.994 -53.998  0.00  0.00     0.099 A 
ATOM      7  O   UNL d   1     -41.123-123.817 -52.574  0.00  0.00    -0.264 OA
ATOM      8  C   UNL d   1     -42.108-122.919 -55.095  0.00  0.00     0.021 A 
ATOM      9  C   UNL d   1     -42.280-121.371 -54.475  0.00  0.00     0.021 A 
ATOM     10  C   UNL d   1     -42.396-122.305 -55.565  0.00  0.00     0.002 A 
ATOM     11  C   UNL d   1     -42.481-121.544 -55.261  0.00  0.00     0.002 A 
ENDROOT
BRANCH   4  12
ATOM     12  C   UNL d   1     -41.295-122.270 -51.955  0.00  0.00     0.086 C 
BRANCH  12  13
ATOM     13  C   UNL d   1     -41.855-122.389 -51.357  0.00  0.00     0.281 C 
ATOM     14  N   UNL d   1     -41.642-122.811 -50.709  0.00  0.00    -0.208 NA
ATOM     15  O   UNL d   1     -42.607-122.087 -51.421  0.00  0.00    -0.265 OA
BRANCH  14  16
ATOM     16  C   UNL d   1     -42.197-122.943 -50.091  0.00  0.00     0.085 A 
ATOM     17  C   UNL d   1     -42.253-122.432 -49.473  0.00  0.00     0.019 A 
ATOM     18  C   UNL d   1     -42.802-122.567 -48.865  0.00  0.00     0.002 A 
ATOM     19  C   UNL d   1     -43.278-123.226 -48.912  0.00  0.00     0.000 A 
ATOM     20  C   UNL d   1     -43.227-123.741 -49.526  0.00  0.00     0.002 A 
ATOM     21  C   UNL d   1     -42.687-123.600 -50.115  0.00  0.00     0.019 A 
ENDBRANCH  14  16
ENDBRANCH  12  13
ENDBRANCH   4  12
TORSDOF 3
ENDMDL
