MODEL 1
REMARK VINA RESULT:      24.6      0.000      0.000
REMARK  4 active torsions:
REMARK  status: ('A' for Active; 'I' for Inactive)
REMARK    1  A    between atoms: C_5  and  N_1 
REMARK    2  A    between atoms: C_9  and  C_3 
REMARK    3  A    between atoms: C_7  and  C_5 
REMARK    4  A    between atoms: O_10  and  C_8 
ROOT
ATOM      1  N   UNL d   1      46.461 -18.171  43.271  0.00  0.00    -0.289 N 
ATOM      2  N   UNL d   1      46.152 -19.268  42.546  0.00  0.00    -0.227 NA
ATOM      3  C   UNL d   1      46.257 -18.438  42.508  0.00  0.00     0.148 A 
ATOM      4  C   UNL d   1      46.481 -18.831  43.784  0.00  0.00     0.083 A 
ATOM      5  C   UNL d   1      46.290 -19.511  43.336  0.00  0.00     0.099 A 
ATOM      6  C   UNL d   1      46.646 -18.917  44.595  0.00  0.00     0.019 A 
ATOM      7  C   UNL d   1      46.265 -20.254  43.692  0.00  0.00     0.021 A 
ATOM      8  C   UNL d   1      46.622 -19.662  44.955  0.00  0.00     0.002 A 
ATOM      9  C   UNL d   1      46.432 -20.329  44.505  0.00  0.00     0.002 A 
ENDROOT
BRANCH   1  10
ATOM     10  C   UNL d   1      46.617 -17.391  43.494  0.00  0.00     0.083 C 
BRANCH  10  11
ATOM     11  C   UNL d   1      46.090 -16.978  43.960  0.00  0.00     0.040 A 
ATOM     12  C   UNL d   1      46.061 -16.164  43.915  0.00  0.00     0.096 A 
ATOM     13  C   UNL d   1      45.529 -15.745  44.385  0.00  0.00     0.024 A 
ATOM     14  C   UNL d   1      45.025 -16.148  44.901  0.00  0.00     0.002 A 
ATOM     15  C   UNL d   1      45.056 -16.971  44.944  0.00  0.00     0.000 A 
ATOM     16  C   UNL d   1      45.589 -17.385  44.472  0.00  0.00     0.004 A 
BRANCH  12  17
ATOM     17  O   UNL d   1      46.559 -15.763  43.405  0.00  0.00    -0.328 OA
ATOM     18  C   UNL d   1      46.568 -14.935  43.391  0.00  0.00     0.181 C 
ENDBRANCH  12  17
ENDBRANCH  10  11
ENDBRANCH   1  10
BRANCH   3  19
ATOM     19  C   UNL d   1      46.175 -17.971  41.835  0.00  0.00     0.037 C 
ATOM     20  C   UNL d   1      46.102 -18.327  41.096  0.00  0.00     0.003 C 
ENDBRANCH   3  19
TORSDOF 4
ENDMDL
MODEL 2
REMARK VINA RESULT:      26.7      0.793      2.036
REMARK  4 active torsions:
REMARK  status: ('A' for Active; 'I' for Inactive)
REMARK    1  A    between atoms: C_5  and  N_1 
REMARK    2  A    between atoms: C_9  and  C_3 
REMARK    3  A    between atoms: C_7  and  C_5 
REMARK    4  A    between atoms: O_10  and  C_8 
ROOT
ATOM      1  N   UNL d   1      46.587 -18.753  43.287  0.00  0.00    -0.289 N 
ATOM      2  N   UNL d   1      46.513 -20.088  43.093  0.00  0.00    -0.227 NA
ATOM      3  C   UNL d   1      46.577 -19.491  43.677  0.00  0.00     0.148 A 
ATOM      4  C   UNL d   1      46.531 -18.891  42.464  0.00  0.00     0.083 A 
ATOM      5  C   UNL d   1      46.485 -19.717  42.343  0.00  0.00     0.099 A 
ATOM      6  C   UNL d   1      46.515 -18.385  41.803  0.00  0.00     0.019 A 
ATOM      7  C   UNL d   1      46.425 -20.025  41.581  0.00  0.00     0.021 A 
ATOM      8  C   UNL d   1      46.454 -18.693  41.037  0.00  0.00     0.002 A 
ATOM      9  C   UNL d   1      46.409 -19.511  40.926  0.00  0.00     0.002 A 
ENDROOT
BRANCH   1  10
ATOM     10  C   UNL d   1      46.644 -18.010  43.643  0.00  0.00     0.083 C 
BRANCH  10  11
ATOM     11  C   UNL d   1      46.013 -17.697  44.054  0.00  0.00     0.040 A 
ATOM     12  C   UNL d   1      45.838 -16.903  43.985  0.00  0.00     0.096 A 
ATOM     13  C   UNL d   1      45.201 -16.585  44.401  0.00  0.00     0.024 A 
ATOM     14  C   UNL d   1      44.740 -17.069  44.886  0.00  0.00     0.002 A 
ATOM     15  C   UNL d   1      44.919 -17.871  44.954  0.00  0.00     0.000 A 
ATOM     16  C   UNL d   1      45.556 -18.184  44.537  0.00  0.00     0.004 A 
BRANCH  12  17
ATOM     17  O   UNL d   1      46.294 -16.422  43.505  0.00  0.00    -0.328 OA
ATOM     18  C   UNL d   1      46.309 -15.604  43.625  0.00  0.00     0.181 C 
ENDBRANCH  12  17
ENDBRANCH  10  11
ENDBRANCH   1  10
BRANCH   3  19
ATOM     19  C   UNL d   1      46.620 -19.612  44.490  0.00  0.00     0.037 C 
ATOM     20  C   UNL d   1      46.373 -20.329  44.811  0.00  0.00     0.003 C 
ENDBRANCH   3  19
TORSDOF 4
ENDMDL
