MODEL 1
REMARK VINA RESULT:     -11.2      0.000      0.000
REMARK  4 active torsions:
REMARK  status: ('A' for Active; 'I' for Inactive)
REMARK    1  A    between atoms: C_7  and  C_1 
REMARK    2  A    between atoms: O_10  and  C_2 
REMARK    3  A    between atoms: C_17  and  O_10 
REMARK    4  A    between atoms: C_19  and  C_12 
ROOT
ATOM      1  C   UNL d   1      53.768  33.057  54.024  0.00  0.00     0.197 A 
ATOM      2  C   UNL d   1      53.514  32.486  53.480  0.00  0.00     0.165 A 
ATOM      3  O   UNL d   1      53.314  33.726  54.130  0.00  0.00    -0.301 OA
ATOM      4  C   UNL d   1      52.812  32.600  53.058  0.00  0.00     0.222 A 
ATOM      5  C   UNL d   1      52.383  33.271  53.184  0.00  0.00     0.064 A 
ATOM      6  C   UNL d   1      52.638  33.843  53.728  0.00  0.00     0.106 A 
ATOM      7  C   UNL d   1      51.682  33.385  52.762  0.00  0.00     0.008 A 
ATOM      8  C   UNL d   1      52.183  34.512  53.834  0.00  0.00     0.067 A 
ATOM      9  C   UNL d   1      51.495  34.637  53.428  0.00  0.00     0.198 A 
ATOM     10  C   UNL d   1      51.240  34.065  52.884  0.00  0.00     0.039 A 
ATOM     11  O   UNL d   1      52.565  32.044  52.529  0.00  0.00    -0.284 OA
ATOM     12  O   UNL d   1      51.047  35.319  53.548  0.00  0.00    -0.286 OA
ENDROOT
BRANCH   2  13
ATOM     13  O   UNL d   1      53.961  31.802  53.359  0.00  0.00    -0.302 OA
BRANCH  13  14
ATOM     14  C   UNL d   1      53.627  31.063  53.492  0.00  0.00     0.100 A 
ATOM     15  C   UNL d   1      53.436  30.588  52.840  0.00  0.00     0.025 A 
ATOM     16  C   UNL d   1      53.109  29.864  52.971  0.00  0.00     0.002 A 
ATOM     17  C   UNL d   1      52.969  29.607  53.755  0.00  0.00     0.000 A 
ATOM     18  C   UNL d   1      53.160  30.077  54.377  0.00  0.00     0.002 A 
ATOM     19  C   UNL d   1      53.493  30.816  54.244  0.00  0.00     0.025 A 
ENDBRANCH  13  14
ENDBRANCH   2  13
BRANCH   1  20
ATOM     20  C   UNL d   1      54.469  32.942  54.445  0.00  0.00     0.442 C 
ATOM     21  F   UNL d   1      55.174  32.824  54.875  0.00  0.00    -0.164 F 
ATOM     22  F   UNL d   1      54.033  32.803  55.132  0.00  0.00    -0.164 F 
ATOM     23  F   UNL d   1      54.903  33.081  53.755  0.00  0.00    -0.164 F 
ENDBRANCH   1  20
BRANCH  10  24
ATOM     24  C   UNL d   1      50.539  34.179  52.462  0.00  0.00     0.003 C 
ATOM     25  C   UNL d   1      50.554  34.182  51.639  0.00  0.00     0.000 C 
ENDBRANCH  10  24
TORSDOF 4
ENDMDL
MODEL 2
REMARK VINA RESULT:     -10.6      1.593      3.839
REMARK  4 active torsions:
REMARK  status: ('A' for Active; 'I' for Inactive)
REMARK    1  A    between atoms: C_7  and  C_1 
REMARK    2  A    between atoms: O_10  and  C_2 
REMARK    3  A    between atoms: C_17  and  O_10 
REMARK    4  A    between atoms: C_19  and  C_12 
ROOT
ATOM      1  C   UNL d   1      52.608  32.619  53.026  0.00  0.00     0.197 A 
ATOM      2  C   UNL d   1      53.381  32.600  53.324  0.00  0.00     0.165 A 
ATOM      3  O   UNL d   1      52.195  31.918  52.963  0.00  0.00    -0.301 OA
ATOM      4  C   UNL d   1      53.719  31.880  53.552  0.00  0.00     0.222 A 
ATOM      5  C   UNL d   1      53.286  31.204  53.479  0.00  0.00     0.064 A 
ATOM      6  C   UNL d   1      52.513  31.223  53.181  0.00  0.00     0.106 A 
ATOM      7  C   UNL d   1      53.624  30.484  53.707  0.00  0.00     0.008 A 
ATOM      8  C   UNL d   1      52.101  30.522  53.118  0.00  0.00     0.067 A 
ATOM      9  C   UNL d   1      52.418  29.811  53.337  0.00  0.00     0.198 A 
ATOM     10  C   UNL d   1      53.191  29.792  53.636  0.00  0.00     0.039 A 
ATOM     11  O   UNL d   1      54.470  31.862  53.843  0.00  0.00    -0.284 OA
ATOM     12  O   UNL d   1      51.987  29.111  53.268  0.00  0.00    -0.286 OA
ENDROOT
BRANCH   2  13
ATOM     13  O   UNL d   1      53.815  33.300  53.395  0.00  0.00    -0.302 OA
BRANCH  13  14
ATOM     14  C   UNL d   1      54.130  33.517  54.121  0.00  0.00     0.100 A 
ATOM     15  C   UNL d   1      54.955  33.530  54.210  0.00  0.00     0.025 A 
ATOM     16  C   UNL d   1      55.264  33.743  54.923  0.00  0.00     0.002 A 
ATOM     17  C   UNL d   1      54.752  33.945  55.554  0.00  0.00     0.000 A 
ATOM     18  C   UNL d   1      53.956  33.927  55.453  0.00  0.00     0.002 A 
ATOM     19  C   UNL d   1      53.641  33.710  54.727  0.00  0.00     0.025 A 
ENDBRANCH  13  14
ENDBRANCH   2  13
BRANCH   1  20
ATOM     20  C   UNL d   1      52.273  33.338  52.799  0.00  0.00     0.442 C 
ATOM     21  F   UNL d   1      51.937  34.065  52.564  0.00  0.00    -0.164 F 
ATOM     22  F   UNL d   1      52.749  33.346  52.124  0.00  0.00    -0.164 F 
ATOM     23  F   UNL d   1      51.797  33.327  53.475  0.00  0.00    -0.164 F 
ENDBRANCH   1  20
BRANCH  10  24
ATOM     24  C   UNL d   1      53.529  29.073  53.864  0.00  0.00     0.003 C 
ATOM     25  C   UNL d   1      53.559  28.871  54.662  0.00  0.00     0.000 C 
ENDBRANCH  10  24
TORSDOF 4
ENDMDL
MODEL 3
REMARK VINA RESULT:     -10.2      1.202      3.584
REMARK  4 active torsions:
REMARK  status: ('A' for Active; 'I' for Inactive)
REMARK    1  A    between atoms: C_7  and  C_1 
REMARK    2  A    between atoms: O_10  and  C_2 
REMARK    3  A    between atoms: C_17  and  O_10 
REMARK    4  A    between atoms: C_19  and  C_12 
ROOT
ATOM      1  C   UNL d   1      53.004  34.020  53.812  0.00  0.00     0.197 A 
ATOM      2  C   UNL d   1      52.577  33.847  53.123  0.00  0.00     0.165 A 
ATOM      3  O   UNL d   1      53.376  33.410  54.206  0.00  0.00    -0.301 OA
ATOM      4  C   UNL d   1      52.533  33.069  52.848  0.00  0.00     0.222 A 
ATOM      5  C   UNL d   1      52.911  32.486  53.258  0.00  0.00     0.064 A 
ATOM      6  C   UNL d   1      53.339  32.659  53.947  0.00  0.00     0.106 A 
ATOM      7  C   UNL d   1      52.867  31.707  52.983  0.00  0.00     0.008 A 
ATOM      8  C   UNL d   1      53.710  32.049  54.340  0.00  0.00     0.067 A 
ATOM      9  C   UNL d   1      53.676  31.283  54.083  0.00  0.00     0.198 A 
ATOM     10  C   UNL d   1      53.249  31.109  53.394  0.00  0.00     0.039 A 
ATOM     11  O   UNL d   1      52.118  32.900  52.178  0.00  0.00    -0.284 OA
ATOM     12  O   UNL d   1      54.058  30.677  54.493  0.00  0.00    -0.286 OA
ENDROOT
BRANCH   2  13
ATOM     13  O   UNL d   1      52.194  34.452  52.711  0.00  0.00    -0.302 OA
BRANCH  13  14
ATOM     14  C   UNL d   1      51.382  34.419  52.593  0.00  0.00     0.100 A 
ATOM     15  C   UNL d   1      51.095  34.325  51.821  0.00  0.00     0.025 A 
ATOM     16  C   UNL d   1      50.299  34.293  51.705  0.00  0.00     0.002 A 
ATOM     17  C   UNL d   1      49.781  34.354  52.360  0.00  0.00     0.000 A 
ATOM     18  C   UNL d   1      50.073  34.445  53.102  0.00  0.00     0.002 A 
ATOM     19  C   UNL d   1      50.885  34.478  53.220  0.00  0.00     0.025 A 
ENDBRANCH  13  14
ENDBRANCH   2  13
BRANCH   1  20
ATOM     20  C   UNL d   1      53.047  34.797  54.085  0.00  0.00     0.442 C 
ATOM     21  F   UNL d   1      53.086  35.583  54.367  0.00  0.00    -0.164 F 
ATOM     22  F   UNL d   1      52.578  34.594  54.734  0.00  0.00    -0.164 F 
ATOM     23  F   UNL d   1      53.516  34.998  53.435  0.00  0.00    -0.164 F 
ENDBRANCH   1  20
BRANCH  10  24
ATOM     24  C   UNL d   1      53.205  30.332  53.119  0.00  0.00     0.003 C 
ATOM     25  C   UNL d   1      52.475  29.953  53.078  0.00  0.00     0.000 C 
ENDBRANCH  10  24
TORSDOF 4
ENDMDL
MODEL 4
REMARK VINA RESULT:     -10.1      1.641      2.824
REMARK  4 active torsions:
REMARK  status: ('A' for Active; 'I' for Inactive)
REMARK    1  A    between atoms: C_7  and  C_1 
REMARK    2  A    between atoms: O_10  and  C_2 
REMARK    3  A    between atoms: C_17  and  O_10 
REMARK    4  A    between atoms: C_19  and  C_12 
ROOT
ATOM      1  C   UNL d   1      52.079  33.055  53.197  0.00  0.00     0.197 A 
ATOM      2  C   UNL d   1      52.677  32.490  53.098  0.00  0.00     0.165 A 
ATOM      3  O   UNL d   1      52.206  33.673  53.714  0.00  0.00    -0.301 OA
ATOM      4  C   UNL d   1      53.385  32.558  53.521  0.00  0.00     0.222 A 
ATOM      5  C   UNL d   1      53.482  33.180  54.026  0.00  0.00     0.064 A 
ATOM      6  C   UNL d   1      52.883  33.745  54.124  0.00  0.00     0.106 A 
ATOM      7  C   UNL d   1      54.189  33.248  54.448  0.00  0.00     0.008 A 
ATOM      8  C   UNL d   1      53.010  34.363  54.642  0.00  0.00     0.067 A 
ATOM      9  C   UNL d   1      53.697  34.443  55.061  0.00  0.00     0.198 A 
ATOM     10  C   UNL d   1      54.295  33.878  54.963  0.00  0.00     0.039 A 
ATOM     11  O   UNL d   1      53.967  32.009  53.425  0.00  0.00    -0.284 OA
ATOM     12  O   UNL d   1      53.808  35.074  55.581  0.00  0.00    -0.286 OA
ENDROOT
BRANCH   2  13
ATOM     13  O   UNL d   1      52.568  31.857  52.579  0.00  0.00    -0.302 OA
BRANCH  13  14
ATOM     14  C   UNL d   1      52.628  31.085  52.852  0.00  0.00     0.100 A 
ATOM     15  C   UNL d   1      53.259  30.616  52.588  0.00  0.00     0.025 A 
ATOM     16  C   UNL d   1      53.317  29.859  52.856  0.00  0.00     0.002 A 
ATOM     17  C   UNL d   1      52.745  29.563  53.390  0.00  0.00     0.000 A 
ATOM     18  C   UNL d   1      52.140  30.028  53.637  0.00  0.00     0.002 A 
ATOM     19  C   UNL d   1      52.080  30.800  53.364  0.00  0.00     0.025 A 
ENDBRANCH  13  14
ENDBRANCH   2  13
BRANCH   1  20
ATOM     20  C   UNL d   1      51.374  32.985  52.774  0.00  0.00     0.442 C 
ATOM     21  F   UNL d   1      50.663  32.916  52.342  0.00  0.00    -0.164 F 
ATOM     22  F   UNL d   1      51.765  33.216  52.085  0.00  0.00    -0.164 F 
ATOM     23  F   UNL d   1      50.985  32.754  53.467  0.00  0.00    -0.164 F 
ENDBRANCH   1  20
BRANCH  10  24
ATOM     24  C   UNL d   1      55.002  33.946  55.385  0.00  0.00     0.003 C 
ATOM     25  C   UNL d   1      55.720  33.818  55.002  0.00  0.00     0.000 C 
ENDBRANCH  10  24
TORSDOF 4
ENDMDL
MODEL 5
REMARK VINA RESULT:      -9.5      1.301      2.519
REMARK  4 active torsions:
REMARK  status: ('A' for Active; 'I' for Inactive)
REMARK    1  A    between atoms: C_7  and  C_1 
REMARK    2  A    between atoms: O_10  and  C_2 
REMARK    3  A    between atoms: C_17  and  O_10 
REMARK    4  A    between atoms: C_19  and  C_12 
ROOT
ATOM      1  C   UNL d   1      53.060  32.071  53.277  0.00  0.00     0.197 A 
ATOM      2  C   UNL d   1      53.116  32.557  53.946  0.00  0.00     0.165 A 
ATOM      3  O   UNL d   1      52.531  32.273  52.690  0.00  0.00    -0.301 OA
ATOM      4  C   UNL d   1      52.640  33.231  54.009  0.00  0.00     0.222 A 
ATOM      5  C   UNL d   1      52.126  33.405  53.413  0.00  0.00     0.064 A 
ATOM      6  C   UNL d   1      52.071  32.919  52.743  0.00  0.00     0.106 A 
ATOM      7  C   UNL d   1      51.651  34.079  53.475  0.00  0.00     0.008 A 
ATOM      8  C   UNL d   1      51.542  33.121  52.156  0.00  0.00     0.067 A 
ATOM      9  C   UNL d   1      51.071  33.777  52.203  0.00  0.00     0.198 A 
ATOM     10  C   UNL d   1      51.126  34.263  52.873  0.00  0.00     0.039 A 
ATOM     11  O   UNL d   1      52.694  33.704  54.660  0.00  0.00    -0.284 OA
ATOM     12  O   UNL d   1      50.541  33.967  51.600  0.00  0.00    -0.286 OA
ENDROOT
BRANCH   2  13
ATOM     13  O   UNL d   1      53.646  32.369  54.552  0.00  0.00    -0.302 OA
BRANCH  13  14
ATOM     14  C   UNL d   1      54.249  32.891  54.747  0.00  0.00     0.100 A 
ATOM     15  C   UNL d   1      54.309  33.155  55.531  0.00  0.00     0.025 A 
ATOM     16  C   UNL d   1      54.900  33.667  55.723  0.00  0.00     0.002 A 
ATOM     17  C   UNL d   1      55.438  33.920  55.133  0.00  0.00     0.000 A 
ATOM     18  C   UNL d   1      55.367  33.657  54.378  0.00  0.00     0.002 A 
ATOM     19  C   UNL d   1      54.764  33.135  54.183  0.00  0.00     0.025 A 
ENDBRANCH  13  14
ENDBRANCH   2  13
BRANCH   1  20
ATOM     20  C   UNL d   1      53.535  31.400  53.216  0.00  0.00     0.442 C 
ATOM     21  F   UNL d   1      54.012  30.717  53.159  0.00  0.00    -0.164 F 
ATOM     22  F   UNL d   1      53.055  31.011  53.764  0.00  0.00    -0.164 F 
ATOM     23  F   UNL d   1      54.015  31.791  52.668  0.00  0.00    -0.164 F 
ENDBRANCH   1  20
BRANCH  10  24
ATOM     24  C   UNL d   1      50.651  34.936  52.936  0.00  0.00     0.003 C 
ATOM     25  C   UNL d   1      49.926  34.890  53.323  0.00  0.00     0.000 C 
ENDBRANCH  10  24
TORSDOF 4
ENDMDL
MODEL 6
REMARK VINA RESULT:      -8.4      1.578      3.550
REMARK  4 active torsions:
REMARK  status: ('A' for Active; 'I' for Inactive)
REMARK    1  A    between atoms: C_7  and  C_1 
REMARK    2  A    between atoms: O_10  and  C_2 
REMARK    3  A    between atoms: C_17  and  O_10 
REMARK    4  A    between atoms: C_19  and  C_12 
ROOT
ATOM      1  C   UNL d   1      52.862  32.055  53.256  0.00  0.00     0.197 A 
ATOM      2  C   UNL d   1      52.644  32.810  52.993  0.00  0.00     0.165 A 
ATOM      3  O   UNL d   1      53.383  31.993  53.880  0.00  0.00    -0.301 OA
ATOM      4  C   UNL d   1      52.954  33.482  53.363  0.00  0.00     0.222 A 
ATOM      5  C   UNL d   1      53.468  33.389  53.977  0.00  0.00     0.064 A 
ATOM      6  C   UNL d   1      53.685  32.634  54.240  0.00  0.00     0.106 A 
ATOM      7  C   UNL d   1      53.778  34.061  54.347  0.00  0.00     0.008 A 
ATOM      8  C   UNL d   1      54.207  32.572  54.864  0.00  0.00     0.067 A 
ATOM      9  C   UNL d   1      54.519  33.220  55.235  0.00  0.00     0.198 A 
ATOM     10  C   UNL d   1      54.301  33.975  54.972  0.00  0.00     0.039 A 
ATOM     11  O   UNL d   1      52.742  34.217  53.108  0.00  0.00    -0.284 OA
ATOM     12  O   UNL d   1      55.045  33.139  55.865  0.00  0.00    -0.286 OA
ENDROOT
BRANCH   2  13
ATOM     13  O   UNL d   1      52.117  32.894  52.363  0.00  0.00    -0.302 OA
BRANCH  13  14
ATOM     14  C   UNL d   1      51.446  33.360  52.446  0.00  0.00     0.100 A 
ATOM     15  C   UNL d   1      51.318  33.975  51.904  0.00  0.00     0.025 A 
ATOM     16  C   UNL d   1      50.660  34.432  51.986  0.00  0.00     0.002 A 
ATOM     17  C   UNL d   1      50.123  34.279  52.610  0.00  0.00     0.000 A 
ATOM     18  C   UNL d   1      50.260  33.681  53.127  0.00  0.00     0.002 A 
ATOM     19  C   UNL d   1      50.931  33.214  53.043  0.00  0.00     0.025 A 
ENDBRANCH  13  14
ENDBRANCH   2  13
BRANCH   1  20
ATOM     20  C   UNL d   1      52.551  31.386  52.886  0.00  0.00     0.442 C 
ATOM     21  F   UNL d   1      52.233  30.708  52.517  0.00  0.00    -0.164 F 
ATOM     22  F   UNL d   1      52.039  31.272  53.524  0.00  0.00    -0.164 F 
ATOM     23  F   UNL d   1      53.065  31.502  52.249  0.00  0.00    -0.164 F 
ENDBRANCH   1  20
BRANCH  10  24
ATOM     24  C   UNL d   1      54.611  34.647  55.341  0.00  0.00     0.003 C 
ATOM     25  C   UNL d   1      54.138  35.314  55.439  0.00  0.00     0.000 C 
ENDBRANCH  10  24
TORSDOF 4
ENDMDL
