MODEL 1
REMARK VINA RESULT:      -9.8      0.000      0.000
REMARK  6 active torsions:
REMARK  status: ('A' for Active; 'I' for Inactive)
REMARK    1  A    between atoms: C_2  and  S_1 
REMARK    2  A    between atoms: N_3  and  S_1 
REMARK    3  A    between atoms: C_5  and  C_6 
REMARK    4  A    between atoms: O_13  and  C_5 
REMARK    5  A    between atoms: C_22  and  O_13 
REMARK    6  A    between atoms: C_21  and  C_22 
ROOT
ATOM      1  C   UNL d   1      52.453  33.206  53.138  0.00  0.00     0.104 A 
ATOM      2  C   UNL d   1      51.771  33.386  52.710  0.00  0.00     0.018 A 
ATOM      3  C   UNL d   1      51.541  34.174  52.609  0.00  0.00     0.064 A 
ATOM      4  C   UNL d   1      52.899  33.811  53.461  0.00  0.00     0.012 A 
ATOM      5  C   UNL d   1      51.993  34.781  52.936  0.00  0.00     0.005 A 
ATOM      6  C   UNL d   1      52.671  34.592  53.361  0.00  0.00     0.001 A 
ATOM      7  C   UNL d   1      53.581  33.632  53.889  0.00  0.00     0.001 C 
ENDROOT
BRANCH   3   8
ATOM      8  C   UNL d   1      50.859  34.353  52.181  0.00  0.00     0.300 C 
ATOM      9  O   UNL d   1      50.835  34.207  51.367  0.00  0.00    -0.259 OA
BRANCH   8  10
ATOM     10  O   UNL d   1      50.206  34.677  52.561  0.00  0.00    -0.271 OA
BRANCH  10  11
ATOM     11  C   UNL d   1      49.475  34.684  52.186  0.00  0.00     0.126 C 
BRANCH  11  12
ATOM     12  C   UNL d   1      48.869  35.171  52.465  0.00  0.00     0.027 A 
ATOM     13  C   UNL d   1      48.261  35.387  51.968  0.00  0.00     0.028 A 
ATOM     14  C   UNL d   1      47.652  35.874  52.241  0.00  0.00     0.119 A 
ATOM     15  O   UNL d   1      46.972  36.182  51.875  0.00  0.00    -0.300 OA
ATOM     16  C   UNL d   1      47.665  36.140  53.024  0.00  0.00     0.119 A 
ATOM     17  C   UNL d   1      46.568  36.639  52.440  0.00  0.00     0.304 A 
ATOM     18  O   UNL d   1      46.996  36.612  53.144  0.00  0.00    -0.300 OA
ATOM     19  C   UNL d   1      48.285  35.920  53.533  0.00  0.00     0.026 A 
ATOM     20  C   UNL d   1      48.887  35.434  53.247  0.00  0.00     0.004 A 
ENDBRANCH  11  12
ENDBRANCH  10  11
ENDBRANCH   8  10
ENDBRANCH   3   8
BRANCH   1  21
ATOM     21  S   UNL d   1      52.682  32.422  53.238  0.00  0.00     0.271 S 
ATOM     22  O   UNL d   1      52.310  32.409  53.985  0.00  0.00    -0.200 OA
ATOM     23  O   UNL d   1      53.103  32.437  52.394  0.00  0.00    -0.200 OA
BRANCH  21  24
ATOM     24  N   UNL d   1      52.934  31.644  53.289  0.00  0.00    -0.229 N 
ATOM     25  C   UNL d   1      53.630  31.457  53.687  0.00  0.00     0.092 A 
ATOM     26  C   UNL d   1      53.878  30.671  53.734  0.00  0.00     0.020 A 
ATOM     27  C   UNL d   1      53.432  30.078  53.385  0.00  0.00     0.003 A 
ATOM     28  C   UNL d   1      52.739  30.268  52.989  0.00  0.00     0.020 A 
ATOM     29  C   UNL d   1      52.491  31.044  52.940  0.00  0.00     0.092 A 
ENDBRANCH  21  24
ENDBRANCH   1  21
TORSDOF 6
ENDMDL
MODEL 2
REMARK VINA RESULT:      -9.2      1.075      1.644
REMARK  6 active torsions:
REMARK  status: ('A' for Active; 'I' for Inactive)
REMARK    1  A    between atoms: C_2  and  S_1 
REMARK    2  A    between atoms: N_3  and  S_1 
REMARK    3  A    between atoms: C_5  and  C_6 
REMARK    4  A    between atoms: O_13  and  C_5 
REMARK    5  A    between atoms: C_22  and  O_13 
REMARK    6  A    between atoms: C_21  and  C_22 
ROOT
ATOM      1  C   UNL d   1      53.248  32.751  53.564  0.00  0.00     0.104 A 
ATOM      2  C   UNL d   1      52.565  33.214  53.568  0.00  0.00     0.018 A 
ATOM      3  C   UNL d   1      52.624  34.039  53.567  0.00  0.00     0.064 A 
ATOM      4  C   UNL d   1      53.982  33.112  53.560  0.00  0.00     0.012 A 
ATOM      5  C   UNL d   1      53.366  34.399  53.562  0.00  0.00     0.005 A 
ATOM      6  C   UNL d   1      54.040  33.929  53.559  0.00  0.00     0.001 A 
ATOM      7  C   UNL d   1      54.664  32.649  53.556  0.00  0.00     0.001 C 
ENDROOT
BRANCH   3   8
ATOM      8  C   UNL d   1      51.942  34.502  53.570  0.00  0.00     0.300 C 
ATOM      9  O   UNL d   1      51.884  35.145  54.087  0.00  0.00    -0.259 OA
BRANCH   8  10
ATOM     10  O   UNL d   1      51.320  34.325  53.062  0.00  0.00    -0.271 OA
BRANCH  10  11
ATOM     11  C   UNL d   1      50.582  34.663  53.184  0.00  0.00     0.126 C 
BRANCH  11  12
ATOM     12  C   UNL d   1      50.014  34.651  52.585  0.00  0.00     0.027 A 
ATOM     13  C   UNL d   1      49.306  35.040  52.688  0.00  0.00     0.028 A 
ATOM     14  C   UNL d   1      48.735  35.032  52.091  0.00  0.00     0.119 A 
ATOM     15  O   UNL d   1      47.977  35.370  52.035  0.00  0.00    -0.300 OA
ATOM     16  C   UNL d   1      48.888  34.625  51.388  0.00  0.00     0.119 A 
ATOM     17  C   UNL d   1      47.666  35.167  51.291  0.00  0.00     0.304 A 
ATOM     18  O   UNL d   1      48.227  34.710  50.896  0.00  0.00    -0.300 OA
ATOM     19  C   UNL d   1      49.609  34.227  51.281  0.00  0.00     0.026 A 
ATOM     20  C   UNL d   1      50.171  34.243  51.884  0.00  0.00     0.004 A 
ENDBRANCH  11  12
ENDBRANCH  10  11
ENDBRANCH   8  10
ENDBRANCH   3   8
BRANCH   1  21
ATOM     21  S   UNL d   1      53.189  31.930  53.565  0.00  0.00     0.271 S 
ATOM     22  O   UNL d   1      53.375  31.917  54.379  0.00  0.00    -0.200 OA
ATOM     23  O   UNL d   1      52.978  31.944  52.645  0.00  0.00    -0.200 OA
BRANCH  21  24
ATOM     24  N   UNL d   1      53.118  31.115  53.512  0.00  0.00    -0.229 N 
ATOM     25  C   UNL d   1      53.353  30.635  54.139  0.00  0.00     0.092 A 
ATOM     26  C   UNL d   1      53.279  29.815  54.079  0.00  0.00     0.020 A 
ATOM     27  C   UNL d   1      52.972  29.480  53.397  0.00  0.00     0.003 A 
ATOM     28  C   UNL d   1      52.739  29.960  52.775  0.00  0.00     0.020 A 
ATOM     29  C   UNL d   1      52.811  30.771  52.830  0.00  0.00     0.092 A 
ENDBRANCH  21  24
ENDBRANCH   1  21
TORSDOF 6
ENDMDL
MODEL 3
REMARK VINA RESULT:      -8.9      2.118      5.796
REMARK  6 active torsions:
REMARK  status: ('A' for Active; 'I' for Inactive)
REMARK    1  A    between atoms: C_2  and  S_1 
REMARK    2  A    between atoms: N_3  and  S_1 
REMARK    3  A    between atoms: C_5  and  C_6 
REMARK    4  A    between atoms: O_13  and  C_5 
REMARK    5  A    between atoms: C_22  and  O_13 
REMARK    6  A    between atoms: C_21  and  C_22 
ROOT
ATOM      1  C   UNL d   1      52.583  34.209  53.557  0.00  0.00     0.104 A 
ATOM      2  C   UNL d   1      53.038  33.530  53.447  0.00  0.00     0.018 A 
ATOM      3  C   UNL d   1      53.741  33.430  53.869  0.00  0.00     0.064 A 
ATOM      4  C   UNL d   1      52.832  34.781  54.085  0.00  0.00     0.012 A 
ATOM      5  C   UNL d   1      53.989  34.009  54.401  0.00  0.00     0.005 A 
ATOM      6  C   UNL d   1      53.529  34.682  54.504  0.00  0.00     0.001 A 
ATOM      7  C   UNL d   1      52.376  35.460  54.195  0.00  0.00     0.001 C 
ENDROOT
BRANCH   3   8
ATOM      8  C   UNL d   1      54.197  32.751  53.759  0.00  0.00     0.300 C 
ATOM      9  O   UNL d   1      54.973  32.817  53.482  0.00  0.00    -0.259 OA
BRANCH   8  10
ATOM     10  O   UNL d   1      53.880  32.010  53.925  0.00  0.00    -0.271 OA
BRANCH  10  11
ATOM     11  C   UNL d   1      54.080  31.365  53.458  0.00  0.00     0.126 C 
BRANCH  11  12
ATOM     12  C   UNL d   1      53.719  30.633  53.582  0.00  0.00     0.027 A 
ATOM     13  C   UNL d   1      53.906  30.193  54.241  0.00  0.00     0.028 A 
ATOM     14  C   UNL d   1      53.548  29.460  54.370  0.00  0.00     0.119 A 
ATOM     15  O   UNL d   1      53.623  28.897  54.977  0.00  0.00    -0.300 OA
ATOM     16  C   UNL d   1      52.996  29.177  53.823  0.00  0.00     0.119 A 
ATOM     17  C   UNL d   1      53.114  28.265  54.798  0.00  0.00     0.304 A 
ATOM     18  O   UNL d   1      52.730  28.439  54.089  0.00  0.00    -0.300 OA
ATOM     19  C   UNL d   1      52.803  29.623  53.149  0.00  0.00     0.026 A 
ATOM     20  C   UNL d   1      53.169  30.354  53.033  0.00  0.00     0.004 A 
ENDBRANCH  11  12
ENDBRANCH  10  11
ENDBRANCH   8  10
ENDBRANCH   3   8
BRANCH   1  21
ATOM     21  S   UNL d   1      51.882  34.308  53.136  0.00  0.00     0.271 S 
ATOM     22  O   UNL d   1      52.279  34.803  52.593  0.00  0.00    -0.200 OA
ATOM     23  O   UNL d   1      51.434  33.749  53.750  0.00  0.00    -0.200 OA
BRANCH  21  24
ATOM     24  N   UNL d   1      51.160  34.374  52.754  0.00  0.00    -0.229 N 
ATOM     25  C   UNL d   1      50.477  34.547  53.181  0.00  0.00     0.092 A 
ATOM     26  C   UNL d   1      49.753  34.612  52.789  0.00  0.00     0.020 A 
ATOM     27  C   UNL d   1      49.715  34.505  51.977  0.00  0.00     0.003 A 
ATOM     28  C   UNL d   1      50.397  34.333  51.555  0.00  0.00     0.020 A 
ATOM     29  C   UNL d   1      51.114  34.268  51.938  0.00  0.00     0.092 A 
ENDBRANCH  21  24
ENDBRANCH   1  21
TORSDOF 6
ENDMDL
MODEL 4
REMARK VINA RESULT:      -8.5      1.072      1.971
REMARK  6 active torsions:
REMARK  status: ('A' for Active; 'I' for Inactive)
REMARK    1  A    between atoms: C_2  and  S_1 
REMARK    2  A    between atoms: N_3  and  S_1 
REMARK    3  A    between atoms: C_5  and  C_6 
REMARK    4  A    between atoms: O_13  and  C_5 
REMARK    5  A    between atoms: C_22  and  O_13 
REMARK    6  A    between atoms: C_21  and  C_22 
ROOT
ATOM      1  C   UNL d   1      52.737  33.022  53.429  0.00  0.00     0.104 A 
ATOM      2  C   UNL d   1      52.305  33.635  53.084  0.00  0.00     0.018 A 
ATOM      3  C   UNL d   1      51.624  33.466  52.647  0.00  0.00     0.064 A 
ATOM      4  C   UNL d   1      52.487  32.249  53.335  0.00  0.00     0.012 A 
ATOM      5  C   UNL d   1      51.375  32.685  52.555  0.00  0.00     0.005 A 
ATOM      6  C   UNL d   1      51.812  32.082  52.903  0.00  0.00     0.001 A 
ATOM      7  C   UNL d   1      52.919  31.637  53.680  0.00  0.00     0.001 C 
ENDROOT
BRANCH   3   8
ATOM      8  C   UNL d   1      51.192  34.078  52.302  0.00  0.00     0.300 C 
ATOM      9  O   UNL d   1      51.483  34.456  51.626  0.00  0.00    -0.259 OA
BRANCH   8  10
ATOM     10  O   UNL d   1      50.474  34.313  52.629  0.00  0.00    -0.271 OA
BRANCH  10  11
ATOM     11  C   UNL d   1      49.862  34.558  52.140  0.00  0.00     0.126 C 
BRANCH  11  12
ATOM     12  C   UNL d   1      49.243  35.013  52.444  0.00  0.00     0.027 A 
ATOM     13  C   UNL d   1      48.620  35.223  51.965  0.00  0.00     0.028 A 
ATOM     14  C   UNL d   1      47.998  35.678  52.264  0.00  0.00     0.119 A 
ATOM     15  O   UNL d   1      47.301  35.973  51.919  0.00  0.00    -0.300 OA
ATOM     16  C   UNL d   1      48.015  35.918  53.055  0.00  0.00     0.119 A 
ATOM     17  C   UNL d   1      46.891  36.396  52.505  0.00  0.00     0.304 A 
ATOM     18  O   UNL d   1      47.331  36.360  53.201  0.00  0.00    -0.300 OA
ATOM     19  C   UNL d   1      48.650  35.704  53.546  0.00  0.00     0.026 A 
ATOM     20  C   UNL d   1      49.264  35.250  53.235  0.00  0.00     0.004 A 
ENDBRANCH  11  12
ENDBRANCH  10  11
ENDBRANCH   8  10
ENDBRANCH   3   8
BRANCH   1  21
ATOM     21  S   UNL d   1      53.415  33.190  53.863  0.00  0.00     0.271 S 
ATOM     22  O   UNL d   1      53.888  32.924  53.229  0.00  0.00    -0.200 OA
ATOM     23  O   UNL d   1      52.881  33.491  54.581  0.00  0.00    -0.200 OA
BRANCH  21  24
ATOM     24  N   UNL d   1      54.058  33.375  54.338  0.00  0.00    -0.229 N 
ATOM     25  C   UNL d   1      53.970  33.436  55.154  0.00  0.00     0.092 A 
ATOM     26  C   UNL d   1      54.621  33.622  55.625  0.00  0.00     0.020 A 
ATOM     27  C   UNL d   1      55.355  33.746  55.280  0.00  0.00     0.003 A 
ATOM     28  C   UNL d   1      55.440  33.684  54.467  0.00  0.00     0.020 A 
ATOM     29  C   UNL d   1      54.798  33.500  53.998  0.00  0.00     0.092 A 
ENDBRANCH  21  24
ENDBRANCH   1  21
TORSDOF 6
ENDMDL
MODEL 5
REMARK VINA RESULT:      -7.9      2.472      6.331
REMARK  6 active torsions:
REMARK  status: ('A' for Active; 'I' for Inactive)
REMARK    1  A    between atoms: C_2  and  S_1 
REMARK    2  A    between atoms: N_3  and  S_1 
REMARK    3  A    between atoms: C_5  and  C_6 
REMARK    4  A    between atoms: O_13  and  C_5 
REMARK    5  A    between atoms: C_22  and  O_13 
REMARK    6  A    between atoms: C_21  and  C_22 
ROOT
ATOM      1  C   UNL d   1      47.283  35.718  52.464  0.00  0.00     0.104 A 
ATOM      2  C   UNL d   1      47.917  35.286  52.159  0.00  0.00     0.018 A 
ATOM      3  C   UNL d   1      48.656  35.320  52.528  0.00  0.00     0.064 A 
ATOM      4  C   UNL d   1      47.392  36.179  53.131  0.00  0.00     0.012 A 
ATOM      5  C   UNL d   1      48.762  35.785  53.201  0.00  0.00     0.005 A 
ATOM      6  C   UNL d   1      48.124  36.212  53.496  0.00  0.00     0.001 A 
ATOM      7  C   UNL d   1      46.759  36.611  53.436  0.00  0.00     0.001 C 
ENDROOT
BRANCH   3   8
ATOM      8  C   UNL d   1      49.289  34.888  52.223  0.00  0.00     0.300 C 
ATOM      9  O   UNL d   1      49.264  34.617  51.442  0.00  0.00    -0.259 OA
BRANCH   8  10
ATOM     10  O   UNL d   1      49.944  34.726  52.694  0.00  0.00    -0.271 OA
BRANCH  10  11
ATOM     11  C   UNL d   1      50.592  34.336  52.375  0.00  0.00     0.126 C 
BRANCH  11  12
ATOM     12  C   UNL d   1      51.234  34.134  52.854  0.00  0.00     0.027 A 
ATOM     13  C   UNL d   1      51.789  34.697  53.048  0.00  0.00     0.028 A 
ATOM     14  C   UNL d   1      52.433  34.502  53.526  0.00  0.00     0.119 A 
ATOM     15  O   UNL d   1      53.076  34.945  53.813  0.00  0.00    -0.300 OA
ATOM     16  C   UNL d   1      52.510  33.727  53.807  0.00  0.00     0.119 A 
ATOM     17  C   UNL d   1      53.547  34.437  54.272  0.00  0.00     0.304 A 
ATOM     18  O   UNL d   1      53.197  33.690  54.266  0.00  0.00    -0.300 OA
ATOM     19  C   UNL d   1      51.945  33.151  53.610  0.00  0.00     0.026 A 
ATOM     20  C   UNL d   1      51.306  33.360  53.132  0.00  0.00     0.004 A 
ENDBRANCH  11  12
ENDBRANCH  10  11
ENDBRANCH   8  10
ENDBRANCH   3   8
BRANCH   1  21
ATOM     21  S   UNL d   1      46.547  35.685  52.097  0.00  0.00     0.271 S 
ATOM     22  O   UNL d   1      46.704  36.411  51.717  0.00  0.00    -0.200 OA
ATOM     23  O   UNL d   1      46.370  34.864  52.528  0.00  0.00    -0.200 OA
BRANCH  21  24
ATOM     24  N   UNL d   1      45.805  35.604  51.758  0.00  0.00    -0.229 N 
ATOM     25  C   UNL d   1      45.207  35.202  52.157  0.00  0.00     0.092 A 
ATOM     26  C   UNL d   1      44.462  35.125  51.809  0.00  0.00     0.020 A 
ATOM     27  C   UNL d   1      44.320  35.446  51.069  0.00  0.00     0.003 A 
ATOM     28  C   UNL d   1      44.918  35.845  50.674  0.00  0.00     0.020 A 
ATOM     29  C   UNL d   1      45.655  35.924  51.015  0.00  0.00     0.092 A 
ENDBRANCH  21  24
ENDBRANCH   1  21
TORSDOF 6
ENDMDL
MODEL 6
REMARK VINA RESULT:      -7.3      1.851      5.961
REMARK  6 active torsions:
REMARK  status: ('A' for Active; 'I' for Inactive)
REMARK    1  A    between atoms: C_2  and  S_1 
REMARK    2  A    between atoms: N_3  and  S_1 
REMARK    3  A    between atoms: C_5  and  C_6 
REMARK    4  A    between atoms: O_13  and  C_5 
REMARK    5  A    between atoms: C_22  and  O_13 
REMARK    6  A    between atoms: C_21  and  C_22 
ROOT
ATOM      1  C   UNL d   1      49.275  35.012  52.486  0.00  0.00     0.104 A 
ATOM      2  C   UNL d   1      49.995  34.937  52.881  0.00  0.00     0.018 A 
ATOM      3  C   UNL d   1      50.603  34.485  52.550  0.00  0.00     0.064 A 
ATOM      4  C   UNL d   1      49.167  34.637  51.767  0.00  0.00     0.012 A 
ATOM      5  C   UNL d   1      50.491  34.108  51.826  0.00  0.00     0.005 A 
ATOM      6  C   UNL d   1      49.769  34.189  51.440  0.00  0.00     0.001 A 
ATOM      7  C   UNL d   1      48.446  34.711  51.372  0.00  0.00     0.001 C 
ENDROOT
BRANCH   3   8
ATOM      8  C   UNL d   1      51.324  34.410  52.945  0.00  0.00     0.300 C 
ATOM      9  O   UNL d   1      51.706  35.085  53.233  0.00  0.00    -0.259 OA
BRANCH   8  10
ATOM     10  O   UNL d   1      51.661  33.668  53.053  0.00  0.00    -0.271 OA
BRANCH  10  11
ATOM     11  C   UNL d   1      52.447  33.604  53.281  0.00  0.00     0.126 C 
BRANCH  11  12
ATOM     12  C   UNL d   1      52.783  32.861  53.415  0.00  0.00     0.027 A 
ATOM     13  C   UNL d   1      52.516  32.214  53.000  0.00  0.00     0.028 A 
ATOM     14  C   UNL d   1      52.849  31.469  53.129  0.00  0.00     0.119 A 
ATOM     15  O   UNL d   1      52.698  30.721  52.798  0.00  0.00    -0.300 OA
ATOM     16  C   UNL d   1      53.455  31.386  53.685  0.00  0.00     0.119 A 
ATOM     17  C   UNL d   1      53.216  30.179  53.156  0.00  0.00     0.304 A 
ATOM     18  O   UNL d   1      53.680  30.590  53.700  0.00  0.00    -0.300 OA
ATOM     19  C   UNL d   1      53.729  32.045  54.110  0.00  0.00     0.026 A 
ATOM     20  C   UNL d   1      53.388  32.784  53.971  0.00  0.00     0.004 A 
ENDBRANCH  11  12
ENDBRANCH  10  11
ENDBRANCH   8  10
ENDBRANCH   3   8
BRANCH   1  21
ATOM     21  S   UNL d   1      48.669  35.462  52.815  0.00  0.00     0.271 S 
ATOM     22  O   UNL d   1      48.686  35.969  52.151  0.00  0.00    -0.200 OA
ATOM     23  O   UNL d   1      48.650  34.889  53.564  0.00  0.00    -0.200 OA
BRANCH  21  24
ATOM     24  N   UNL d   1      48.066  35.877  53.185  0.00  0.00    -0.229 N 
ATOM     25  C   UNL d   1      48.073  35.979  54.002  0.00  0.00     0.092 A 
ATOM     26  C   UNL d   1      47.462  36.397  54.368  0.00  0.00     0.020 A 
ATOM     27  C   UNL d   1      46.852  36.709  53.919  0.00  0.00     0.003 A 
ATOM     28  C   UNL d   1      46.848  36.605  53.106  0.00  0.00     0.020 A 
ATOM     29  C   UNL d   1      47.450  36.193  52.740  0.00  0.00     0.092 A 
ENDBRANCH  21  24
ENDBRANCH   1  21
TORSDOF 6
ENDMDL
