MODEL 1
REMARK VINA RESULT:      -8.1      0.000      0.000
REMARK  5 active torsions:
REMARK  status: ('A' for Active; 'I' for Inactive)
REMARK    1  A    between atoms: C_2  and  C_4 
REMARK    2  A    between atoms: C_4  and  C_10 
REMARK    3  A    between atoms: S_8  and  C_6 
REMARK    4  A    between atoms: C_14  and  C_7 
REMARK    5  A    between atoms: C_10  and  S_8 
ROOT
ATOM      1  N   UNL d   1      51.588  33.265  53.719  0.00  0.00    -0.148 NA
ATOM      2  N   UNL d   1      50.889  33.484  53.339  0.00  0.00    -0.141 NA
ATOM      3  C   UNL d   1      50.888  34.099  52.790  0.00  0.00     0.133 A 
ATOM      4  C   UNL d   1      52.290  33.666  53.545  0.00  0.00     0.103 A 
ATOM      5  C   UNL d   1      52.296  34.277  53.001  0.00  0.00     0.023 A 
ATOM      6  C   UNL d   1      51.602  34.498  52.621  0.00  0.00     0.029 A 
ENDROOT
BRANCH   3   7
ATOM      7  S   UNL d   1      50.195  34.312  52.417  0.00  0.00    -0.062 SA
BRANCH   7   8
ATOM      8  C   UNL d   1      49.666  34.824  52.788  0.00  0.00     0.079 C 
BRANCH   8   9
ATOM      9  C   UNL d   1      48.978  35.054  52.410  0.00  0.00     0.208 C 
ATOM     10  O   UNL d   1      48.795  34.739  51.670  0.00  0.00    -0.285 OA
BRANCH   9  11
ATOM     11  C   UNL d   1      48.468  35.595  52.756  0.00  0.00     0.069 A 
ATOM     12  S   UNL d   1      47.833  35.960  52.383  0.00  0.00    -0.083 SA
ATOM     13  C   UNL d   1      47.470  36.459  52.928  0.00  0.00     0.035 A 
ATOM     14  C   UNL d   1      47.890  36.395  53.637  0.00  0.00     0.008 A 
ATOM     15  C   UNL d   1      48.502  35.864  53.528  0.00  0.00     0.010 A 
ENDBRANCH   9  11
ENDBRANCH   8   9
ENDBRANCH   7   8
ENDBRANCH   3   7
BRANCH   4  16
ATOM     16  C   UNL d   1      52.988  33.446  53.925  0.00  0.00     0.019 A 
ATOM     17  C   UNL d   1      53.418  32.786  53.659  0.00  0.00     0.002 A 
ATOM     18  C   UNL d   1      54.120  32.564  54.040  0.00  0.00     0.000 A 
ATOM     19  C   UNL d   1      54.397  33.002  54.690  0.00  0.00     0.000 A 
ATOM     20  C   UNL d   1      53.975  33.650  54.952  0.00  0.00     0.000 A 
ATOM     21  C   UNL d   1      53.272  33.881  54.578  0.00  0.00     0.002 A 
ENDBRANCH   4  16
TORSDOF 5
ENDMDL
MODEL 2
REMARK VINA RESULT:      -8.0      1.996      5.162
REMARK  5 active torsions:
REMARK  status: ('A' for Active; 'I' for Inactive)
REMARK    1  A    between atoms: C_2  and  C_4 
REMARK    2  A    between atoms: C_4  and  C_10 
REMARK    3  A    between atoms: S_8  and  C_6 
REMARK    4  A    between atoms: C_14  and  C_7 
REMARK    5  A    between atoms: C_10  and  S_8 
ROOT
ATOM      1  N   UNL d   1      50.347  33.600  53.185  0.00  0.00    -0.148 NA
ATOM      2  N   UNL d   1      51.041  33.185  53.348  0.00  0.00    -0.141 NA
ATOM      3  C   UNL d   1      51.739  33.367  52.950  0.00  0.00     0.133 A 
ATOM      4  C   UNL d   1      50.355  34.202  52.617  0.00  0.00     0.103 A 
ATOM      5  C   UNL d   1      51.045  34.388  52.218  0.00  0.00     0.023 A 
ATOM      6  C   UNL d   1      51.737  33.977  52.378  0.00  0.00     0.029 A 
ENDROOT
BRANCH   3   7
ATOM      7  S   UNL d   1      52.423  32.954  53.114  0.00  0.00    -0.062 SA
BRANCH   7   8
ATOM      8  C   UNL d   1      52.934  33.220  53.704  0.00  0.00     0.079 C 
BRANCH   8   9
ATOM      9  C   UNL d   1      53.615  32.801  53.881  0.00  0.00     0.208 C 
ATOM     10  O   UNL d   1      53.753  32.075  53.513  0.00  0.00    -0.285 OA
BRANCH   9  11
ATOM     11  C   UNL d   1      54.160  33.092  54.419  0.00  0.00     0.069 A 
ATOM     12  S   UNL d   1      54.108  33.024  55.237  0.00  0.00    -0.083 SA
ATOM     13  C   UNL d   1      54.768  33.391  55.565  0.00  0.00     0.035 A 
ATOM     14  C   UNL d   1      55.223  33.683  54.940  0.00  0.00     0.008 A 
ATOM     15  C   UNL d   1      54.847  33.498  54.238  0.00  0.00     0.010 A 
ENDBRANCH   9  11
ENDBRANCH   8   9
ENDBRANCH   7   8
ENDBRANCH   3   7
BRANCH   4  16
ATOM     16  C   UNL d   1      49.661  34.616  52.454  0.00  0.00     0.019 A 
ATOM     17  C   UNL d   1      49.282  34.523  51.720  0.00  0.00     0.002 A 
ATOM     18  C   UNL d   1      48.584  34.939  51.556  0.00  0.00     0.000 A 
ATOM     19  C   UNL d   1      48.261  35.451  52.124  0.00  0.00     0.000 A 
ATOM     20  C   UNL d   1      48.632  35.544  52.845  0.00  0.00     0.000 A 
ATOM     21  C   UNL d   1      49.330  35.132  53.020  0.00  0.00     0.002 A 
ENDBRANCH   4  16
TORSDOF 5
ENDMDL
MODEL 3
REMARK VINA RESULT:      -6.4      2.497      3.491
REMARK  5 active torsions:
REMARK  status: ('A' for Active; 'I' for Inactive)
REMARK    1  A    between atoms: C_2  and  C_4 
REMARK    2  A    between atoms: C_4  and  C_10 
REMARK    3  A    between atoms: S_8  and  C_6 
REMARK    4  A    between atoms: C_14  and  C_7 
REMARK    5  A    between atoms: C_10  and  S_8 
ROOT
ATOM      1  N   UNL d   1      53.537  31.315  54.212  0.00  0.00    -0.148 NA
ATOM      2  N   UNL d   1      53.390  32.065  53.902  0.00  0.00    -0.141 NA
ATOM      3  C   UNL d   1      52.910  32.155  53.238  0.00  0.00     0.133 A 
ATOM      4  C   UNL d   1      53.200  30.651  53.852  0.00  0.00     0.103 A 
ATOM      5  C   UNL d   1      52.722  30.733  53.193  0.00  0.00     0.023 A 
ATOM      6  C   UNL d   1      52.573  31.478  52.881  0.00  0.00     0.029 A 
ENDROOT
BRANCH   3   7
ATOM      7  S   UNL d   1      52.767  32.899  52.934  0.00  0.00    -0.062 SA
BRANCH   7   8
ATOM      8  C   UNL d   1      51.993  33.149  52.803  0.00  0.00     0.079 C 
BRANCH   8   9
ATOM      9  C   UNL d   1      51.828  33.944  52.697  0.00  0.00     0.208 C 
ATOM     10  O   UNL d   1      52.442  34.494  52.722  0.00  0.00    -0.285 OA
BRANCH   9  11
ATOM     11  C   UNL d   1      51.061  34.200  52.566  0.00  0.00     0.069 A 
ATOM     12  S   UNL d   1      50.538  34.462  53.143  0.00  0.00    -0.083 SA
ATOM     13  C   UNL d   1      49.831  34.666  52.775  0.00  0.00     0.035 A 
ATOM     14  C   UNL d   1      49.927  34.526  51.966  0.00  0.00     0.008 A 
ATOM     15  C   UNL d   1      50.683  34.240  51.840  0.00  0.00     0.010 A 
ENDBRANCH   9  11
ENDBRANCH   8   9
ENDBRANCH   7   8
ENDBRANCH   3   7
BRANCH   4  16
ATOM     16  C   UNL d   1      53.347  29.901  54.163  0.00  0.00     0.019 A 
ATOM     17  C   UNL d   1      53.052  29.695  54.912  0.00  0.00     0.002 A 
ATOM     18  C   UNL d   1      53.199  28.942  55.225  0.00  0.00     0.000 A 
ATOM     19  C   UNL d   1      53.644  28.390  54.791  0.00  0.00     0.000 A 
ATOM     20  C   UNL d   1      53.934  28.592  54.055  0.00  0.00     0.000 A 
ATOM     21  C   UNL d   1      53.792  29.342  53.733  0.00  0.00     0.002 A 
ENDBRANCH   4  16
TORSDOF 5
ENDMDL
MODEL 4
REMARK VINA RESULT:      -6.0      3.493      5.480
REMARK  5 active torsions:
REMARK  status: ('A' for Active; 'I' for Inactive)
REMARK    1  A    between atoms: C_2  and  C_4 
REMARK    2  A    between atoms: C_4  and  C_10 
REMARK    3  A    between atoms: S_8  and  C_6 
REMARK    4  A    between atoms: C_14  and  C_7 
REMARK    5  A    between atoms: C_10  and  S_8 
ROOT
ATOM      1  N   UNL d   1      52.417  33.111  53.517  0.00  0.00    -0.148 NA
ATOM      2  N   UNL d   1      52.425  32.316  53.295  0.00  0.00    -0.141 NA
ATOM      3  C   UNL d   1      53.122  31.879  53.339  0.00  0.00     0.133 A 
ATOM      4  C   UNL d   1      53.113  33.468  53.784  0.00  0.00     0.103 A 
ATOM      5  C   UNL d   1      53.809  33.040  53.830  0.00  0.00     0.023 A 
ATOM      6  C   UNL d   1      53.822  32.249  53.610  0.00  0.00     0.029 A 
ENDROOT
BRANCH   3   7
ATOM      7  S   UNL d   1      53.127  31.094  53.118  0.00  0.00    -0.062 SA
BRANCH   7   8
ATOM      8  C   UNL d   1      53.406  30.520  53.640  0.00  0.00     0.079 C 
BRANCH   8   9
ATOM      9  C   UNL d   1      53.099  29.761  53.623  0.00  0.00     0.208 C 
ATOM     10  O   UNL d   1      52.628  29.526  52.988  0.00  0.00    -0.285 OA
BRANCH   9  11
ATOM     11  C   UNL d   1      53.253  29.232  54.229  0.00  0.00     0.069 A 
ATOM     12  S   UNL d   1      53.680  28.534  54.158  0.00  0.00    -0.083 SA
ATOM     13  C   UNL d   1      53.702  28.171  54.896  0.00  0.00     0.035 A 
ATOM     14  C   UNL d   1      53.284  28.655  55.420  0.00  0.00     0.008 A 
ATOM     15  C   UNL d   1      53.009  29.305  55.008  0.00  0.00     0.010 A 
ENDBRANCH   9  11
ENDBRANCH   8   9
ENDBRANCH   7   8
ENDBRANCH   3   7
BRANCH   4  16
ATOM     16  C   UNL d   1      53.104  34.263  54.006  0.00  0.00     0.019 A 
ATOM     17  C   UNL d   1      52.931  34.850  53.443  0.00  0.00     0.002 A 
ATOM     18  C   UNL d   1      52.922  35.649  53.665  0.00  0.00     0.000 A 
ATOM     19  C   UNL d   1      53.084  35.865  54.451  0.00  0.00     0.000 A 
ATOM     20  C   UNL d   1      53.254  35.288  55.003  0.00  0.00     0.000 A 
ATOM     21  C   UNL d   1      53.266  34.487  54.793  0.00  0.00     0.002 A 
ENDBRANCH   4  16
TORSDOF 5
ENDMDL
MODEL 5
REMARK VINA RESULT:      -5.3     10.019     10.543
REMARK  5 active torsions:
REMARK  status: ('A' for Active; 'I' for Inactive)
REMARK    1  A    between atoms: C_2  and  C_4 
REMARK    2  A    between atoms: C_4  and  C_10 
REMARK    3  A    between atoms: S_8  and  C_6 
REMARK    4  A    between atoms: C_14  and  C_7 
REMARK    5  A    between atoms: C_10  and  S_8 
ROOT
ATOM      1  N   UNL d   1      45.382  27.377  57.990  0.00  0.00    -0.148 NA
ATOM      2  N   UNL d   1      45.433  28.149  58.276  0.00  0.00    -0.141 NA
ATOM      3  C   UNL d   1      44.928  28.734  57.989  0.00  0.00     0.133 A 
ATOM      4  C   UNL d   1      44.820  27.191  57.413  0.00  0.00     0.103 A 
ATOM      5  C   UNL d   1      44.315  27.767  57.124  0.00  0.00     0.023 A 
ATOM      6  C   UNL d   1      44.362  28.537  57.406  0.00  0.00     0.029 A 
ENDROOT
BRANCH   3   7
ATOM      7  S   UNL d   1      44.981  29.496  58.274  0.00  0.00    -0.062 SA
BRANCH   7   8
ATOM      8  C   UNL d   1      44.805  29.656  59.063  0.00  0.00     0.079 C 
BRANCH   8   9
ATOM      9  C   UNL d   1      44.849  30.421  59.350  0.00  0.00     0.208 C 
ATOM     10  O   UNL d   1      45.033  31.039  58.836  0.00  0.00    -0.285 OA
BRANCH   9  11
ATOM     11  C   UNL d   1      44.712  30.582  60.142  0.00  0.00     0.069 A 
ATOM     12  S   UNL d   1      44.334  31.249  60.437  0.00  0.00    -0.083 SA
ATOM     13  C   UNL d   1      44.314  31.190  61.257  0.00  0.00     0.035 A 
ATOM     14  C   UNL d   1      44.683  30.480  61.461  0.00  0.00     0.008 A 
ATOM     15  C   UNL d   1      44.927  30.108  60.775  0.00  0.00     0.010 A 
ENDBRANCH   9  11
ENDBRANCH   8   9
ENDBRANCH   7   8
ENDBRANCH   3   7
BRANCH   4  16
ATOM     16  C   UNL d   1      44.769  26.419  57.128  0.00  0.00     0.019 A 
ATOM     17  C   UNL d   1      44.546  25.801  57.637  0.00  0.00     0.002 A 
ATOM     18  C   UNL d   1      44.495  25.024  57.351  0.00  0.00     0.000 A 
ATOM     19  C   UNL d   1      44.667  24.861  56.555  0.00  0.00     0.000 A 
ATOM     20  C   UNL d   1      44.887  25.468  56.055  0.00  0.00     0.000 A 
ATOM     21  C   UNL d   1      44.941  26.248  56.329  0.00  0.00     0.002 A 
ENDBRANCH   4  16
TORSDOF 5
ENDMDL
MODEL 6
REMARK VINA RESULT:      -5.2      9.909     10.754
REMARK  5 active torsions:
REMARK  status: ('A' for Active; 'I' for Inactive)
REMARK    1  A    between atoms: C_2  and  C_4 
REMARK    2  A    between atoms: C_4  and  C_10 
REMARK    3  A    between atoms: S_8  and  C_6 
REMARK    4  A    between atoms: C_14  and  C_7 
REMARK    5  A    between atoms: C_10  and  S_8 
ROOT
ATOM      1  N   UNL d   1      44.315  29.536  60.321  0.00  0.00    -0.148 NA
ATOM      2  N   UNL d   1      44.416  29.308  59.535  0.00  0.00    -0.141 NA
ATOM      3  C   UNL d   1      44.870  29.767  59.023  0.00  0.00     0.133 A 
ATOM      4  C   UNL d   1      44.672  30.230  60.594  0.00  0.00     0.103 A 
ATOM      5  C   UNL d   1      45.124  30.691  60.091  0.00  0.00     0.023 A 
ATOM      6  C   UNL d   1      45.227  30.467  59.308  0.00  0.00     0.029 A 
ENDROOT
BRANCH   3   7
ATOM      7  S   UNL d   1      44.967  29.537  58.246  0.00  0.00    -0.062 SA
BRANCH   7   8
ATOM      8  C   UNL d   1      44.982  28.737  58.050  0.00  0.00     0.079 C 
BRANCH   8   9
ATOM      9  C   UNL d   1      44.969  28.503  57.266  0.00  0.00     0.208 C 
ATOM     10  O   UNL d   1      44.929  29.073  56.671  0.00  0.00    -0.285 OA
BRANCH   9  11
ATOM     11  C   UNL d   1      44.996  27.709  57.063  0.00  0.00     0.069 A 
ATOM     12  S   UNL d   1      45.457  27.137  57.431  0.00  0.00    -0.083 SA
ATOM     13  C   UNL d   1      45.317  26.418  57.056  0.00  0.00     0.035 A 
ATOM     14  C   UNL d   1      44.766  26.556  56.456  0.00  0.00     0.008 A 
ATOM     15  C   UNL d   1      44.570  27.350  56.463  0.00  0.00     0.010 A 
ENDBRANCH   9  11
ENDBRANCH   8   9
ENDBRANCH   7   8
ENDBRANCH   3   7
BRANCH   4  16
ATOM     16  C   UNL d   1      44.570  30.458  61.380  0.00  0.00     0.019 A 
ATOM     17  C   UNL d   1      44.416  31.254  61.567  0.00  0.00     0.002 A 
ATOM     18  C   UNL d   1      44.314  31.484  62.357  0.00  0.00     0.000 A 
ATOM     19  C   UNL d   1      44.365  30.919  62.965  0.00  0.00     0.000 A 
ATOM     20  C   UNL d   1      44.515  30.138  62.782  0.00  0.00     0.000 A 
ATOM     21  C   UNL d   1      44.619  29.897  61.996  0.00  0.00     0.002 A 
ENDBRANCH   4  16
TORSDOF 5
ENDMDL
MODEL 7
REMARK VINA RESULT:      -5.1     10.395     11.143
REMARK  5 active torsions:
REMARK  status: ('A' for Active; 'I' for Inactive)
REMARK    1  A    between atoms: C_2  and  C_4 
REMARK    2  A    between atoms: C_4  and  C_10 
REMARK    3  A    between atoms: S_8  and  C_6 
REMARK    4  A    between atoms: C_14  and  C_7 
REMARK    5  A    between atoms: C_10  and  S_8 
ROOT
ATOM      1  N   UNL d   1      45.580  27.543  56.786  0.00  0.00    -0.148 NA
ATOM      2  N   UNL d   1      45.584  26.741  56.595  0.00  0.00    -0.141 NA
ATOM      3  C   UNL d   1      44.965  26.253  56.834  0.00  0.00     0.133 A 
ATOM      4  C   UNL d   1      44.950  27.857  57.221  0.00  0.00     0.103 A 
ATOM      5  C   UNL d   1      44.332  27.377  57.462  0.00  0.00     0.023 A 
ATOM      6  C   UNL d   1      44.332  26.578  57.274  0.00  0.00     0.029 A 
ENDROOT
BRANCH   3   7
ATOM      7  S   UNL d   1      44.972  25.460  56.643  0.00  0.00    -0.062 SA
BRANCH   7   8
ATOM      8  C   UNL d   1      44.769  25.216  55.882  0.00  0.00     0.079 C 
BRANCH   8   9
ATOM      9  C   UNL d   1      44.821  24.427  55.673  0.00  0.00     0.208 C 
ATOM     10  O   UNL d   1      45.004  23.864  56.248  0.00  0.00    -0.285 OA
BRANCH   9  11
ATOM     11  C   UNL d   1      44.695  24.187  54.899  0.00  0.00     0.069 A 
ATOM     12  S   UNL d   1      44.917  23.464  54.580  0.00  0.00    -0.083 SA
ATOM     13  C   UNL d   1      44.687  23.451  53.790  0.00  0.00     0.035 A 
ATOM     14  C   UNL d   1      44.322  24.175  53.630  0.00  0.00     0.008 A 
ATOM     15  C   UNL d   1      44.328  24.625  54.313  0.00  0.00     0.010 A 
ENDBRANCH   9  11
ENDBRANCH   8   9
ENDBRANCH   7   8
ENDBRANCH   3   7
BRANCH   4  16
ATOM     16  C   UNL d   1      44.948  28.659  57.412  0.00  0.00     0.019 A 
ATOM     17  C   UNL d   1      44.732  29.223  56.840  0.00  0.00     0.002 A 
ATOM     18  C   UNL d   1      44.729  30.030  57.031  0.00  0.00     0.000 A 
ATOM     19  C   UNL d   1      44.941  30.278  57.795  0.00  0.00     0.000 A 
ATOM     20  C   UNL d   1      45.153  29.725  58.357  0.00  0.00     0.000 A 
ATOM     21  C   UNL d   1      45.159  28.915  58.177  0.00  0.00     0.002 A 
ENDBRANCH   4  16
TORSDOF 5
ENDMDL
