MODEL 1
REMARK VINA RESULT:      -5.5      0.000      0.000
REMARK  6 active torsions:
REMARK  status: ('A' for Active; 'I' for Inactive)
REMARK    1  A    between atoms: S_15  and  C_4 
REMARK    2  A    between atoms: C_7  and  N_13 
REMARK    3  A    between atoms: S_20  and  C_11 
REMARK       I    between atoms: N_13  and  C_16 
REMARK    4  A    between atoms: C_21  and  S_15 
REMARK    5  A    between atoms: C_16  and  C_21 
REMARK    6  A    between atoms: C_23  and  S_20 
ROOT
ATOM      1  S   UNL d   1      53.573  33.524  53.866  0.00  0.00    -0.044 SA
ENDROOT
BRANCH   1   2
ATOM      2  C   UNL d   1      53.515  32.693  53.893  0.00  0.00     0.182 A 
ATOM      3  N   UNL d   1      53.238  32.274  53.228  0.00  0.00    -0.222 NA
ATOM      4  C   UNL d   1      53.181  31.462  53.255  0.00  0.00     0.095 A 
ATOM      5  C   UNL d   1      53.396  31.050  53.937  0.00  0.00     0.104 A 
ATOM      6  C   UNL d   1      52.931  30.914  52.692  0.00  0.00     0.026 A 
ATOM      7  C   UNL d   1      53.667  31.450  54.592  0.00  0.00     0.274 A 
ATOM      8  S   UNL d   1      53.278  30.248  53.795  0.00  0.00    -0.081 SA
ATOM      9  N   UNL d   1      53.729  32.281  54.575  0.00  0.00    -0.251 N 
ATOM     10  O   UNL d   1      53.882  31.038  55.274  0.00  0.00    -0.266 OA
ATOM     11  C   UNL d   1      54.006  32.693  55.242  0.00  0.00     0.104 C 
ATOM     12  C   UNL d   1      52.990  30.169  53.022  0.00  0.00     0.031 A 
ATOM     13  C   UNL d   1      52.794  29.464  52.641  0.00  0.00     0.007 C 
ENDBRANCH   1   2
BRANCH   1  14
ATOM     14  C   UNL d   1      52.914  33.972  53.652  0.00  0.00     0.101 C 
BRANCH  14  15
ATOM     15  C   UNL d   1      52.919  34.791  53.757  0.00  0.00     0.288 C 
ATOM     16  N   UNL d   1      52.260  35.239  53.544  0.00  0.00    -0.181 NA
ATOM     17  O   UNL d   1      53.585  35.161  54.076  0.00  0.00    -0.265 OA
BRANCH  16  18
ATOM     18  C   UNL d   1      51.596  34.868  53.226  0.00  0.00     0.219 A 
ATOM     19  S   UNL d   1      51.364  34.711  52.454  0.00  0.00    -0.019 SA
ATOM     20  C   UNL d   1      50.641  34.323  52.473  0.00  0.00     0.165 A 
ATOM     21  N   UNL d   1      50.429  34.242  53.250  0.00  0.00    -0.133 NA
ATOM     22  N   UNL d   1      51.011  34.576  53.723  0.00  0.00    -0.120 NA
BRANCH  20  23
ATOM     23  S   UNL d   1      50.203  34.060  51.825  0.00  0.00    -0.059 SA
BRANCH  23  24
ATOM     24  C   UNL d   1      49.506  34.442  51.626  0.00  0.00     0.037 C 
ATOM     25  C   UNL d   1      49.147  34.287  50.889  0.00  0.00     0.008 C 
ENDBRANCH  23  24
ENDBRANCH  20  23
ENDBRANCH  16  18
ENDBRANCH  14  15
ENDBRANCH   1  14
TORSDOF 6
ENDMDL
MODEL 2
REMARK VINA RESULT:      -4.9      1.223      4.277
REMARK  6 active torsions:
REMARK  status: ('A' for Active; 'I' for Inactive)
REMARK    1  A    between atoms: S_15  and  C_4 
REMARK    2  A    between atoms: C_7  and  N_13 
REMARK    3  A    between atoms: S_20  and  C_11 
REMARK       I    between atoms: N_13  and  C_16 
REMARK    4  A    between atoms: C_21  and  S_15 
REMARK    5  A    between atoms: C_16  and  C_21 
REMARK    6  A    between atoms: C_23  and  S_20 
ROOT
ATOM      1  S   UNL d   1      52.773  34.669  53.706  0.00  0.00    -0.044 SA
ENDROOT
BRANCH   1   2
ATOM      2  C   UNL d   1      52.103  34.609  53.212  0.00  0.00     0.182 A 
ATOM      3  N   UNL d   1      51.339  34.639  53.544  0.00  0.00    -0.222 NA
ATOM      4  C   UNL d   1      50.686  34.580  53.061  0.00  0.00     0.095 A 
ATOM      5  C   UNL d   1      50.774  34.489  52.246  0.00  0.00     0.104 A 
ATOM      6  C   UNL d   1      49.880  34.593  53.232  0.00  0.00     0.026 A 
ATOM      7  C   UNL d   1      51.517  34.458  51.913  0.00  0.00     0.274 A 
ATOM      8  S   UNL d   1      50.023  34.446  51.914  0.00  0.00    -0.081 SA
ATOM      9  N   UNL d   1      52.192  34.518  52.397  0.00  0.00    -0.251 N 
ATOM     10  O   UNL d   1      51.605  34.368  51.098  0.00  0.00    -0.266 OA
ATOM     11  C   UNL d   1      52.952  34.487  52.062  0.00  0.00     0.104 C 
ATOM     12  C   UNL d   1      49.471  34.510  52.529  0.00  0.00     0.031 A 
ATOM     13  C   UNL d   1      48.650  34.495  52.455  0.00  0.00     0.007 C 
ENDBRANCH   1   2
BRANCH   1  14
ATOM     14  C   UNL d   1      53.042  34.002  54.112  0.00  0.00     0.101 C 
BRANCH  14  15
ATOM     15  C   UNL d   1      53.526  34.091  54.775  0.00  0.00     0.288 C 
ATOM     16  N   UNL d   1      54.008  33.467  55.020  0.00  0.00    -0.181 NA
ATOM     17  O   UNL d   1      53.527  34.803  55.193  0.00  0.00    -0.265 OA
BRANCH  16  18
ATOM     18  C   UNL d   1      54.005  32.756  54.602  0.00  0.00     0.219 A 
ATOM     19  S   UNL d   1      53.534  32.085  54.650  0.00  0.00    -0.019 SA
ATOM     20  C   UNL d   1      53.792  31.546  54.088  0.00  0.00     0.165 A 
ATOM     21  N   UNL d   1      54.417  31.881  53.696  0.00  0.00    -0.133 NA
ATOM     22  N   UNL d   1      54.556  32.629  54.006  0.00  0.00    -0.120 NA
BRANCH  20  23
ATOM     23  S   UNL d   1      53.480  30.796  53.940  0.00  0.00    -0.059 SA
BRANCH  23  24
ATOM     24  C   UNL d   1      53.140  30.636  53.211  0.00  0.00     0.037 C 
ATOM     25  C   UNL d   1      52.812  29.883  53.066  0.00  0.00     0.008 C 
ENDBRANCH  23  24
ENDBRANCH  20  23
ENDBRANCH  16  18
ENDBRANCH  14  15
ENDBRANCH   1  14
TORSDOF 6
ENDMDL
MODEL 3
REMARK VINA RESULT:      -4.6      1.518      2.011
REMARK  6 active torsions:
REMARK  status: ('A' for Active; 'I' for Inactive)
REMARK    1  A    between atoms: S_15  and  C_4 
REMARK    2  A    between atoms: C_7  and  N_13 
REMARK    3  A    between atoms: S_20  and  C_11 
REMARK       I    between atoms: N_13  and  C_16 
REMARK    4  A    between atoms: C_21  and  S_15 
REMARK    5  A    between atoms: C_16  and  C_21 
REMARK    6  A    between atoms: C_23  and  S_20 
ROOT
ATOM      1  S   UNL d   1      53.737  31.909  53.196  0.00  0.00    -0.044 SA
ENDROOT
BRANCH   1   2
ATOM      2  C   UNL d   1      53.520  31.142  53.442  0.00  0.00     0.182 A 
ATOM      3  N   UNL d   1      53.691  30.891  54.219  0.00  0.00    -0.222 NA
ATOM      4  C   UNL d   1      53.479  30.142  54.458  0.00  0.00     0.095 A 
ATOM      5  C   UNL d   1      53.097  29.629  53.937  0.00  0.00     0.104 A 
ATOM      6  C   UNL d   1      53.576  29.753  55.178  0.00  0.00     0.026 A 
ATOM      7  C   UNL d   1      52.926  29.865  53.177  0.00  0.00     0.274 A 
ATOM      8  S   UNL d   1      52.957  28.923  54.336  0.00  0.00    -0.081 SA
ATOM      9  N   UNL d   1      53.138  30.629  52.921  0.00  0.00    -0.251 N 
ATOM     10  O   UNL d   1      52.544  29.352  52.657  0.00  0.00    -0.266 OA
ATOM     11  C   UNL d   1      52.966  30.874  52.146  0.00  0.00     0.104 C 
ATOM     12  C   UNL d   1      53.256  29.005  55.105  0.00  0.00     0.031 A 
ATOM     13  C   UNL d   1      53.238  28.435  55.702  0.00  0.00     0.007 C 
ENDBRANCH   1   2
BRANCH   1  14
ATOM     14  C   UNL d   1      53.360  32.565  53.527  0.00  0.00     0.101 C 
BRANCH  14  15
ATOM     15  C   UNL d   1      53.778  33.268  53.639  0.00  0.00     0.288 C 
ATOM     16  N   UNL d   1      53.381  33.991  53.625  0.00  0.00    -0.181 NA
ATOM     17  O   UNL d   1      54.593  33.247  53.766  0.00  0.00    -0.265 OA
BRANCH  16  18
ATOM     18  C   UNL d   1      52.565  34.011  53.499  0.00  0.00     0.219 A 
ATOM     19  S   UNL d   1      52.111  34.163  52.832  0.00  0.00    -0.019 SA
ATOM     20  C   UNL d   1      51.319  34.104  53.039  0.00  0.00     0.165 A 
ATOM     21  N   UNL d   1      51.286  33.916  53.826  0.00  0.00    -0.133 NA
ATOM     22  N   UNL d   1      52.050  33.856  54.119  0.00  0.00    -0.120 NA
BRANCH  20  23
ATOM     23  S   UNL d   1      50.668  34.214  52.544  0.00  0.00    -0.059 SA
BRANCH  23  24
ATOM     24  C   UNL d   1      49.992  34.573  52.838  0.00  0.00     0.037 C 
ATOM     25  C   UNL d   1      49.355  34.736  52.324  0.00  0.00     0.008 C 
ENDBRANCH  23  24
ENDBRANCH  20  23
ENDBRANCH  16  18
ENDBRANCH  14  15
ENDBRANCH   1  14
TORSDOF 6
ENDMDL
MODEL 4
REMARK VINA RESULT:      -4.6      1.895      4.474
REMARK  6 active torsions:
REMARK  status: ('A' for Active; 'I' for Inactive)
REMARK    1  A    between atoms: S_15  and  C_4 
REMARK    2  A    between atoms: C_7  and  N_13 
REMARK    3  A    between atoms: S_20  and  C_11 
REMARK       I    between atoms: N_13  and  C_16 
REMARK    4  A    between atoms: C_21  and  S_15 
REMARK    5  A    between atoms: C_16  and  C_21 
REMARK    6  A    between atoms: C_23  and  S_20 
ROOT
ATOM      1  S   UNL d   1      52.378  33.185  53.329  0.00  0.00    -0.044 SA
ENDROOT
BRANCH   1   2
ATOM      2  C   UNL d   1      52.904  33.592  53.832  0.00  0.00     0.182 A 
ATOM      3  N   UNL d   1      53.609  33.224  54.082  0.00  0.00    -0.222 NA
ATOM      4  C   UNL d   1      54.122  33.622  54.573  0.00  0.00     0.095 A 
ATOM      5  C   UNL d   1      53.949  34.389  54.826  0.00  0.00     0.104 A 
ATOM      6  C   UNL d   1      54.844  33.400  54.902  0.00  0.00     0.026 A 
ATOM      7  C   UNL d   1      53.264  34.757  54.587  0.00  0.00     0.274 A 
ATOM      8  S   UNL d   1      54.565  34.639  55.310  0.00  0.00    -0.081 SA
ATOM      9  N   UNL d   1      52.732  34.359  54.084  0.00  0.00    -0.251 N 
ATOM     10  O   UNL d   1      53.091  35.523  54.839  0.00  0.00    -0.266 OA
ATOM     11  C   UNL d   1      52.031  34.731  53.838  0.00  0.00     0.104 C 
ATOM     12  C   UNL d   1      55.118  34.023  55.355  0.00  0.00     0.031 A 
ATOM     13  C   UNL d   1      55.825  34.027  55.779  0.00  0.00     0.007 C 
ENDBRANCH   1   2
BRANCH   1  14
ATOM     14  C   UNL d   1      52.535  32.400  53.125  0.00  0.00     0.101 C 
BRANCH  14  15
ATOM     15  C   UNL d   1      52.159  32.061  52.473  0.00  0.00     0.288 C 
ATOM     16  N   UNL d   1      52.235  31.252  52.328  0.00  0.00    -0.181 NA
ATOM     17  O   UNL d   1      51.707  32.531  51.966  0.00  0.00    -0.265 OA
BRANCH  16  18
ATOM     18  C   UNL d   1      52.687  30.783  52.835  0.00  0.00     0.219 A 
ATOM     19  S   UNL d   1      52.519  30.419  53.551  0.00  0.00    -0.019 SA
ATOM     20  C   UNL d   1      53.190  30.021  53.804  0.00  0.00     0.165 A 
ATOM     21  N   UNL d   1      53.767  30.138  53.247  0.00  0.00    -0.133 NA
ATOM     22  N   UNL d   1      53.466  30.607  52.645  0.00  0.00    -0.120 NA
BRANCH  20  23
ATOM     23  S   UNL d   1      53.273  29.578  54.495  0.00  0.00    -0.059 SA
BRANCH  23  24
ATOM     24  C   UNL d   1      53.374  28.766  54.447  0.00  0.00     0.037 C 
ATOM     25  C   UNL d   1      53.476  28.321  55.145  0.00  0.00     0.008 C 
ENDBRANCH  23  24
ENDBRANCH  20  23
ENDBRANCH  16  18
ENDBRANCH  14  15
ENDBRANCH   1  14
TORSDOF 6
ENDMDL
MODEL 5
REMARK VINA RESULT:      -4.2      1.712      3.024
REMARK  6 active torsions:
REMARK  status: ('A' for Active; 'I' for Inactive)
REMARK    1  A    between atoms: S_15  and  C_4 
REMARK    2  A    between atoms: C_7  and  N_13 
REMARK    3  A    between atoms: S_20  and  C_11 
REMARK       I    between atoms: N_13  and  C_16 
REMARK    4  A    between atoms: C_21  and  S_15 
REMARK    5  A    between atoms: C_16  and  C_21 
REMARK    6  A    between atoms: C_23  and  S_20 
ROOT
ATOM      1  S   UNL d   1      51.821  32.898  52.624  0.00  0.00    -0.044 SA
ENDROOT
BRANCH   1   2
ATOM      2  C   UNL d   1      52.057  32.139  52.873  0.00  0.00     0.182 A 
ATOM      3  N   UNL d   1      52.861  31.921  52.837  0.00  0.00    -0.222 NA
ATOM      4  C   UNL d   1      53.091  31.179  53.080  0.00  0.00     0.095 A 
ATOM      5  C   UNL d   1      52.534  30.640  53.362  0.00  0.00     0.104 A 
ATOM      6  C   UNL d   1      53.832  30.820  53.106  0.00  0.00     0.026 A 
ATOM      7  C   UNL d   1      51.746  30.843  53.401  0.00  0.00     0.274 A 
ATOM      8  S   UNL d   1      52.931  29.948  53.562  0.00  0.00    -0.081 SA
ATOM      9  N   UNL d   1      51.500  31.599  53.154  0.00  0.00    -0.251 N 
ATOM     10  O   UNL d   1      51.189  30.304  53.683  0.00  0.00    -0.266 OA
ATOM     11  C   UNL d   1      50.697  31.811  53.192  0.00  0.00     0.104 C 
ATOM     12  C   UNL d   1      53.736  30.064  53.402  0.00  0.00     0.031 A 
ATOM     13  C   UNL d   1      54.343  29.518  53.518  0.00  0.00     0.007 C 
ENDBRANCH   1   2
BRANCH   1  14
ATOM     14  C   UNL d   1      52.164  33.565  52.969  0.00  0.00     0.101 C 
BRANCH  14  15
ATOM     15  C   UNL d   1      51.997  34.317  52.669  0.00  0.00     0.288 C 
ATOM     16  N   UNL d   1      52.277  34.988  53.059  0.00  0.00    -0.181 NA
ATOM     17  O   UNL d   1      51.552  34.396  51.979  0.00  0.00    -0.265 OA
BRANCH  16  18
ATOM     18  C   UNL d   1      52.722  34.907  53.749  0.00  0.00     0.219 A 
ATOM     19  S   UNL d   1      53.510  34.718  53.883  0.00  0.00    -0.019 SA
ATOM     20  C   UNL d   1      53.644  34.720  54.692  0.00  0.00     0.165 A 
ATOM     21  N   UNL d   1      52.945  34.910  55.055  0.00  0.00    -0.133 NA
ATOM     22  N   UNL d   1      52.370  35.027  54.481  0.00  0.00    -0.120 NA
BRANCH  20  23
ATOM     23  S   UNL d   1      54.356  34.560  55.077  0.00  0.00    -0.059 SA
BRANCH  23  24
ATOM     24  C   UNL d   1      54.606  33.784  55.161  0.00  0.00     0.037 C 
ATOM     25  C   UNL d   1      55.413  33.623  55.297  0.00  0.00     0.008 C 
ENDBRANCH  23  24
ENDBRANCH  20  23
ENDBRANCH  16  18
ENDBRANCH  14  15
ENDBRANCH   1  14
TORSDOF 6
ENDMDL
MODEL 6
REMARK VINA RESULT:      -4.2      2.605      4.069
REMARK  6 active torsions:
REMARK  status: ('A' for Active; 'I' for Inactive)
REMARK    1  A    between atoms: S_15  and  C_4 
REMARK    2  A    between atoms: C_7  and  N_13 
REMARK    3  A    between atoms: S_20  and  C_11 
REMARK       I    between atoms: N_13  and  C_16 
REMARK    4  A    between atoms: C_21  and  S_15 
REMARK    5  A    between atoms: C_16  and  C_21 
REMARK    6  A    between atoms: C_23  and  S_20 
ROOT
ATOM      1  S   UNL d   1      49.993  34.033  52.529  0.00  0.00    -0.044 SA
ENDROOT
BRANCH   1   2
ATOM      2  C   UNL d   1      50.726  34.025  52.926  0.00  0.00     0.182 A 
ATOM      3  N   UNL d   1      51.105  34.743  53.113  0.00  0.00    -0.222 NA
ATOM      4  C   UNL d   1      51.821  34.735  53.500  0.00  0.00     0.095 A 
ATOM      5  C   UNL d   1      52.175  34.020  53.711  0.00  0.00     0.104 A 
ATOM      6  C   UNL d   1      52.313  35.348  53.750  0.00  0.00     0.026 A 
ATOM      7  C   UNL d   1      51.812  33.313  53.533  0.00  0.00     0.274 A 
ATOM      8  S   UNL d   1      52.884  34.191  54.090  0.00  0.00    -0.081 SA
ATOM      9  N   UNL d   1      51.080  33.310  53.137  0.00  0.00    -0.251 N 
ATOM     10  O   UNL d   1      52.165  32.598  53.743  0.00  0.00    -0.266 OA
ATOM     11  C   UNL d   1      50.706  32.590  52.953  0.00  0.00     0.104 C 
ATOM     12  C   UNL d   1      52.966  35.015  54.113  0.00  0.00     0.031 A 
ATOM     13  C   UNL d   1      53.593  35.438  54.441  0.00  0.00     0.007 C 
ENDBRANCH   1   2
BRANCH   1  14
ATOM     14  C   UNL d   1      49.547  34.727  52.510  0.00  0.00     0.101 C 
BRANCH  14  15
ATOM     15  C   UNL d   1      49.055  34.884  51.865  0.00  0.00     0.288 C 
ATOM     16  N   UNL d   1      48.418  35.401  51.949  0.00  0.00    -0.181 NA
ATOM     17  O   UNL d   1      49.201  34.523  51.137  0.00  0.00    -0.265 OA
BRANCH  16  18
ATOM     18  C   UNL d   1      48.272  35.761  52.677  0.00  0.00     0.219 A 
ATOM     19  S   UNL d   1      47.757  35.584  53.291  0.00  0.00    -0.019 SA
ATOM     20  C   UNL d   1      47.856  36.143  53.883  0.00  0.00     0.165 A 
ATOM     21  N   UNL d   1      48.428  36.661  53.636  0.00  0.00    -0.133 NA
ATOM     22  N   UNL d   1      48.692  36.434  52.893  0.00  0.00    -0.120 NA
BRANCH  20  23
ATOM     23  S   UNL d   1      47.453  36.182  54.602  0.00  0.00    -0.059 SA
BRANCH  23  24
ATOM     24  C   UNL d   1      46.814  36.689  54.682  0.00  0.00     0.037 C 
ATOM     25  C   UNL d   1      46.366  36.681  55.385  0.00  0.00     0.008 C 
ENDBRANCH  23  24
ENDBRANCH  20  23
ENDBRANCH  16  18
ENDBRANCH  14  15
ENDBRANCH   1  14
TORSDOF 6
ENDMDL
