MODEL 1
REMARK VINA RESULT:      -5.0      0.000      0.000
REMARK  4 active torsions:
REMARK  status: ('A' for Active; 'I' for Inactive)
REMARK    1  A    between atoms: S_12  and  C_5 
REMARK       I    between atoms: N_7  and  C_9 
REMARK    2  A    between atoms: C_19  and  N_8 
REMARK    3  A    between atoms: C_9  and  C_14 
REMARK    4  A    between atoms: C_14  and  S_12 
ROOT
ATOM      1  C   UNL d   1     -44.305  13.225  21.833  0.00  0.00     0.098 C 
ENDROOT
BRANCH   1   2
ATOM      2  C   UNL d   1     -43.599  12.825  21.688  0.00  0.00     0.272 C 
ATOM      3  N   UNL d   1     -42.939  13.236  21.406  0.00  0.00    -0.269 N 
ATOM      4  C   UNL d   1     -42.990  14.045  21.271  0.00  0.00     0.102 A 
ATOM      5  C   UNL d   1     -42.236  12.838  21.262  0.00  0.00     0.102 A 
ATOM      6  C   UNL d   1     -42.330  14.456  20.990  0.00  0.00     0.100 A 
ATOM      7  N   UNL d   1     -41.624  14.055  20.844  0.00  0.00    -0.301 N 
ATOM      8  C   UNL d   1     -41.580  13.247  20.981  0.00  0.00     0.100 A 
ATOM      9  O   UNL d   1     -43.558  12.013  21.827  0.00  0.00    -0.266 OA
BRANCH   7  10
ATOM     10  C   UNL d   1     -40.968  14.463  20.564  0.00  0.00     0.064 A 
ATOM     11  C   UNL d   1     -40.702  14.344  19.796  0.00  0.00     0.018 A 
ATOM     12  C   UNL d   1     -40.043  14.755  19.516  0.00  0.00     0.002 A 
ATOM     13  C   UNL d   1     -39.651  15.282  20.004  0.00  0.00     0.000 A 
ATOM     14  C   UNL d   1     -39.916  15.403  20.776  0.00  0.00     0.002 A 
ATOM     15  C   UNL d   1     -40.572  14.995  21.056  0.00  0.00     0.018 A 
ENDBRANCH   7  10
ENDBRANCH   1   2
BRANCH   1  16
ATOM     16  S   UNL d   1     -44.939  12.833  22.192  0.00  0.00    -0.060 SA
BRANCH  16  17
ATOM     17  C   UNL d   1     -45.613  13.263  22.422  0.00  0.00     0.137 A 
ATOM     18  C   UNL d   1     -46.282  12.876  22.705  0.00  0.00     0.141 A 
ATOM     19  O   UNL d   1     -46.444  12.076  22.823  0.00  0.00    -0.303 OA
ATOM     20  C   UNL d   1     -46.949  13.312  22.932  0.00  0.00     0.110 A 
ATOM     21  C   UNL d   1     -47.217  12.014  23.124  0.00  0.00     0.102 A 
ATOM     22  C   UNL d   1     -47.675  11.361  23.345  0.00  0.00     0.025 A 
ATOM     23  C   UNL d   1     -47.522  12.780  23.188  0.00  0.00     0.043 A 
ATOM     24  C   UNL d   1     -48.442  11.481  23.632  0.00  0.00     0.002 A 
ATOM     25  C   UNL d   1     -48.751  12.243  23.698  0.00  0.00     0.000 A 
ATOM     26  C   UNL d   1     -48.293  12.898  23.476  0.00  0.00     0.004 A 
ATOM     27  N   UNL d   1     -46.937  14.134  22.870  0.00  0.00    -0.222 NA
ATOM     28  C   UNL d   1     -46.269  14.522  22.587  0.00  0.00     0.200 A 
ATOM     29  N   UNL d   1     -45.607  14.092  22.362  0.00  0.00    -0.215 NA
ENDBRANCH  16  17
ENDBRANCH   1  16
TORSDOF 4
ENDMDL
MODEL 2
REMARK VINA RESULT:      -4.7      1.382      6.511
REMARK  4 active torsions:
REMARK  status: ('A' for Active; 'I' for Inactive)
REMARK    1  A    between atoms: S_12  and  C_5 
REMARK       I    between atoms: N_7  and  C_9 
REMARK    2  A    between atoms: C_19  and  N_8 
REMARK    3  A    between atoms: C_9  and  C_14 
REMARK    4  A    between atoms: C_14  and  S_12 
ROOT
ATOM      1  C   UNL d   1     -42.731  13.594  21.172  0.00  0.00     0.098 C 
ENDROOT
BRANCH   1   2
ATOM      2  C   UNL d   1     -43.076  12.904  21.464  0.00  0.00     0.272 C 
ATOM      3  N   UNL d   1     -43.850  12.918  21.754  0.00  0.00    -0.269 N 
ATOM      4  C   UNL d   1     -44.275  13.622  21.750  0.00  0.00     0.102 A 
ATOM      5  C   UNL d   1     -44.195  12.232  22.044  0.00  0.00     0.102 A 
ATOM      6  C   UNL d   1     -45.049  13.636  22.039  0.00  0.00     0.100 A 
ATOM      7  N   UNL d   1     -45.394  12.946  22.331  0.00  0.00    -0.301 N 
ATOM      8  C   UNL d   1     -44.964  12.246  22.332  0.00  0.00     0.100 A 
ATOM      9  O   UNL d   1     -42.642  12.204  21.464  0.00  0.00    -0.266 OA
BRANCH   7  10
ATOM     10  C   UNL d   1     -46.164  12.958  22.619  0.00  0.00     0.064 A 
ATOM     11  C   UNL d   1     -46.725  13.454  22.282  0.00  0.00     0.018 A 
ATOM     12  C   UNL d   1     -47.498  13.466  22.572  0.00  0.00     0.002 A 
ATOM     13  C   UNL d   1     -47.707  12.982  23.199  0.00  0.00     0.000 A 
ATOM     14  C   UNL d   1     -47.145  12.484  23.539  0.00  0.00     0.002 A 
ATOM     15  C   UNL d   1     -46.376  12.471  23.251  0.00  0.00     0.018 A 
ENDBRANCH   7  10
ENDBRANCH   1   2
BRANCH   1  16
ATOM     16  S   UNL d   1     -41.994  13.564  20.798  0.00  0.00    -0.060 SA
BRANCH  16  17
ATOM     17  C   UNL d   1     -41.593  14.271  20.619  0.00  0.00     0.137 A 
ATOM     18  C   UNL d   1     -41.155  14.341  19.926  0.00  0.00     0.141 A 
ATOM     19  O   UNL d   1     -41.013  13.810  19.311  0.00  0.00    -0.303 OA
ATOM     20  C   UNL d   1     -40.759  15.049  19.755  0.00  0.00     0.110 A 
ATOM     21  C   UNL d   1     -40.526  14.191  18.754  0.00  0.00     0.102 A 
ATOM     22  C   UNL d   1     -40.206  13.938  18.033  0.00  0.00     0.025 A 
ATOM     23  C   UNL d   1     -40.374  14.954  19.034  0.00  0.00     0.043 A 
ATOM     24  C   UNL d   1     -39.732  14.456  17.595  0.00  0.00     0.002 A 
ATOM     25  C   UNL d   1     -39.577  15.218  17.870  0.00  0.00     0.000 A 
ATOM     26  C   UNL d   1     -39.897  15.472  18.592  0.00  0.00     0.004 A 
ATOM     27  N   UNL d   1     -40.808  15.680  20.283  0.00  0.00    -0.222 NA
ATOM     28  C   UNL d   1     -41.246  15.611  20.976  0.00  0.00     0.200 A 
ATOM     29  N   UNL d   1     -41.639  14.910  21.148  0.00  0.00    -0.215 NA
ENDBRANCH  16  17
ENDBRANCH   1  16
TORSDOF 4
ENDMDL
MODEL 3
REMARK VINA RESULT:      -4.2      1.232      6.675
REMARK  4 active torsions:
REMARK  status: ('A' for Active; 'I' for Inactive)
REMARK    1  A    between atoms: S_12  and  C_5 
REMARK       I    between atoms: N_7  and  C_9 
REMARK    2  A    between atoms: C_19  and  N_8 
REMARK    3  A    between atoms: C_9  and  C_14 
REMARK    4  A    between atoms: C_14  and  S_12 
ROOT
ATOM      1  C   UNL d   1     -45.595  13.143  22.358  0.00  0.00     0.098 C 
ENDROOT
BRANCH   1   2
ATOM      2  C   UNL d   1     -46.194  13.669  22.570  0.00  0.00     0.272 C 
ATOM      3  N   UNL d   1     -46.968  13.397  22.673  0.00  0.00    -0.269 N 
ATOM      4  C   UNL d   1     -47.138  12.601  22.564  0.00  0.00     0.102 A 
ATOM      5  C   UNL d   1     -47.564  13.920  22.885  0.00  0.00     0.102 A 
ATOM      6  C   UNL d   1     -47.913  12.329  22.667  0.00  0.00     0.100 A 
ATOM      7  N   UNL d   1     -48.511  12.856  22.880  0.00  0.00    -0.301 N 
ATOM      8  C   UNL d   1     -48.333  13.650  22.987  0.00  0.00     0.100 A 
ATOM      9  O   UNL d   1     -46.013  14.466  22.678  0.00  0.00    -0.266 OA
BRANCH   7  10
ATOM     10  C   UNL d   1     -49.281  12.586  22.982  0.00  0.00     0.064 A 
ATOM     11  C   UNL d   1     -49.879  12.840  22.481  0.00  0.00     0.018 A 
ATOM     12  C   UNL d   1     -50.652  12.569  22.586  0.00  0.00     0.002 A 
ATOM     13  C   UNL d   1     -50.824  12.045  23.191  0.00  0.00     0.000 A 
ATOM     14  C   UNL d   1     -50.224  11.789  23.696  0.00  0.00     0.002 A 
ATOM     15  C   UNL d   1     -49.454  12.058  23.593  0.00  0.00     0.018 A 
ENDBRANCH   7  10
ENDBRANCH   1   2
BRANCH   1  16
ATOM     16  S   UNL d   1     -44.932  13.413  21.943  0.00  0.00    -0.060 SA
BRANCH  16  17
ATOM     17  C   UNL d   1     -44.235  12.959  21.939  0.00  0.00     0.137 A 
ATOM     18  C   UNL d   1     -43.528  13.277  21.664  0.00  0.00     0.141 A 
ATOM     19  O   UNL d   1     -43.342  14.023  21.363  0.00  0.00    -0.303 OA
ATOM     20  C   UNL d   1     -42.838  12.818  21.664  0.00  0.00     0.110 A 
ATOM     21  C   UNL d   1     -42.533  14.026  21.174  0.00  0.00     0.102 A 
ATOM     22  C   UNL d   1     -42.040  14.612  20.856  0.00  0.00     0.025 A 
ATOM     23  C   UNL d   1     -42.228  13.281  21.362  0.00  0.00     0.043 A 
ATOM     24  C   UNL d   1     -41.240  14.444  20.729  0.00  0.00     0.002 A 
ATOM     25  C   UNL d   1     -40.931  13.702  20.915  0.00  0.00     0.000 A 
ATOM     26  C   UNL d   1     -41.424  13.115  21.233  0.00  0.00     0.004 A 
ATOM     27  N   UNL d   1     -42.867  12.042  21.940  0.00  0.00    -0.222 NA
ATOM     28  C   UNL d   1     -43.573  11.723  22.215  0.00  0.00     0.200 A 
ATOM     29  N   UNL d   1     -44.258  12.176  22.216  0.00  0.00    -0.215 NA
ENDBRANCH  16  17
ENDBRANCH   1  16
TORSDOF 4
ENDMDL
MODEL 4
REMARK VINA RESULT:      -4.1      1.354      2.101
REMARK  4 active torsions:
REMARK  status: ('A' for Active; 'I' for Inactive)
REMARK    1  A    between atoms: S_12  and  C_5 
REMARK       I    between atoms: N_7  and  C_9 
REMARK    2  A    between atoms: C_19  and  N_8 
REMARK    3  A    between atoms: C_9  and  C_14 
REMARK    4  A    between atoms: C_14  and  S_12 
ROOT
ATOM      1  C   UNL d   1     -42.801  12.952  21.441  0.00  0.00     0.098 C 
ENDROOT
BRANCH   1   2
ATOM      2  C   UNL d   1     -42.388  13.234  20.785  0.00  0.00     0.272 C 
ATOM      3  N   UNL d   1     -41.658  13.608  20.884  0.00  0.00    -0.269 N 
ATOM      4  C   UNL d   1     -41.344  13.699  21.639  0.00  0.00     0.102 A 
ATOM      5  C   UNL d   1     -41.246  13.889  20.232  0.00  0.00     0.102 A 
ATOM      6  C   UNL d   1     -40.614  14.073  21.738  0.00  0.00     0.100 A 
ATOM      7  N   UNL d   1     -40.201  14.355  21.082  0.00  0.00    -0.301 N 
ATOM      8  C   UNL d   1     -40.520  14.262  20.331  0.00  0.00     0.100 A 
ATOM      9  O   UNL d   1     -42.710  13.139  20.033  0.00  0.00    -0.266 OA
BRANCH   7  10
ATOM     10  C   UNL d   1     -39.475  14.728  21.179  0.00  0.00     0.064 A 
ATOM     11  C   UNL d   1     -38.801  14.287  21.340  0.00  0.00     0.018 A 
ATOM     12  C   UNL d   1     -38.073  14.663  21.438  0.00  0.00     0.002 A 
ATOM     13  C   UNL d   1     -38.020  15.477  21.375  0.00  0.00     0.000 A 
ATOM     14  C   UNL d   1     -38.695  15.921  21.213  0.00  0.00     0.002 A 
ATOM     15  C   UNL d   1     -39.421  15.549  21.116  0.00  0.00     0.018 A 
ENDBRANCH   7  10
ENDBRANCH   1   2
BRANCH   1  16
ATOM     16  S   UNL d   1     -43.628  12.930  21.433  0.00  0.00    -0.060 SA
BRANCH  16  17
ATOM     17  C   UNL d   1     -44.033  12.477  22.003  0.00  0.00     0.137 A 
ATOM     18  C   UNL d   1     -44.783  12.699  22.259  0.00  0.00     0.141 A 
ATOM     19  O   UNL d   1     -45.267  13.336  22.055  0.00  0.00    -0.303 OA
ATOM     20  C   UNL d   1     -45.179  12.244  22.826  0.00  0.00     0.110 A 
ATOM     21  C   UNL d   1     -45.968  13.275  22.497  0.00  0.00     0.102 A 
ATOM     22  C   UNL d   1     -46.648  13.748  22.526  0.00  0.00     0.025 A 
ATOM     23  C   UNL d   1     -45.907  12.600  22.970  0.00  0.00     0.043 A 
ATOM     24  C   UNL d   1     -47.267  13.538  23.034  0.00  0.00     0.002 A 
ATOM     25  C   UNL d   1     -47.211  12.865  23.508  0.00  0.00     0.000 A 
ATOM     26  C   UNL d   1     -46.531  12.391  23.479  0.00  0.00     0.004 A 
ATOM     27  N   UNL d   1     -44.818  11.568  23.130  0.00  0.00    -0.222 NA
ATOM     28  C   UNL d   1     -44.069  11.345  22.874  0.00  0.00     0.200 A 
ATOM     29  N   UNL d   1     -43.673  11.795  22.312  0.00  0.00    -0.215 NA
ENDBRANCH  16  17
ENDBRANCH   1  16
TORSDOF 4
ENDMDL
MODEL 5
REMARK VINA RESULT:      -3.8      1.125      1.850
REMARK  4 active torsions:
REMARK  status: ('A' for Active; 'I' for Inactive)
REMARK    1  A    between atoms: S_12  and  C_5 
REMARK       I    between atoms: N_7  and  C_9 
REMARK    2  A    between atoms: C_19  and  N_8 
REMARK    3  A    between atoms: C_9  and  C_14 
REMARK    4  A    between atoms: C_14  and  S_12 
ROOT
ATOM      1  C   UNL d   1     -45.807  12.921  22.572  0.00  0.00     0.098 C 
ENDROOT
BRANCH   1   2
ATOM      2  C   UNL d   1     -45.135  12.442  22.577  0.00  0.00     0.272 C 
ATOM      3  N   UNL d   1     -44.444  12.694  22.199  0.00  0.00    -0.269 N 
ATOM      4  C   UNL d   1     -44.428  13.422  21.819  0.00  0.00     0.102 A 
ATOM      5  C   UNL d   1     -43.775  12.218  22.204  0.00  0.00     0.102 A 
ATOM      6  C   UNL d   1     -43.737  13.674  21.442  0.00  0.00     0.100 A 
ATOM      7  N   UNL d   1     -43.065  13.195  21.447  0.00  0.00    -0.301 N 
ATOM      8  C   UNL d   1     -43.088  12.468  21.828  0.00  0.00     0.100 A 
ATOM      9  O   UNL d   1     -45.160  11.713  22.961  0.00  0.00    -0.266 OA
BRANCH   7  10
ATOM     10  C   UNL d   1     -42.378  13.444  21.072  0.00  0.00     0.064 A 
ATOM     11  C   UNL d   1     -41.721  13.664  21.513  0.00  0.00     0.018 A 
ATOM     12  C   UNL d   1     -41.031  13.914  21.135  0.00  0.00     0.002 A 
ATOM     13  C   UNL d   1     -40.999  13.944  20.318  0.00  0.00     0.000 A 
ATOM     14  C   UNL d   1     -41.658  13.724  19.873  0.00  0.00     0.002 A 
ATOM     15  C   UNL d   1     -42.346  13.475  20.248  0.00  0.00     0.018 A 
ENDBRANCH   7  10
ENDBRANCH   1   2
BRANCH   1  16
ATOM     16  S   UNL d   1     -46.496  12.672  22.957  0.00  0.00    -0.060 SA
BRANCH  16  17
ATOM     17  C   UNL d   1     -47.176  13.151  22.931  0.00  0.00     0.137 A 
ATOM     18  C   UNL d   1     -47.917  12.837  23.104  0.00  0.00     0.141 A 
ATOM     19  O   UNL d   1     -48.154  12.076  23.318  0.00  0.00    -0.303 OA
ATOM     20  C   UNL d   1     -48.590  13.320  23.077  0.00  0.00     0.110 A 
ATOM     21  C   UNL d   1     -48.979  12.086  23.424  0.00  0.00     0.102 A 
ATOM     22  C   UNL d   1     -49.518  11.495  23.637  0.00  0.00     0.025 A 
ATOM     23  C   UNL d   1     -49.241  12.856  23.274  0.00  0.00     0.043 A 
ATOM     24  C   UNL d   1     -50.322  11.681  23.698  0.00  0.00     0.002 A 
ATOM     25  C   UNL d   1     -50.589  12.447  23.549  0.00  0.00     0.000 A 
ATOM     26  C   UNL d   1     -50.049  13.040  23.336  0.00  0.00     0.004 A 
ATOM     27  N   UNL d   1     -48.511  14.115  22.875  0.00  0.00    -0.222 NA
ATOM     28  C   UNL d   1     -47.771  14.430  22.702  0.00  0.00     0.200 A 
ATOM     29  N   UNL d   1     -47.103  13.954  22.729  0.00  0.00    -0.215 NA
ENDBRANCH  16  17
ENDBRANCH   1  16
TORSDOF 4
ENDMDL
MODEL 6
REMARK VINA RESULT:      -3.4      1.630      2.917
REMARK  4 active torsions:
REMARK  status: ('A' for Active; 'I' for Inactive)
REMARK    1  A    between atoms: S_12  and  C_5 
REMARK       I    between atoms: N_7  and  C_9 
REMARK    2  A    between atoms: C_19  and  N_8 
REMARK    3  A    between atoms: C_9  and  C_14 
REMARK    4  A    between atoms: C_14  and  S_12 
ROOT
ATOM      1  C   UNL d   1     -42.167  13.587  20.887  0.00  0.00     0.098 C 
ENDROOT
BRANCH   1   2
ATOM      2  C   UNL d   1     -41.691  14.251  20.773  0.00  0.00     0.272 C 
ATOM      3  N   UNL d   1     -41.237  14.321  20.085  0.00  0.00    -0.269 N 
ATOM      4  C   UNL d   1     -41.262  13.728  19.517  0.00  0.00     0.102 A 
ATOM      5  C   UNL d   1     -40.763  14.981  19.970  0.00  0.00     0.102 A 
ATOM      6  C   UNL d   1     -40.808  13.799  18.830  0.00  0.00     0.100 A 
ATOM      7  N   UNL d   1     -40.331  14.462  18.715  0.00  0.00    -0.301 N 
ATOM      8  C   UNL d   1     -40.311  15.052  19.287  0.00  0.00     0.100 A 
ATOM      9  O   UNL d   1     -41.673  14.840  21.348  0.00  0.00    -0.266 OA
BRANCH   7  10
ATOM     10  C   UNL d   1     -39.879  14.533  18.032  0.00  0.00     0.064 A 
ATOM     11  C   UNL d   1     -39.170  14.127  17.960  0.00  0.00     0.018 A 
ATOM     12  C   UNL d   1     -38.717  14.200  17.274  0.00  0.00     0.002 A 
ATOM     13  C   UNL d   1     -38.974  14.677  16.662  0.00  0.00     0.000 A 
ATOM     14  C   UNL d   1     -39.687  15.087  16.732  0.00  0.00     0.002 A 
ATOM     15  C   UNL d   1     -40.139  15.015  17.415  0.00  0.00     0.018 A 
ENDBRANCH   7  10
ENDBRANCH   1   2
BRANCH   1  16
ATOM     16  S   UNL d   1     -42.929  13.672  21.200  0.00  0.00    -0.060 SA
BRANCH  16  17
ATOM     17  C   UNL d   1     -43.282  13.034  21.602  0.00  0.00     0.137 A 
ATOM     18  C   UNL d   1     -44.053  13.091  21.883  0.00  0.00     0.141 A 
ATOM     19  O   UNL d   1     -44.606  13.703  21.849  0.00  0.00    -0.303 OA
ATOM     20  C   UNL d   1     -44.397  12.452  22.283  0.00  0.00     0.110 A 
ATOM     21  C   UNL d   1     -45.298  13.442  22.230  0.00  0.00     0.102 A 
ATOM     22  C   UNL d   1     -46.028  13.809  22.366  0.00  0.00     0.025 A 
ATOM     23  C   UNL d   1     -45.162  12.671  22.495  0.00  0.00     0.043 A 
ATOM     24  C   UNL d   1     -46.621  13.397  22.770  0.00  0.00     0.002 A 
ATOM     25  C   UNL d   1     -46.490  12.627  23.037  0.00  0.00     0.000 A 
ATOM     26  C   UNL d   1     -45.759  12.259  22.901  0.00  0.00     0.004 A 
ATOM     27  N   UNL d   1     -43.962  11.762  22.397  0.00  0.00    -0.222 NA
ATOM     28  C   UNL d   1     -43.190  11.704  22.116  0.00  0.00     0.200 A 
ATOM     29  N   UNL d   1     -42.847  12.336  21.720  0.00  0.00    -0.215 NA
ENDBRANCH  16  17
ENDBRANCH   1  16
TORSDOF 4
ENDMDL
MODEL 7
REMARK VINA RESULT:      -2.8      4.737      6.720
REMARK  4 active torsions:
REMARK  status: ('A' for Active; 'I' for Inactive)
REMARK    1  A    between atoms: S_12  and  C_5 
REMARK       I    between atoms: N_7  and  C_9 
REMARK    2  A    between atoms: C_19  and  N_8 
REMARK    3  A    between atoms: C_9  and  C_14 
REMARK    4  A    between atoms: C_14  and  S_12 
ROOT
ATOM      1  C   UNL d   1     -40.447  14.712  19.398  0.00  0.00     0.098 C 
ENDROOT
BRANCH   1   2
ATOM      2  C   UNL d   1     -40.585  15.106  18.687  0.00  0.00     0.272 C 
ATOM      3  N   UNL d   1     -40.143  14.915  18.015  0.00  0.00    -0.269 N 
ATOM      4  C   UNL d   1     -39.566  14.332  18.058  0.00  0.00     0.102 A 
ATOM      5  C   UNL d   1     -40.279  15.307  17.306  0.00  0.00     0.102 A 
ATOM      6  C   UNL d   1     -39.124  14.141  17.385  0.00  0.00     0.100 A 
ATOM      7  N   UNL d   1     -39.262  14.534  16.674  0.00  0.00    -0.301 N 
ATOM      8  C   UNL d   1     -39.840  15.117  16.638  0.00  0.00     0.100 A 
ATOM      9  O   UNL d   1     -41.165  15.690  18.653  0.00  0.00    -0.266 OA
BRANCH   7  10
ATOM     10  C   UNL d   1     -38.823  14.345  16.005  0.00  0.00     0.064 A 
ATOM     11  C   UNL d   1     -38.730  14.894  15.402  0.00  0.00     0.018 A 
ATOM     12  C   UNL d   1     -38.289  14.703  14.731  0.00  0.00     0.002 A 
ATOM     13  C   UNL d   1     -37.943  13.964  14.665  0.00  0.00     0.000 A 
ATOM     14  C   UNL d   1     -38.035  13.411  15.270  0.00  0.00     0.002 A 
ATOM     15  C   UNL d   1     -38.474  13.601  15.939  0.00  0.00     0.018 A 
ENDBRANCH   7  10
ENDBRANCH   1   2
BRANCH   1  16
ATOM     16  S   UNL d   1     -40.844  14.946  20.086  0.00  0.00    -0.060 SA
BRANCH  16  17
ATOM     17  C   UNL d   1     -40.677  14.565  20.807  0.00  0.00     0.137 A 
ATOM     18  C   UNL d   1     -40.049  14.814  21.277  0.00  0.00     0.141 A 
ATOM     19  O   UNL d   1     -39.496  15.419  21.179  0.00  0.00    -0.303 OA
ATOM     20  C   UNL d   1     -39.889  14.430  21.994  0.00  0.00     0.110 A 
ATOM     21  C   UNL d   1     -38.990  15.410  21.839  0.00  0.00     0.102 A 
ATOM     22  C   UNL d   1     -38.339  15.880  22.045  0.00  0.00     0.025 A 
ATOM     23  C   UNL d   1     -39.238  14.798  22.337  0.00  0.00     0.043 A 
ATOM     24  C   UNL d   1     -37.940  15.732  22.754  0.00  0.00     0.002 A 
ATOM     25  C   UNL d   1     -38.183  15.123  23.254  0.00  0.00     0.000 A 
ATOM     26  C   UNL d   1     -38.834  14.652  23.048  0.00  0.00     0.004 A 
ATOM     27  N   UNL d   1     -40.362  13.798  22.230  0.00  0.00    -0.222 NA
ATOM     28  C   UNL d   1     -40.990  13.548  21.760  0.00  0.00     0.200 A 
ATOM     29  N   UNL d   1     -41.150  13.927  21.050  0.00  0.00    -0.215 NA
ENDBRANCH  16  17
ENDBRANCH   1  16
TORSDOF 4
ENDMDL
