MODEL 1
REMARK VINA RESULT:      22.1      0.000      0.000
REMARK  7 active torsions:
REMARK  status: ('A' for Active; 'I' for Inactive)
REMARK    1  A    between atoms: C_13  and  C_4 
REMARK    2  A    between atoms: N_16  and  C_6 
REMARK    3  A    between atoms: C_17  and  C_9 
REMARK    4  A    between atoms: N_11  and  C_19 
REMARK    5  A    between atoms: C_21  and  N_16 
REMARK    6  A    between atoms: C_19  and  C_20 
REMARK    7  A    between atoms: C_20  and  C_21 
ROOT
ATOM      1  C   UNL d   1      46.232 -18.131  43.034  0.00  0.00     0.168 A 
ATOM      2  N   UNL d   1      46.145 -17.400  43.416  0.00  0.00    -0.184 N 
ATOM      3  N   UNL d   1      46.374 -16.730  42.186  0.00  0.00    -0.162 NA
ATOM      4  C   UNL d   1      46.387 -18.154  42.244  0.00  0.00     0.055 A 
ATOM      5  N   UNL d   1      46.159 -18.821  43.467  0.00  0.00    -0.227 NA
ATOM      6  C   UNL d   1      45.988 -17.387  44.216  0.00  0.00     0.218 A 
ATOM      7  C   UNL d   1      46.462 -17.460  41.804  0.00  0.00     0.104 A 
ATOM      8  C   UNL d   1      45.915 -18.104  44.653  0.00  0.00     0.071 A 
ATOM      9  C   UNL d   1      46.004 -18.800  44.261  0.00  0.00     0.087 A 
ATOM     10  C   UNL d   1      46.616 -17.485  41.017  0.00  0.00     0.023 C 
ENDROOT
BRANCH   6  11
ATOM     11  N   UNL d   1      45.898 -16.640  44.611  0.00  0.00    -0.380 NA
BRANCH  11  12
ATOM     12  C   UNL d   1      45.760 -15.876  44.954  0.00  0.00     0.164 C 
BRANCH  12  13
ATOM     13  C   UNL d   1      45.620 -15.218  44.450  0.00  0.00     0.054 C 
BRANCH  13  14
ATOM     14  C   UNL d   1      45.325 -14.497  44.778  0.00  0.00     0.084 C 
BRANCH  14  15
ATOM     15  N   UNL d   1      45.326 -13.786  44.309  0.00  0.00    -0.285 N 
ATOM     16  C   UNL d   1      45.833 -13.121  44.411  0.00  0.00     0.183 A 
ATOM     17  N   UNL d   1      45.638 -12.542  43.819  0.00  0.00    -0.222 NA
ATOM     18  C   UNL d   1      45.005 -12.857  43.351  0.00  0.00     0.120 A 
ATOM     19  C   UNL d   1      44.813 -13.621  43.651  0.00  0.00     0.102 A 
ENDBRANCH  14  15
ENDBRANCH  13  14
ENDBRANCH  12  13
ENDBRANCH  11  12
ENDBRANCH   6  11
BRANCH   9  20
ATOM     20  C   UNL d   1      45.928 -19.528  44.711  0.00  0.00     0.018 C 
ATOM     21  C   UNL d   1      46.640 -19.959  44.939  0.00  0.00     0.002 C 
ATOM     22  C   UNL d   1      45.154 -19.824  44.930  0.00  0.00     0.002 C 
ENDBRANCH   9  20
BRANCH   4  23
ATOM     23  C   UNL d   1      46.475 -18.892  41.858  0.00  0.00     0.004 A 
ATOM     24  C   UNL d   1      46.475 -18.926  41.043  0.00  0.00     0.000 A 
ATOM     25  C   UNL d   1      46.562 -19.653  40.663  0.00  0.00     0.000 A 
ATOM     26  C   UNL d   1      46.647 -20.330  41.106  0.00  0.00     0.000 A 
ATOM     27  C   UNL d   1      46.647 -20.290  41.929  0.00  0.00     0.000 A 
ATOM     28  C   UNL d   1      46.561 -19.571  42.295  0.00  0.00     0.000 A 
ENDBRANCH   4  23
TORSDOF 7
ENDMDL
