MODEL 1
REMARK VINA RESULT:      28.5      0.000      0.000
REMARK  1 active torsions:
REMARK  status: ('A' for Active; 'I' for Inactive)
REMARK    1  A    between atoms: C_8  and  C_4 
ROOT
ATOM      1  N   UNL d   1     -57.638 -98.987 -43.961  0.00  0.00    -0.211 NA
ATOM      2  C   UNL d   1     -58.452 -98.883 -44.048  0.00  0.00     0.140 A 
ATOM      3  C   UNL d   1     -58.800 -98.870 -44.802  0.00  0.00     0.051 A 
ATOM      4  C   UNL d   1     -57.160 -99.080 -44.633  0.00  0.00     0.183 A 
ATOM      5  C   UNL d   1     -58.314 -98.965 -45.485  0.00  0.00     0.104 A 
ATOM      6  O   UNL d   1     -57.499 -99.069 -45.391  0.00  0.00    -0.289 OA
ATOM      7  S   UNL d   1     -58.929 -98.790 -43.376  0.00  0.00    -0.057 SA
ATOM      8  C   UNL d   1     -59.612 -98.767 -44.899  0.00  0.00     0.004 A 
ATOM      9  C   UNL d   1     -58.651 -98.953 -46.231  0.00  0.00     0.025 A 
ATOM     10  C   UNL d   1     -59.950 -98.756 -45.650  0.00  0.00     0.000 A 
ATOM     11  C   UNL d   1     -59.472 -98.849 -46.323  0.00  0.00     0.002 A 
ENDROOT
BRANCH   4  12
ATOM     12  C   UNL d   1     -56.337 -99.185 -44.550  0.00  0.00     0.041 A 
ATOM     13  C   UNL d   1     -55.817 -98.755 -45.020  0.00  0.00     0.004 A 
ATOM     14  C   UNL d   1     -55.011 -98.859 -44.937  0.00  0.00     0.000 A 
ATOM     15  C   UNL d   1     -54.720 -99.395 -44.383  0.00  0.00     0.000 A 
ATOM     16  C   UNL d   1     -55.240 -99.821 -43.918  0.00  0.00     0.000 A 
ATOM     17  C   UNL d   1     -56.063 -99.716 -44.001  0.00  0.00     0.004 A 
ENDBRANCH   4  12
TORSDOF 1
ENDMDL
