MODEL 1
REMARK VINA RESULT:      -2.5      0.000      0.000
REMARK  0 active torsions:
REMARK  status: ('A' for Active; 'I' for Inactive)
ROOT
ATOM      1  N   UNL d   1      46.553 -18.914  43.648  0.00  0.00    -0.219 NA
ATOM      2  C   UNL d   1      46.604 -19.628  44.059  0.00  0.00     0.215 A 
ATOM      3  S   UNL d   1      46.645 -20.239  43.514  0.00  0.00    -0.045 SA
ATOM      4  C   UNL d   1      46.563 -19.090  42.842  0.00  0.00     0.090 A 
ATOM      5  C   UNL d   1      46.620 -19.913  42.753  0.00  0.00     0.050 A 
ATOM      6  N   UNL d   1      46.612 -19.713  44.883  0.00  0.00    -0.120 N 
ATOM      7  C   UNL d   1      46.523 -18.544  42.224  0.00  0.00     0.021 C 
ATOM      8  C   UNL d   1      46.647 -20.329  42.048  0.00  0.00     0.009 C 
ENDROOT
TORSDOF 0
ENDMDL
MODEL 2
REMARK VINA RESULT:      -1.8      5.931      6.525
REMARK  0 active torsions:
REMARK  status: ('A' for Active; 'I' for Inactive)
ROOT
ATOM      1  N   UNL d   1      45.160 -13.818  43.864  0.00  0.00    -0.219 NA
ATOM      2  C   UNL d   1      45.479 -14.118  44.563  0.00  0.00     0.215 A 
ATOM      3  S   UNL d   1      45.864 -13.510  44.955  0.00  0.00    -0.045 SA
ATOM      4  C   UNL d   1      45.351 -13.016  43.827  0.00  0.00     0.090 A 
ATOM      5  C   UNL d   1      45.789 -12.820  44.503  0.00  0.00     0.050 A 
ATOM      6  N   UNL d   1      45.419 -14.902  44.825  0.00  0.00    -0.120 N 
ATOM      7  C   UNL d   1      45.145 -12.494  43.222  0.00  0.00     0.021 C 
ATOM      8  C   UNL d   1      46.094 -12.083  44.693  0.00  0.00     0.009 C 
ENDROOT
TORSDOF 0
ENDMDL
MODEL 3
REMARK VINA RESULT:      -1.8      1.212      1.843
REMARK  0 active torsions:
REMARK  status: ('A' for Active; 'I' for Inactive)
ROOT
ATOM      1  N   UNL d   1      46.634 -18.938  42.426  0.00  0.00    -0.219 NA
ATOM      2  C   UNL d   1      46.642 -19.662  42.028  0.00  0.00     0.215 A 
ATOM      3  S   UNL d   1      46.645 -20.264  42.583  0.00  0.00    -0.045 SA
ATOM      4  C   UNL d   1      46.632 -19.099  43.235  0.00  0.00     0.090 A 
ATOM      5  C   UNL d   1      46.639 -19.922  43.338  0.00  0.00     0.050 A 
ATOM      6  N   UNL d   1      46.646 -19.761  41.206  0.00  0.00    -0.120 N 
ATOM      7  C   UNL d   1      46.625 -18.541  43.842  0.00  0.00     0.021 C 
ATOM      8  C   UNL d   1      46.640 -20.327  44.051  0.00  0.00     0.009 C 
ENDROOT
TORSDOF 0
ENDMDL
MODEL 4
REMARK VINA RESULT:      -1.5      6.277      6.873
REMARK  0 active torsions:
REMARK  status: ('A' for Active; 'I' for Inactive)
ROOT
ATOM      1  N   UNL d   1      45.699 -12.404  43.831  0.00  0.00    -0.219 NA
ATOM      2  C   UNL d   1      45.066 -12.596  43.337  0.00  0.00     0.215 A 
ATOM      3  S   UNL d   1      44.778 -13.330  43.557  0.00  0.00    -0.045 SA
ATOM      4  C   UNL d   1      45.800 -13.029  44.360  0.00  0.00     0.090 A 
ATOM      5  C   UNL d   1      45.230 -13.608  44.194  0.00  0.00     0.050 A 
ATOM      6  N   UNL d   1      44.772 -12.125  42.722  0.00  0.00    -0.120 N 
ATOM      7  C   UNL d   1      46.370 -13.075  44.955  0.00  0.00     0.021 C 
ATOM      8  C   UNL d   1      45.128 -14.321  44.584  0.00  0.00     0.009 C 
ENDROOT
TORSDOF 0
ENDMDL
MODEL 5
REMARK VINA RESULT:       0.2      7.965      8.035
REMARK  0 active torsions:
REMARK  status: ('A' for Active; 'I' for Inactive)
ROOT
ATOM      1  N   UNL d   1      44.909 -14.741  37.179  0.00  0.00    -0.219 NA
ATOM      2  C   UNL d   1      45.505 -15.076  36.716  0.00  0.00     0.215 A 
ATOM      3  S   UNL d   1      45.203 -15.741  36.345  0.00  0.00    -0.045 SA
ATOM      4  C   UNL d   1      44.234 -15.207  37.091  0.00  0.00     0.090 A 
ATOM      5  C   UNL d   1      44.412 -15.831  36.573  0.00  0.00     0.050 A 
ATOM      6  N   UNL d   1      46.277 -14.787  36.639  0.00  0.00    -0.120 N 
ATOM      7  C   UNL d   1      43.504 -15.080  37.454  0.00  0.00     0.021 C 
ATOM      8  C   UNL d   1      43.904 -16.426  36.330  0.00  0.00     0.009 C 
ENDROOT
TORSDOF 0
ENDMDL
