MODEL 1
REMARK VINA RESULT:      -2.0      0.000      0.000
REMARK  5 active torsions:
REMARK  status: ('A' for Active; 'I' for Inactive)
REMARK    1  A    between atoms: C_2  and  S_1 
REMARK    2  A    between atoms: N_4  and  S_1 
REMARK    3  A    between atoms: C_3  and  N_5 
REMARK    4  A    between atoms: O_26  and  C_14 
REMARK    5  A    between atoms: O_27  and  C_24 
ROOT
ATOM      1  N   UNL d   1     -41.887-122.889 -50.913  0.00  0.00    -0.226 N 
ATOM      2  N   UNL d   1     -41.985-123.151 -49.294  0.00  0.00    -0.319 N 
ATOM      3  C   UNL d   1     -41.470-123.510 -50.572  0.00  0.00     0.110 A 
ATOM      4  C   UNL d   1     -42.354-122.398 -50.448  0.00  0.00     0.110 A 
ATOM      5  C   UNL d   1     -42.407-122.523 -49.638  0.00  0.00     0.096 A 
ATOM      6  C   UNL d   1     -41.519-123.642 -49.755  0.00  0.00     0.096 A 
ENDROOT
BRANCH   1   7
ATOM      7  S   UNL d   1     -41.838-122.757 -51.726  0.00  0.00     0.273 S 
ATOM      8  O   UNL d   1     -41.126-123.174 -51.737  0.00  0.00    -0.200 OA
ATOM      9  O   UNL d   1     -42.549-122.339 -51.723  0.00  0.00    -0.200 OA
BRANCH   7  10
ATOM     10  C   UNL d   1     -41.767-122.638 -52.539  0.00  0.00     0.128 A 
ATOM     11  C   UNL d   1     -42.012-123.226 -53.052  0.00  0.00     0.039 A 
ATOM     12  C   UNL d   1     -41.946-123.118 -53.867  0.00  0.00     0.095 A 
ATOM     13  C   UNL d   1     -41.631-122.413 -54.164  0.00  0.00     0.026 A 
ATOM     14  C   UNL d   1     -41.383-121.820 -53.641  0.00  0.00     0.027 A 
ATOM     15  C   UNL d   1     -41.452-121.935 -52.827  0.00  0.00     0.106 A 
BRANCH  12  16
ATOM     16  O   UNL d   1     -42.191-123.704 -54.388  0.00  0.00    -0.328 OA
ATOM     17  C   UNL d   1     -42.306-123.520 -55.186  0.00  0.00     0.181 C 
ENDBRANCH  12  16
BRANCH  15  18
ATOM     18  O   UNL d   1     -41.208-121.349 -52.302  0.00  0.00    -0.327 OA
ATOM     19  C   UNL d   1     -41.123-120.572 -52.571  0.00  0.00     0.181 C 
ENDBRANCH  15  18
ENDBRANCH   7  10
ENDBRANCH   1   7
BRANCH   2  20
ATOM     20  C   UNL d   1     -42.042-123.273 -48.480  0.00  0.00     0.107 A 
ATOM     21  C   UNL d   1     -42.760-123.460 -48.310  0.00  0.00    -0.002 A 
ATOM     22  C   UNL d   1     -42.820-123.580 -47.521  0.00  0.00    -0.006 A 
ATOM     23  C   UNL d   1     -42.148-123.471 -47.186  0.00  0.00    -0.022 A 
ATOM     24  C   UNL d   1     -43.496-123.817 -46.909  0.00  0.00    -0.001 A 
ATOM     25  C   UNL d   1     -41.409-123.288 -47.288  0.00  0.00     0.046 A 
ATOM     26  C   UNL d   1     -41.341-123.163 -48.101  0.00  0.00     0.038 A 
ATOM     27  C   UNL d   1     -41.993-123.504 -46.676  0.00  0.00    -0.022 A 
ATOM     28  C   UNL d   1     -42.694-123.614 -47.047  0.00  0.00    -0.006 A 
ATOM     29  C   UNL d   1     -42.637-123.489 -47.886  0.00  0.00    -0.002 A 
ENDBRANCH   2  20
TORSDOF 5
ENDMDL
