MODEL 1
REMARK VINA RESULT:      72.6      0.000      0.000
REMARK  5 active torsions:
REMARK  status: ('A' for Active; 'I' for Inactive)
REMARK    1  A    between atoms: C_10  and  N_1 
REMARK    2  A    between atoms: C_7  and  C_4 
REMARK    3  A    between atoms: O_16  and  C_9 
REMARK    4  A    between atoms: C_15  and  C_10 
REMARK    5  A    between atoms: O_17  and  C_11 
ROOT
ATOM      1  N   UNL d   1      57.025  48.558  50.398  0.00  0.00    -0.193 N 
ATOM      2  N   UNL d   1      57.769  48.649  50.747  0.00  0.00    -0.163 NA
ATOM      3  C   UNL d   1      56.817  49.042  49.774  0.00  0.00     0.281 A 
ATOM      4  C   UNL d   1      58.289  49.224  50.465  0.00  0.00     0.102 A 
ATOM      5  C   UNL d   1      57.323  49.615  49.485  0.00  0.00     0.064 A 
ATOM      6  C   UNL d   1      58.067  49.707  49.834  0.00  0.00     0.026 A 
ATOM      7  O   UNL d   1      56.074  48.950  49.425  0.00  0.00    -0.265 OA
ENDROOT
BRANCH   4   8
ATOM      8  C   UNL d   1      59.022  49.314  50.809  0.00  0.00     0.021 A 
ATOM      9  C   UNL d   1      59.714  49.108  50.387  0.00  0.00     0.028 A 
ATOM     10  C   UNL d   1      60.446  49.201  50.739  0.00  0.00     0.116 A 
ATOM     11  C   UNL d   1      60.510  49.498  51.507  0.00  0.00     0.116 A 
ATOM     12  C   UNL d   1      59.819  49.706  51.933  0.00  0.00     0.026 A 
ATOM     13  C   UNL d   1      59.085  49.611  51.576  0.00  0.00     0.004 A 
BRANCH  10  14
ATOM     14  O   UNL d   1      61.126  48.998  50.325  0.00  0.00    -0.326 OA
ATOM     15  C   UNL d   1      61.430  48.235  50.369  0.00  0.00     0.181 C 
ENDBRANCH  10  14
BRANCH  11  16
ATOM     16  O   UNL d   1      61.248  49.594  51.866  0.00  0.00    -0.326 OA
ATOM     17  C   UNL d   1      61.590  48.955  52.261  0.00  0.00     0.181 C 
ENDBRANCH  11  16
ENDBRANCH   4   8
BRANCH   1  18
ATOM     18  C   UNL d   1      56.512  47.984  50.683  0.00  0.00     0.104 C 
BRANCH  18  19
ATOM     19  C   UNL d   1      56.573  47.216  50.410  0.00  0.00     0.019 A 
ATOM     20  C   UNL d   1      56.301  47.022  49.655  0.00  0.00     0.002 A 
ATOM     21  C   UNL d   1      56.363  46.249  49.380  0.00  0.00     0.000 A 
ATOM     22  C   UNL d   1      56.701  45.670  49.873  0.00  0.00     0.000 A 
ATOM     23  C   UNL d   1      56.972  45.864  50.624  0.00  0.00     0.000 A 
ATOM     24  C   UNL d   1      56.906  46.644  50.892  0.00  0.00     0.002 A 
ENDBRANCH  18  19
ENDBRANCH   1  18
TORSDOF 5
ENDMDL
