MODEL 1
REMARK VINA RESULT:      59.6      0.000      0.000
REMARK  6 active torsions:
REMARK  status: ('A' for Active; 'I' for Inactive)
REMARK    1  A    between atoms: C_5  and  S_1 
REMARK    2  A    between atoms: N_6  and  S_1 
REMARK       I    between atoms: N_2  and  C_3 
REMARK    3  A    between atoms: C_3  and  C_14 
REMARK    4  A    between atoms: C_4  and  C_7 
REMARK    5  A    between atoms: C_23  and  N_6 
REMARK    6  A    between atoms: C_24  and  C_23 
ROOT
ATOM      1  C   UNL d   1      15.099  17.383  -4.934  0.00  0.00     0.057 A 
ATOM      2  C   UNL d   1      14.807  16.993  -5.601  0.00  0.00     0.005 A 
ATOM      3  C   UNL d   1      15.090  17.003  -4.201  0.00  0.00     0.005 A 
ATOM      4  C   UNL d   1      14.501  15.853  -4.803  0.00  0.00     0.020 A 
ATOM      5  C   UNL d   1      14.510  16.232  -5.536  0.00  0.00     0.002 A 
ATOM      6  C   UNL d   1      14.791  16.238  -4.135  0.00  0.00     0.002 A 
ENDROOT
BRANCH   4   7
ATOM      7  C   UNL d   1      14.202  15.088  -4.737  0.00  0.00     0.112 C 
BRANCH   7   8
ATOM      8  N   UNL d   1      13.635  14.917  -4.170  0.00  0.00    -0.157 NA
BRANCH   8   9
ATOM      9  S   UNL d   1      13.519  14.126  -3.929  0.00  0.00     0.285 S 
ATOM     10  O   UNL d   1      14.278  14.131  -3.576  0.00  0.00    -0.198 OA
ATOM     11  O   UNL d   1      12.773  14.127  -4.277  0.00  0.00    -0.198 OA
BRANCH   9  12
ATOM     12  C   UNL d   1      13.415  13.346  -3.686  0.00  0.00     0.105 A 
ATOM     13  C   UNL d   1      13.694  13.099  -2.956  0.00  0.00     0.017 A 
ATOM     14  C   UNL d   1      13.589  12.318  -2.713  0.00  0.00     0.072 A 
ATOM     15  C   UNL d   1      13.200  11.782  -3.213  0.00  0.00     0.004 A 
ATOM     16  C   UNL d   1      12.921  12.029  -3.944  0.00  0.00     0.001 A 
ATOM     17  C   UNL d   1      13.029  12.810  -4.178  0.00  0.00     0.013 A 
BRANCH  14  18
ATOM     18  C   UNL d   1      13.867  12.067  -1.982  0.00  0.00     0.419 C 
ATOM     19  F   UNL d   1      14.637  12.038  -2.283  0.00  0.00    -0.166 F 
ATOM     20  F   UNL d   1      13.097  12.095  -1.676  0.00  0.00    -0.166 F 
ATOM     21  F   UNL d   1      14.148  11.814  -1.242  0.00  0.00    -0.166 F 
ENDBRANCH  14  18
ENDBRANCH   9  12
ENDBRANCH   8   9
ENDBRANCH   7   8
ENDBRANCH   4   7
BRANCH   1  22
ATOM     22  C   UNL d   1      15.403  18.159  -4.999  0.00  0.00     0.265 C 
ATOM     23  N   UNL d   1      14.956  18.746  -5.377  0.00  0.00    -0.268 N 
ATOM     24  C   UNL d   1      14.213  18.563  -5.688  0.00  0.00     0.108 A 
ATOM     25  C   UNL d   1      15.257  19.511  -5.440  0.00  0.00     0.108 A 
ATOM     26  C   UNL d   1      13.767  19.154  -6.066  0.00  0.00     0.118 A 
ATOM     27  C   UNL d   1      13.021  18.972  -6.379  0.00  0.00     0.028 C 
ATOM     28  O   UNL d   1      14.069  19.919  -6.129  0.00  0.00    -0.304 OA
ATOM     29  C   UNL d   1      14.812  20.106  -5.819  0.00  0.00     0.118 A 
ATOM     30  C   UNL d   1      15.111  20.876  -5.885  0.00  0.00     0.028 C 
ATOM     31  O   UNL d   1      16.149  18.338  -4.685  0.00  0.00    -0.267 OA
ENDBRANCH   1  22
TORSDOF 6
ENDMDL
