MODEL 1
REMARK VINA RESULT:      11.8      0.000      0.000
REMARK  4 active torsions:
REMARK  status: ('A' for Active; 'I' for Inactive)
REMARK    1  A    between atoms: N_2  and  S_1 
REMARK    2  A    between atoms: C_7  and  S_1 
REMARK    3  A    between atoms: S_9  and  C_3 
REMARK    4  A    between atoms: C_13  and  S_9 
ROOT
ATOM      1  S   UNL d   1     -54.713-101.036 -37.253  0.00  0.00     0.273 S 
ATOM      2  O   UNL d   1     -54.714-101.619 -37.830  0.00  0.00    -0.200 OA
ATOM      3  O   UNL d   1     -54.712-100.626 -37.973  0.00  0.00    -0.200 OA
ENDROOT
BRANCH   1   4
ATOM      4  N   UNL d   1     -54.715-101.648 -36.689  0.00  0.00    -0.208 N 
ATOM      5  C   UNL d   1     -54.715-102.464 -36.856  0.00  0.00     0.189 A 
ATOM      6  N   UNL d   1     -54.717-102.875 -36.135  0.00  0.00    -0.219 NA
ATOM      7  C   UNL d   1     -54.718-102.312 -35.524  0.00  0.00     0.121 A 
ATOM      8  C   UNL d   1     -54.717-101.555 -35.860  0.00  0.00     0.114 A 
BRANCH   5   9
ATOM      9  S   UNL d   1     -54.713-102.807 -37.615  0.00  0.00    -0.049 SA
BRANCH   9  10
ATOM     10  C   UNL d   1     -55.419-102.861 -38.044  0.00  0.00     0.038 C 
ATOM     11  C   UNL d   1     -55.399-102.841 -38.869  0.00  0.00     0.008 C 
ENDBRANCH   9  10
ENDBRANCH   5   9
ENDBRANCH   1   4
BRANCH   1  12
ATOM     12  C   UNL d   1     -54.713-100.435 -36.683  0.00  0.00     0.104 A 
ATOM     13  C   UNL d   1     -54.712-100.635 -35.887  0.00  0.00     0.013 A 
ATOM     14  C   UNL d   1     -54.712-100.036 -35.321  0.00  0.00     0.001 A 
ATOM     15  C   UNL d   1     -54.712 -99.245 -35.555  0.00  0.00     0.000 A 
ATOM     16  C   UNL d   1     -54.712 -99.051 -36.353  0.00  0.00     0.001 A 
ATOM     17  C   UNL d   1     -54.713 -99.656 -36.921  0.00  0.00     0.013 A 
ENDBRANCH   1  12
TORSDOF 4
ENDMDL
