MODEL 1
REMARK VINA RESULT:      57.9      0.000      0.000
REMARK  4 active torsions:
REMARK  status: ('A' for Active; 'I' for Inactive)
REMARK    1  A    between atoms: C_3  and  S_1 
REMARK    2  A    between atoms: N_4  and  S_1 
REMARK    3  A    between atoms: C_2  and  C_8 
REMARK       I    between atoms: N_5  and  C_2 
REMARK    4  A    between atoms: C_14  and  N_5 
ROOT
ATOM      1  C   UNL d   1     -50.575  26.146  33.767  0.00  0.00     0.104 A 
ATOM      2  C   UNL d   1     -49.633  27.446  34.256  0.00  0.00     0.058 A 
ATOM      3  C   UNL d   1     -49.993  26.431  33.306  0.00  0.00     0.013 A 
ATOM      4  C   UNL d   1     -50.698  26.505  34.483  0.00  0.00     0.013 A 
ATOM      5  C   UNL d   1     -50.253  27.145  34.752  0.00  0.00     0.005 A 
ATOM      6  C   UNL d   1     -49.526  27.073  33.545  0.00  0.00     0.005 A 
ENDROOT
BRANCH   2   7
ATOM      7  C   UNL d   1     -49.154  28.103  34.501  0.00  0.00     0.279 C 
ATOM      8  N   UNL d   1     -48.605  28.041  35.054  0.00  0.00    -0.208 NA
ATOM      9  O   UNL d   1     -49.302  28.845  34.110  0.00  0.00    -0.265 OA
BRANCH   8  10
ATOM     10  C   UNL d   1     -48.154  28.697  35.272  0.00  0.00     0.085 A 
ATOM     11  C   UNL d   1     -47.348  28.638  35.281  0.00  0.00     0.020 A 
ATOM     12  C   UNL d   1     -46.899  29.294  35.499  0.00  0.00     0.013 A 
ATOM     13  C   UNL d   1     -47.255  30.009  35.708  0.00  0.00     0.058 A 
ATOM     14  C   UNL d   1     -48.090  30.058  35.696  0.00  0.00     0.013 A 
ATOM     15 CL   UNL d   1     -46.734  30.680  35.933  0.00  0.00    -0.082 Cl
ATOM     16  C   UNL d   1     -48.535  29.399  35.477  0.00  0.00     0.020 A 
ENDBRANCH   8  10
ENDBRANCH   2   7
BRANCH   1  17
ATOM     17  S   UNL d   1     -51.112  25.464  33.574  0.00  0.00     0.271 S 
ATOM     18  O   UNL d   1     -50.491  24.961  33.306  0.00  0.00    -0.200 OA
ATOM     19  O   UNL d   1     -51.702  25.950  33.831  0.00  0.00    -0.200 OA
BRANCH  17  20
ATOM     20  N   UNL d   1     -51.698  24.831  33.405  0.00  0.00    -0.226 N 
ATOM     21  C   UNL d   1     -51.444  24.036  33.347  0.00  0.00     0.111 C 
ATOM     22  C   UNL d   1     -52.495  25.020  33.306  0.00  0.00     0.111 C 
ENDBRANCH  17  20
ENDBRANCH   1  17
TORSDOF 4
ENDMDL
