MODEL 1
REMARK VINA RESULT:     -12.6      0.000      0.000
REMARK  2 active torsions:
REMARK  status: ('A' for Active; 'I' for Inactive)
REMARK    1  A    between atoms: C_12  and  C_4 
REMARK    2  A    between atoms: C_10  and  C_5 
ROOT
ATOM      1  N   UNL d   1      53.123  32.378  53.653  0.00  0.00    -0.208 N 
ATOM      2  N   UNL d   1      52.756  33.111  53.536  0.00  0.00    -0.163 NA
ATOM      3  C   UNL d   1      52.663  31.801  53.282  0.00  0.00     0.088 A 
ATOM      4  C   UNL d   1      53.811  32.171  54.046  0.00  0.00     0.183 A 
ATOM      5  C   UNL d   1      52.071  32.988  53.096  0.00  0.00     0.109 A 
ATOM      6  O   UNL d   1      54.044  31.382  54.071  0.00  0.00    -0.289 OA
ATOM      7  C   UNL d   1      52.011  32.181  52.937  0.00  0.00     0.041 A 
ATOM      8  C   UNL d   1      52.893  31.018  53.307  0.00  0.00     0.041 A 
ATOM      9  C   UNL d   1      53.587  30.803  53.703  0.00  0.00     0.103 A 
ATOM     10  C   UNL d   1      52.437  30.439  52.938  0.00  0.00     0.004 A 
ATOM     11  C   UNL d   1      53.820  30.015  53.728  0.00  0.00     0.025 A 
ATOM     12  C   UNL d   1      52.669  29.651  52.963  0.00  0.00     0.000 A 
ATOM     13  C   UNL d   1      53.363  29.438  53.359  0.00  0.00     0.002 A 
ENDROOT
BRANCH   4  14
ATOM     14  C   UNL d   1      54.269  32.749  54.415  0.00  0.00     0.041 A 
ATOM     15  C   UNL d   1      54.850  33.132  53.990  0.00  0.00     0.004 A 
ATOM     16  C   UNL d   1      55.314  33.716  54.359  0.00  0.00     0.000 A 
ATOM     17  C   UNL d   1      55.182  33.904  55.157  0.00  0.00     0.000 A 
ATOM     18  C   UNL d   1      54.589  33.507  55.577  0.00  0.00     0.000 A 
ATOM     19  C   UNL d   1      54.132  32.930  55.210  0.00  0.00     0.004 A 
ENDBRANCH   4  14
BRANCH   5  20
ATOM     20  C   UNL d   1      51.538  33.566  52.853  0.00  0.00     0.049 A 
ATOM     21  S   UNL d   1      50.829  33.756  53.223  0.00  0.00    -0.085 SA
ATOM     22  C   UNL d   1      50.473  34.363  52.795  0.00  0.00     0.035 A 
ATOM     23  C   UNL d   1      50.964  34.551  52.155  0.00  0.00     0.007 A 
ATOM     24  C   UNL d   1      51.621  34.064  52.185  0.00  0.00     0.009 A 
ENDBRANCH   5  20
TORSDOF 2
ENDMDL
MODEL 2
REMARK VINA RESULT:     -11.5      1.258      3.854
REMARK  2 active torsions:
REMARK  status: ('A' for Active; 'I' for Inactive)
REMARK    1  A    between atoms: C_12  and  C_4 
REMARK    2  A    between atoms: C_10  and  C_5 
ROOT
ATOM      1  N   UNL d   1      52.890  32.850  53.656  0.00  0.00    -0.208 N 
ATOM      2  N   UNL d   1      52.609  32.147  53.320  0.00  0.00    -0.163 NA
ATOM      3  C   UNL d   1      53.570  32.670  54.089  0.00  0.00     0.088 A 
ATOM      4  C   UNL d   1      52.612  33.620  53.619  0.00  0.00     0.183 A 
ATOM      5  C   UNL d   1      53.112  31.536  53.544  0.00  0.00     0.109 A 
ATOM      6  O   UNL d   1      53.015  34.217  54.018  0.00  0.00    -0.289 OA
ATOM      7  C   UNL d   1      53.706  31.855  54.019  0.00  0.00     0.041 A 
ATOM      8  C   UNL d   1      53.969  33.262  54.485  0.00  0.00     0.041 A 
ATOM      9  C   UNL d   1      53.693  34.042  54.452  0.00  0.00     0.103 A 
ATOM     10  C   UNL d   1      54.647  33.087  54.919  0.00  0.00     0.004 A 
ATOM     11  C   UNL d   1      54.095  34.639  54.850  0.00  0.00     0.025 A 
ATOM     12  C   UNL d   1      55.049  33.683  55.317  0.00  0.00     0.000 A 
ATOM     13  C   UNL d   1      54.772  34.462  55.283  0.00  0.00     0.002 A 
ENDROOT
BRANCH   4  14
ATOM     14  C   UNL d   1      51.933  33.797  53.185  0.00  0.00     0.041 A 
ATOM     15  C   UNL d   1      51.201  33.697  53.530  0.00  0.00     0.004 A 
ATOM     16  C   UNL d   1      50.514  33.875  53.096  0.00  0.00     0.000 A 
ATOM     17  C   UNL d   1      50.578  34.152  52.315  0.00  0.00     0.000 A 
ATOM     18  C   UNL d   1      51.330  34.248  51.978  0.00  0.00     0.000 A 
ATOM     19  C   UNL d   1      52.007  34.071  52.410  0.00  0.00     0.004 A 
ENDBRANCH   4  14
BRANCH   5  20
ATOM     20  C   UNL d   1      53.040  30.743  53.334  0.00  0.00     0.049 A 
ATOM     21  S   UNL d   1      53.081  30.101  53.845  0.00  0.00    -0.085 SA
ATOM     22  C   UNL d   1      52.980  29.415  53.401  0.00  0.00     0.035 A 
ATOM     23  C   UNL d   1      52.875  29.633  52.609  0.00  0.00     0.007 A 
ATOM     24  C   UNL d   1      52.911  30.449  52.561  0.00  0.00     0.009 A 
ENDBRANCH   5  20
TORSDOF 2
ENDMDL
MODEL 3
REMARK VINA RESULT:     -11.2      1.108      3.127
REMARK  2 active torsions:
REMARK  status: ('A' for Active; 'I' for Inactive)
REMARK    1  A    between atoms: C_12  and  C_4 
REMARK    2  A    between atoms: C_10  and  C_5 
ROOT
ATOM      1  N   UNL d   1      52.997  32.437  53.586  0.00  0.00    -0.208 N 
ATOM      2  N   UNL d   1      53.361  33.100  53.922  0.00  0.00    -0.163 NA
ATOM      3  C   UNL d   1      53.456  31.775  53.767  0.00  0.00     0.088 A 
ATOM      4  C   UNL d   1      52.311  32.359  53.144  0.00  0.00     0.183 A 
ATOM      5  C   UNL d   1      54.043  32.850  54.309  0.00  0.00     0.109 A 
ATOM      6  O   UNL d   1      52.081  31.614  52.879  0.00  0.00    -0.289 OA
ATOM      7  C   UNL d   1      54.105  32.033  54.215  0.00  0.00     0.041 A 
ATOM      8  C   UNL d   1      53.228  31.037  53.505  0.00  0.00     0.041 A 
ATOM      9  C   UNL d   1      52.537  30.951  53.058  0.00  0.00     0.103 A 
ATOM     10  C   UNL d   1      53.684  30.374  53.683  0.00  0.00     0.004 A 
ATOM     11  C   UNL d   1      52.306  30.208  52.793  0.00  0.00     0.025 A 
ATOM     12  C   UNL d   1      53.454  29.630  53.419  0.00  0.00     0.000 A 
ATOM     13  C   UNL d   1      52.762  29.546  52.972  0.00  0.00     0.002 A 
ENDROOT
BRANCH   4  14
ATOM     14  C   UNL d   1      51.854  33.022  52.964  0.00  0.00     0.041 A 
ATOM     15  C   UNL d   1      52.074  33.503  52.345  0.00  0.00     0.004 A 
ATOM     16  C   UNL d   1      51.616  34.173  52.161  0.00  0.00     0.000 A 
ATOM     17  C   UNL d   1      50.937  34.345  52.609  0.00  0.00     0.000 A 
ATOM     18  C   UNL d   1      50.726  33.846  53.236  0.00  0.00     0.000 A 
ATOM     19  C   UNL d   1      51.181  33.185  53.415  0.00  0.00     0.004 A 
ENDBRANCH   4  14
BRANCH   5  20
ATOM     20  C   UNL d   1      54.574  33.328  54.718  0.00  0.00     0.049 A 
ATOM     21  S   UNL d   1      54.530  33.529  55.514  0.00  0.00    -0.085 SA
ATOM     22  C   UNL d   1      55.173  34.013  55.690  0.00  0.00     0.035 A 
ATOM     23  C   UNL d   1      55.618  34.114  54.999  0.00  0.00     0.007 A 
ATOM     24  C   UNL d   1      55.255  33.694  54.398  0.00  0.00     0.009 A 
ENDBRANCH   5  20
TORSDOF 2
ENDMDL
MODEL 4
REMARK VINA RESULT:     -10.9      0.759      2.877
REMARK  2 active torsions:
REMARK  status: ('A' for Active; 'I' for Inactive)
REMARK    1  A    between atoms: C_12  and  C_4 
REMARK    2  A    between atoms: C_10  and  C_5 
ROOT
ATOM      1  N   UNL d   1      52.960  32.710  53.679  0.00  0.00    -0.208 N 
ATOM      2  N   UNL d   1      52.265  32.749  53.232  0.00  0.00    -0.163 NA
ATOM      3  C   UNL d   1      53.127  33.470  53.957  0.00  0.00     0.088 A 
ATOM      4  C   UNL d   1      53.453  32.082  53.864  0.00  0.00     0.183 A 
ATOM      5  C   UNL d   1      52.002  33.529  53.232  0.00  0.00     0.109 A 
ATOM      6  O   UNL d   1      54.119  32.212  54.330  0.00  0.00    -0.289 OA
ATOM      7  C   UNL d   1      52.532  33.976  53.679  0.00  0.00     0.041 A 
ATOM      8  C   UNL d   1      53.787  33.598  54.419  0.00  0.00     0.041 A 
ATOM      9  C   UNL d   1      54.289  32.969  54.610  0.00  0.00     0.103 A 
ATOM     10  C   UNL d   1      53.957  34.355  54.698  0.00  0.00     0.004 A 
ATOM     11  C   UNL d   1      54.955  33.097  55.075  0.00  0.00     0.025 A 
ATOM     12  C   UNL d   1      54.622  34.484  55.164  0.00  0.00     0.000 A 
ATOM     13  C   UNL d   1      55.123  33.853  55.353  0.00  0.00     0.002 A 
ENDROOT
BRANCH   4  14
ATOM     14  C   UNL d   1      53.284  31.324  53.586  0.00  0.00     0.041 A 
ATOM     15  C   UNL d   1      53.472  31.130  52.817  0.00  0.00     0.004 A 
ATOM     16  C   UNL d   1      53.303  30.367  52.532  0.00  0.00     0.000 A 
ATOM     17  C   UNL d   1      52.945  29.808  53.033  0.00  0.00     0.000 A 
ATOM     18  C   UNL d   1      52.761  30.020  53.813  0.00  0.00     0.000 A 
ATOM     19  C   UNL d   1      52.929  30.776  54.091  0.00  0.00     0.004 A 
ENDBRANCH   4  14
BRANCH   5  20
ATOM     20  C   UNL d   1      51.330  33.817  52.855  0.00  0.00     0.049 A 
ATOM     21  S   UNL d   1      50.582  33.888  53.186  0.00  0.00    -0.085 SA
ATOM     22  C   UNL d   1      50.078  34.201  52.614  0.00  0.00     0.035 A 
ATOM     23  C   UNL d   1      50.517  34.325  51.923  0.00  0.00     0.007 A 
ATOM     24  C   UNL d   1      51.288  34.091  52.065  0.00  0.00     0.009 A 
ENDBRANCH   5  20
TORSDOF 2
ENDMDL
MODEL 5
REMARK VINA RESULT:     -10.8      1.211      3.203
REMARK  2 active torsions:
REMARK  status: ('A' for Active; 'I' for Inactive)
REMARK    1  A    between atoms: C_12  and  C_4 
REMARK    2  A    between atoms: C_10  and  C_5 
ROOT
ATOM      1  N   UNL d   1      53.100  32.775  53.722  0.00  0.00    -0.208 N 
ATOM      2  N   UNL d   1      53.416  32.017  53.827  0.00  0.00    -0.163 NA
ATOM      3  C   UNL d   1      52.396  32.701  53.297  0.00  0.00     0.088 A 
ATOM      4  C   UNL d   1      53.366  33.512  53.959  0.00  0.00     0.183 A 
ATOM      5  C   UNL d   1      52.910  31.476  53.468  0.00  0.00     0.109 A 
ATOM      6  O   UNL d   1      52.927  34.183  53.772  0.00  0.00    -0.289 OA
ATOM      7  C   UNL d   1      52.279  31.894  53.140  0.00  0.00     0.041 A 
ATOM      8  C   UNL d   1      51.961  33.365  53.111  0.00  0.00     0.041 A 
ATOM      9  C   UNL d   1      52.224  34.113  53.348  0.00  0.00     0.103 A 
ATOM     10  C   UNL d   1      51.257  33.296  52.687  0.00  0.00     0.004 A 
ATOM     11  C   UNL d   1      51.786  34.783  53.161  0.00  0.00     0.025 A 
ATOM     12  C   UNL d   1      50.819  33.965  52.499  0.00  0.00     0.000 A 
ATOM     13  C   UNL d   1      51.084  34.712  52.737  0.00  0.00     0.002 A 
ENDROOT
BRANCH   4  14
ATOM     14  C   UNL d   1      54.070  33.584  54.384  0.00  0.00     0.041 A 
ATOM     15  C   UNL d   1      54.773  33.664  53.981  0.00  0.00     0.004 A 
ATOM     16  C   UNL d   1      55.485  33.737  54.406  0.00  0.00     0.000 A 
ATOM     17  C   UNL d   1      55.474  33.727  55.237  0.00  0.00     0.000 A 
ATOM     18  C   UNL d   1      54.750  33.645  55.633  0.00  0.00     0.000 A 
ATOM     19  C   UNL d   1      54.048  33.573  55.210  0.00  0.00     0.004 A 
ENDBRANCH   4  14
BRANCH   5  20
ATOM     20  C   UNL d   1      53.010  30.659  53.439  0.00  0.00     0.049 A 
ATOM     21  S   UNL d   1      52.864  30.176  52.791  0.00  0.00    -0.085 SA
ATOM     22  C   UNL d   1      53.039  29.401  53.006  0.00  0.00     0.035 A 
ATOM     23  C   UNL d   1      53.295  29.402  53.793  0.00  0.00     0.007 A 
ATOM     24  C   UNL d   1      53.280  30.174  54.066  0.00  0.00     0.009 A 
ENDBRANCH   5  20
TORSDOF 2
ENDMDL
