MODEL 1
REMARK VINA RESULT:      23.8      0.000      0.000
REMARK  3 active torsions:
REMARK  status: ('A' for Active; 'I' for Inactive)
REMARK    1  A    between atoms: C_8  and  S_1 
REMARK    2  A    between atoms: N_10  and  S_1 
REMARK    3  A    between atoms: C_17  and  N_10 
ROOT
ATOM      1  C   UNL d   1      45.674 -14.965  44.011  0.00  0.00     0.043 A 
ATOM      2  C   UNL d   1      45.954 -14.297  43.617  0.00  0.00     0.196 A 
ATOM      3  C   UNL d   1      44.568 -14.210  44.509  0.00  0.00     0.196 A 
ATOM      4  C   UNL d   1      44.982 -14.921  44.457  0.00  0.00     0.042 A 
ATOM      5  C   UNL d   1      45.541 -13.584  43.668  0.00  0.00     0.042 A 
ATOM      6  C   UNL d   1      44.848 -13.540  44.114  0.00  0.00     0.042 A 
ATOM      7  C   UNL d   1      45.807 -16.342  44.352  0.00  0.00     0.105 A 
ATOM      8  C   UNL d   1      46.087 -15.674  43.959  0.00  0.00     0.016 A 
ATOM      9  C   UNL d   1      44.701 -15.587  44.851  0.00  0.00     0.004 A 
ATOM     10  O   UNL d   1      46.646 -14.341  43.171  0.00  0.00    -0.287 OA
ATOM     11  O   UNL d   1      43.876 -14.166  44.955  0.00  0.00    -0.287 OA
ATOM     12  C   UNL d   1      45.115 -16.298  44.798  0.00  0.00     0.013 A 
ATOM     13  C   UNL d   1      45.820 -12.917  43.274  0.00  0.00     0.003 A 
ATOM     14  C   UNL d   1      44.435 -12.829  44.166  0.00  0.00     0.003 A 
ATOM     15  C   UNL d   1      44.715 -12.154  43.770  0.00  0.00     0.000 A 
ATOM     16  C   UNL d   1      45.407 -12.198  43.324  0.00  0.00     0.000 A 
ENDROOT
BRANCH   7  17
ATOM     17  S   UNL d   1      46.228 -17.064  44.299  0.00  0.00     0.285 S 
ATOM     18  O   UNL d   1      45.806 -17.362  44.955  0.00  0.00    -0.198 OA
ATOM     19  O   UNL d   1      46.647 -16.763  43.645  0.00  0.00    -0.198 OA
BRANCH  17  20
ATOM     20  N   UNL d   1      46.645 -17.782  44.247  0.00  0.00    -0.158 NA
BRANCH  20  21
ATOM     21  C   UNL d   1      46.412 -18.359  43.702  0.00  0.00     0.094 A 
ATOM     22  C   UNL d   1      46.181 -19.106  43.972  0.00  0.00     0.020 A 
ATOM     23  C   UNL d   1      45.945 -19.691  43.428  0.00  0.00     0.002 A 
ATOM     24  C   UNL d   1      45.942 -19.524  42.616  0.00  0.00     0.000 A 
ATOM     25  C   UNL d   1      46.178 -18.765  42.348  0.00  0.00     0.002 A 
ATOM     26  C   UNL d   1      46.409 -18.193  42.894  0.00  0.00     0.020 A 
ENDBRANCH  20  21
ENDBRANCH  17  20
ENDBRANCH   7  17
TORSDOF 3
ENDMDL
