MODEL 1
REMARK VINA RESULT:      72.7      0.000      0.000
REMARK  5 active torsions:
REMARK  status: ('A' for Active; 'I' for Inactive)
REMARK    1  A    between atoms: C_2  and  S_1 
REMARK    2  A    between atoms: N_4  and  S_1 
REMARK    3  A    between atoms: C_3  and  N_5 
REMARK    4  A    between atoms: O_26  and  C_14 
REMARK    5  A    between atoms: O_27  and  C_24 
ROOT
ATOM      1  N   UNL d   1     -49.731  27.384  34.176  0.00  0.00    -0.226 N 
ATOM      2  N   UNL d   1     -48.793  28.654  34.631  0.00  0.00    -0.319 N 
ATOM      3  C   UNL d   1     -49.568  27.986  33.640  0.00  0.00     0.110 A 
ATOM      4  C   UNL d   1     -49.427  27.414  34.938  0.00  0.00     0.110 A 
ATOM      5  C   UNL d   1     -48.958  28.046  35.172  0.00  0.00     0.096 A 
ATOM      6  C   UNL d   1     -49.095  28.627  33.870  0.00  0.00     0.096 A 
ENDROOT
BRANCH   1   7
ATOM      7  S   UNL d   1     -50.202  26.746  33.947  0.00  0.00     0.273 S 
ATOM      8  O   UNL d   1     -49.853  26.292  34.541  0.00  0.00    -0.200 OA
ATOM      9  O   UNL d   1     -50.556  27.194  33.351  0.00  0.00    -0.200 OA
BRANCH   7  10
ATOM     10  C   UNL d   1     -50.663  26.095  33.737  0.00  0.00     0.128 A 
ATOM     11  C   UNL d   1     -50.323  25.351  33.728  0.00  0.00     0.039 A 
ATOM     12  C   UNL d   1     -50.774  24.693  33.519  0.00  0.00     0.095 A 
ATOM     13  C   UNL d   1     -51.571  24.787  33.318  0.00  0.00     0.026 A 
ATOM     14  C   UNL d   1     -51.912  25.543  33.328  0.00  0.00     0.027 A 
ATOM     15  C   UNL d   1     -51.454  26.197  33.538  0.00  0.00     0.106 A 
BRANCH  12  16
ATOM     16  O   UNL d   1     -50.439  23.943  33.508  0.00  0.00    -0.328 OA
ATOM     17  C   UNL d   1     -50.929  23.276  33.491  0.00  0.00     0.181 C 
ENDBRANCH  12  16
BRANCH  15  18
ATOM     18  O   UNL d   1     -51.787  26.950  33.550  0.00  0.00    -0.327 OA
ATOM     19  C   UNL d   1     -52.572  27.051  33.311  0.00  0.00     0.181 C 
ENDBRANCH  15  18
ENDBRANCH   7  10
ENDBRANCH   1   7
BRANCH   2  20
ATOM     20  C   UNL d   1     -48.321  29.287  34.870  0.00  0.00     0.107 A 
ATOM     21  C   UNL d   1     -47.799  29.030  35.361  0.00  0.00    -0.002 A 
ATOM     22  C   UNL d   1     -47.339  29.641  35.596  0.00  0.00    -0.006 A 
ATOM     23  C   UNL d   1     -47.561  30.284  35.261  0.00  0.00    -0.022 A 
ATOM     24  C   UNL d   1     -46.604  29.768  36.172  0.00  0.00    -0.001 A 
ATOM     25  C   UNL d   1     -48.059  30.607  34.773  0.00  0.00     0.046 A 
ATOM     26  C   UNL d   1     -48.538  29.982  34.526  0.00  0.00     0.038 A 
ATOM     27  C   UNL d   1     -47.379  30.785  35.291  0.00  0.00    -0.022 A 
ATOM     28  C   UNL d   1     -47.159  30.097  35.636  0.00  0.00    -0.006 A 
ATOM     29  C   UNL d   1     -47.645  29.444  35.390  0.00  0.00    -0.002 A 
ENDBRANCH   2  20
TORSDOF 5
ENDMDL
MODEL 2
REMARK VINA RESULT:      75.4      0.978      1.726
REMARK  5 active torsions:
REMARK  status: ('A' for Active; 'I' for Inactive)
REMARK    1  A    between atoms: C_2  and  S_1 
REMARK    2  A    between atoms: N_4  and  S_1 
REMARK    3  A    between atoms: C_3  and  N_5 
REMARK    4  A    between atoms: O_26  and  C_14 
REMARK    5  A    between atoms: O_27  and  C_24 
ROOT
ATOM      1  N   UNL d   1     -50.269  26.638  34.061  0.00  0.00    -0.226 N 
ATOM      2  N   UNL d   1     -49.330  27.940  34.413  0.00  0.00    -0.319 N 
ATOM      3  C   UNL d   1     -49.934  26.712  34.809  0.00  0.00     0.110 A 
ATOM      4  C   UNL d   1     -50.137  27.212  33.489  0.00  0.00     0.110 A 
ATOM      5  C   UNL d   1     -49.669  27.865  33.657  0.00  0.00     0.096 A 
ATOM      6  C   UNL d   1     -49.460  27.369  34.986  0.00  0.00     0.096 A 
ENDROOT
BRANCH   1   7
ATOM      7  S   UNL d   1     -50.741  25.984  33.885  0.00  0.00     0.273 S 
ATOM      8  O   UNL d   1     -50.196  25.764  33.306  0.00  0.00    -0.200 OA
ATOM      9  O   UNL d   1     -51.290  26.198  34.462  0.00  0.00    -0.200 OA
BRANCH   7  10
ATOM     10  C   UNL d   1     -51.196  25.324  33.691  0.00  0.00     0.128 A 
ATOM     11  C   UNL d   1     -52.010  25.393  33.664  0.00  0.00     0.039 A 
ATOM     12  C   UNL d   1     -52.475  24.739  33.472  0.00  0.00     0.095 A 
ATOM     13  C   UNL d   1     -52.114  24.014  33.306  0.00  0.00     0.026 A 
ATOM     14  C   UNL d   1     -51.288  23.947  33.334  0.00  0.00     0.027 A 
ATOM     15  C   UNL d   1     -50.830  24.606  33.527  0.00  0.00     0.106 A 
BRANCH  12  16
ATOM     16  O   UNL d   1     -53.293  24.802  33.443  0.00  0.00    -0.328 OA
ATOM     17  C   UNL d   1     -53.755  24.116  33.409  0.00  0.00     0.181 C 
ENDBRANCH  12  16
BRANCH  15  18
ATOM     18  O   UNL d   1     -50.009  24.546  33.556  0.00  0.00    -0.327 OA
ATOM     19  C   UNL d   1     -49.659  23.802  33.639  0.00  0.00     0.181 C 
ENDBRANCH  15  18
ENDBRANCH   7  10
ENDBRANCH   1   7
BRANCH   2  20
ATOM     20  C   UNL d   1     -48.860  28.597  34.578  0.00  0.00     0.107 A 
ATOM     21  C   UNL d   1     -48.360  28.410  35.121  0.00  0.00    -0.002 A 
ATOM     22  C   UNL d   1     -47.902  29.046  35.284  0.00  0.00    -0.006 A 
ATOM     23  C   UNL d   1     -48.104  29.636  34.852  0.00  0.00    -0.022 A 
ATOM     24  C   UNL d   1     -47.188  29.250  35.865  0.00  0.00    -0.001 A 
ATOM     25  C   UNL d   1     -48.580  29.889  34.304  0.00  0.00     0.046 A 
ATOM     26  C   UNL d   1     -49.056  29.237  34.131  0.00  0.00     0.038 A 
ATOM     27  C   UNL d   1     -47.919  30.135  34.818  0.00  0.00    -0.022 A 
ATOM     28  C   UNL d   1     -47.719  29.502  35.266  0.00  0.00    -0.006 A 
ATOM     29  C   UNL d   1     -48.202  28.824  35.097  0.00  0.00    -0.002 A 
ENDBRANCH   2  20
TORSDOF 5
ENDMDL
