MODEL 1
REMARK VINA RESULT:      -2.0      0.000      0.000
REMARK  5 active torsions:
REMARK  status: ('A' for Active; 'I' for Inactive)
REMARK    1  A    between atoms: C_7  and  N_1 
REMARK    2  A    between atoms: C_2  and  C_6 
REMARK    3  A    between atoms: C_5  and  C_3 
REMARK    4  A    between atoms: N_8  and  C_5 
REMARK    5  A    between atoms: C_19  and  N_9 
ROOT
ATOM      1  C   UNL d   1      59.715  -1.782  29.019  0.00  0.00     0.102 A 
ATOM      2  C   UNL d   1      59.537  -0.550  29.519  0.00  0.00     0.126 A 
ATOM      3  O   UNL d   1      59.857  -1.295  29.676  0.00  0.00    -0.305 OA
ATOM      4  C   UNL d   1      59.304  -1.328  28.455  0.00  0.00     0.027 A 
ATOM      5  C   UNL d   1      59.198  -0.576  28.767  0.00  0.00     0.029 A 
ENDROOT
BRANCH   2   6
ATOM      6  C   UNL d   1      59.551   0.137  30.042  0.00  0.00     0.143 C 
ATOM      7  S   UNL d   1      60.167   0.682  29.982  0.00  0.00    -0.057 SA
BRANCH   6   8
ATOM      8  N   UNL d   1      58.927   0.231  30.605  0.00  0.00    -0.291 N 
ATOM      9  C   UNL d   1      58.159   0.403  30.374  0.00  0.00     0.100 A 
ATOM     10  C   UNL d   1      57.576   0.488  30.938  0.00  0.00     0.100 A 
ATOM     11  N   UNL d   1      57.727   0.409  31.729  0.00  0.00    -0.301 N 
ATOM     12  C   UNL d   1      58.510   0.231  31.989  0.00  0.00     0.100 A 
ATOM     13  C   UNL d   1      59.112   0.142  31.420  0.00  0.00     0.100 A 
BRANCH  11  14
ATOM     14  C   UNL d   1      57.118   0.500  32.286  0.00  0.00     0.064 A 
ATOM     15  C   UNL d   1      57.278   0.540  33.089  0.00  0.00     0.018 A 
ATOM     16  C   UNL d   1      56.665   0.631  33.631  0.00  0.00     0.002 A 
ATOM     17  C   UNL d   1      55.882   0.681  33.358  0.00  0.00     0.000 A 
ATOM     18  C   UNL d   1      55.723   0.641  32.555  0.00  0.00     0.002 A 
ATOM     19  C   UNL d   1      56.346   0.551  32.024  0.00  0.00     0.018 A 
ENDBRANCH  11  14
ENDBRANCH   6   8
ENDBRANCH   2   6
BRANCH   1  20
ATOM     20  C   UNL d   1      59.906  -2.575  28.864  0.00  0.00     0.045 A 
ATOM     21  C   UNL d   1      59.331  -3.167  28.951  0.00  0.00     0.129 A 
ATOM     22  C   UNL d   1      59.521  -3.955  28.796  0.00  0.00     0.024 A 
ATOM     23  C   UNL d   1      60.290  -4.168  28.551  0.00  0.00     0.002 A 
ATOM     24  C   UNL d   1      60.854  -3.569  28.467  0.00  0.00     0.000 A 
ATOM     25  C   UNL d   1      60.664  -2.781  28.622  0.00  0.00     0.004 A 
BRANCH  21  26
ATOM     26  N   UNL d   1      58.575  -2.978  29.190  0.00  0.00    -0.114 N 
ATOM     27  O   UNL d   1      57.950  -2.782  28.669  0.00  0.00    -0.532 OA
ATOM     28  O   UNL d   1      58.333  -2.957  29.979  0.00  0.00    -0.532 OA
ENDBRANCH  21  26
ENDBRANCH   1  20
TORSDOF 5
ENDMDL
MODEL 2
REMARK VINA RESULT:      -0.1      2.184      5.534
REMARK  5 active torsions:
REMARK  status: ('A' for Active; 'I' for Inactive)
REMARK    1  A    between atoms: C_7  and  N_1 
REMARK    2  A    between atoms: C_2  and  C_6 
REMARK    3  A    between atoms: C_5  and  C_3 
REMARK    4  A    between atoms: N_8  and  C_5 
REMARK    5  A    between atoms: C_19  and  N_9 
ROOT
ATOM      1  C   UNL d   1      56.633   0.002  32.957  0.00  0.00     0.102 A 
ATOM      2  C   UNL d   1      56.949  -0.083  31.656  0.00  0.00     0.126 A 
ATOM      3  O   UNL d   1      56.761   0.442  32.265  0.00  0.00    -0.305 OA
ATOM      4  C   UNL d   1      56.746  -0.801  32.768  0.00  0.00     0.027 A 
ATOM      5  C   UNL d   1      56.939  -0.846  31.971  0.00  0.00     0.029 A 
ENDROOT
BRANCH   2   6
ATOM      6  C   UNL d   1      57.127   0.122  30.837  0.00  0.00     0.143 C 
ATOM      7  S   UNL d   1      56.632   0.642  30.430  0.00  0.00    -0.057 SA
BRANCH   6   8
ATOM      8  N   UNL d   1      57.809  -0.220  30.472  0.00  0.00    -0.291 N 
ATOM      9  C   UNL d   1      58.504   0.203  30.375  0.00  0.00     0.100 A 
ATOM     10  C   UNL d   1      59.147  -0.152  30.019  0.00  0.00     0.100 A 
ATOM     11  N   UNL d   1      59.126  -0.915  29.754  0.00  0.00    -0.301 N 
ATOM     12  C   UNL d   1      58.421  -1.369  29.843  0.00  0.00     0.100 A 
ATOM     13  C   UNL d   1      57.758  -1.016  30.205  0.00  0.00     0.100 A 
BRANCH  11  14
ATOM     14  C   UNL d   1      59.793  -1.256  29.395  0.00  0.00     0.064 A 
ATOM     15  C   UNL d   1      60.432  -0.798  29.162  0.00  0.00     0.018 A 
ATOM     16  C   UNL d   1      61.087  -1.148  28.807  0.00  0.00     0.002 A 
ATOM     17  C   UNL d   1      61.096  -1.969  28.686  0.00  0.00     0.000 A 
ATOM     18  C   UNL d   1      60.457  -2.427  28.920  0.00  0.00     0.002 A 
ATOM     19  C   UNL d   1      59.808  -2.063  29.274  0.00  0.00     0.018 A 
ENDBRANCH  11  14
ENDBRANCH   6   8
ENDBRANCH   2   6
BRANCH   1  20
ATOM     20  C   UNL d   1      56.431   0.228  33.730  0.00  0.00     0.045 A 
ATOM     21  C   UNL d   1      55.636   0.228  33.969  0.00  0.00     0.129 A 
ATOM     22  C   UNL d   1      55.434   0.452  34.737  0.00  0.00     0.024 A 
ATOM     23  C   UNL d   1      56.024   0.681  35.283  0.00  0.00     0.002 A 
ATOM     24  C   UNL d   1      56.812   0.677  35.033  0.00  0.00     0.000 A 
ATOM     25  C   UNL d   1      57.014   0.452  34.265  0.00  0.00     0.004 A 
BRANCH  21  26
ATOM     26  N   UNL d   1      55.047   0.008  33.451  0.00  0.00    -0.114 N 
ATOM     27  O   UNL d   1      54.558   0.545  33.035  0.00  0.00    -0.532 OA
ATOM     28  O   UNL d   1      54.861  -0.775  33.271  0.00  0.00    -0.532 OA
ENDBRANCH  21  26
ENDBRANCH   1  20
TORSDOF 5
ENDMDL
