MODEL 1
REMARK VINA RESULT:      46.8      0.000      0.000
REMARK  3 active torsions:
REMARK  status: ('A' for Active; 'I' for Inactive)
REMARK    1  A    between atoms: N_2  and  C_1 
REMARK    2  A    between atoms: C_5  and  C_4 
REMARK       I    between atoms: N_6  and  C_5 
REMARK    3  A    between atoms: C_9  and  N_6 
ROOT
ATOM      1  C   UNL d   1      60.704  49.219  50.073  0.00  0.00     0.285 C 
ATOM      2  N   UNL d   1      60.037  49.706  50.041  0.00  0.00    -0.205 NA
ATOM      3  O   UNL d   1      61.250  49.216  49.476  0.00  0.00    -0.265 OA
ENDROOT
BRANCH   1   4
ATOM      4  C   UNL d   1      60.828  48.724  50.714  0.00  0.00     0.089 A 
ATOM      5  S   UNL d   1      60.691  47.936  50.708  0.00  0.00    -0.059 SA
ATOM      6  C   UNL d   1      60.870  47.608  51.427  0.00  0.00     0.156 A 
ATOM      7  C   UNL d   1      61.139  48.237  51.921  0.00  0.00     0.031 A 
ATOM      8  C   UNL d   1      61.112  48.935  51.473  0.00  0.00     0.014 A 
BRANCH   6   9
ATOM      9  N   UNL d   1      60.799  46.829  51.618  0.00  0.00    -0.107 N 
ATOM     10  O   UNL d   1      61.023  46.186  51.146  0.00  0.00    -0.531 OA
ATOM     11  O   UNL d   1      60.493  46.572  52.308  0.00  0.00    -0.531 OA
ENDBRANCH   6   9
ENDBRANCH   1   4
BRANCH   2  12
ATOM     12  C   UNL d   1      59.499  49.694  50.652  0.00  0.00     0.112 A 
ATOM     13  C   UNL d   1      58.691  49.677  50.486  0.00  0.00     0.158 A 
ATOM     14  F   UNL d   1      58.421  49.672  49.700  0.00  0.00    -0.203 F 
ATOM     15  C   UNL d   1      58.154  49.666  51.097  0.00  0.00     0.031 A 
ATOM     16  C   UNL d   1      58.419  49.671  51.878  0.00  0.00     0.002 A 
ATOM     17  C   UNL d   1      59.210  49.687  52.052  0.00  0.00     0.002 A 
ATOM     18  C   UNL d   1      59.764  49.700  51.434  0.00  0.00     0.021 A 
ENDBRANCH   2  12
TORSDOF 3
ENDMDL
