MODEL 1
REMARK VINA RESULT:      -4.0      0.000      0.000
REMARK  3 active torsions:
REMARK  status: ('A' for Active; 'I' for Inactive)
REMARK    1  A    between atoms: S_4  and  C_1 
REMARK    2  A    between atoms: N_3  and  C_2 
REMARK    3  A    between atoms: C_5  and  S_4 
ROOT
ATOM      1  C   UNL d   1     -41.852-122.582 -50.427  0.00  0.00     0.139 A 
ATOM      2  C   UNL d   1     -42.078-122.814 -49.668  0.00  0.00     0.188 A 
ATOM      3  N   UNL d   1     -42.460-122.333 -50.953  0.00  0.00    -0.216 NA
ATOM      4  C   UNL d   1     -42.823-122.815 -49.407  0.00  0.00     0.209 A 
ATOM      5  N   UNL d   1     -43.465-122.569 -49.915  0.00  0.00    -0.202 NA
ATOM      6  C   UNL d   1     -43.251-122.326 -50.703  0.00  0.00     0.201 A 
ATOM      7  N   UNL d   1     -43.113-123.040 -48.646  0.00  0.00    -0.125 N 
ENDROOT
BRANCH   1   8
ATOM      8  S   UNL d   1     -41.123-122.580 -50.683  0.00  0.00    -0.047 SA
BRANCH   8   9
ATOM      9  C   UNL d   1     -41.130-122.552 -51.628  0.00  0.00     0.115 A 
ATOM     10  N   UNL d   1     -41.145-121.777 -51.962  0.00  0.00    -0.217 NA
ATOM     11  C   UNL d   1     -41.152-121.700 -52.796  0.00  0.00     0.200 A 
ATOM     12  N   UNL d   1     -41.146-122.360 -53.277  0.00  0.00    -0.224 NA
ATOM     13  C   UNL d   1     -41.132-123.136 -52.936  0.00  0.00     0.085 A 
ATOM     14  C   UNL d   1     -41.124-123.225 -52.122  0.00  0.00     0.045 A 
ATOM     15  C   UNL d   1     -41.127-123.688 -53.362  0.00  0.00     0.021 C 
ENDBRANCH   8   9
ENDBRANCH   1   8
BRANCH   2  16
ATOM     16  N   UNL d   1     -41.465-123.062 -49.144  0.00  0.00    -0.108 N 
ATOM     17  O   UNL d   1     -41.138-123.815 -49.121  0.00  0.00    -0.532 OA
ATOM     18  O   UNL d   1     -41.123-122.547 -48.581  0.00  0.00    -0.532 OA
ENDBRANCH   2  16
TORSDOF 3
ENDMDL
MODEL 2
REMARK VINA RESULT:      -4.0      2.209      3.893
REMARK  3 active torsions:
REMARK  status: ('A' for Active; 'I' for Inactive)
REMARK    1  A    between atoms: S_4  and  C_1 
REMARK    2  A    between atoms: N_3  and  C_2 
REMARK    3  A    between atoms: C_5  and  S_4 
ROOT
ATOM      1  C   UNL d   1     -41.472-122.434 -52.980  0.00  0.00     0.139 A 
ATOM      2  C   UNL d   1     -41.771-122.401 -53.749  0.00  0.00     0.188 A 
ATOM      3  N   UNL d   1     -41.141-123.165 -52.725  0.00  0.00    -0.216 NA
ATOM      4  C   UNL d   1     -41.764-123.008 -54.254  0.00  0.00     0.209 A 
ATOM      5  N   UNL d   1     -41.436-123.764 -54.027  0.00  0.00    -0.202 NA
ATOM      6  C   UNL d   1     -41.123-123.817 -53.237  0.00  0.00     0.201 A 
ATOM      7  N   UNL d   1     -42.053-123.034 -55.048  0.00  0.00    -0.125 N 
ENDROOT
BRANCH   1   8
ATOM      8  S   UNL d   1     -41.478-121.841 -52.485  0.00  0.00    -0.047 SA
BRANCH   8   9
ATOM      9  C   UNL d   1     -41.751-122.154 -51.636  0.00  0.00     0.115 A 
ATOM     10  N   UNL d   1     -42.571-122.053 -51.466  0.00  0.00    -0.217 NA
ATOM     11  C   UNL d   1     -42.862-122.315 -50.725  0.00  0.00     0.200 A 
ATOM     12  N   UNL d   1     -42.363-122.662 -50.178  0.00  0.00    -0.224 NA
ATOM     13  C   UNL d   1     -41.540-122.761 -50.356  0.00  0.00     0.085 A 
ATOM     14  C   UNL d   1     -41.244-122.509 -51.076  0.00  0.00     0.045 A 
ATOM     15  C   UNL d   1     -41.129-123.059 -49.878  0.00  0.00     0.021 C 
ENDBRANCH   8   9
ENDBRANCH   1   8
BRANCH   2  16
ATOM     16  N   UNL d   1     -42.101-121.668 -54.001  0.00  0.00    -0.108 N 
ATOM     17  O   UNL d   1     -41.677-120.978 -54.136  0.00  0.00    -0.532 OA
ATOM     18  O   UNL d   1     -42.921-121.572 -54.142  0.00  0.00    -0.532 OA
ENDBRANCH   2  16
TORSDOF 3
ENDMDL
MODEL 3
REMARK VINA RESULT:      -3.8      1.920      2.669
REMARK  3 active torsions:
REMARK  status: ('A' for Active; 'I' for Inactive)
REMARK    1  A    between atoms: S_4  and  C_1 
REMARK    2  A    between atoms: N_3  and  C_2 
REMARK    3  A    between atoms: C_5  and  S_4 
ROOT
ATOM      1  C   UNL d   1     -41.470-122.322 -52.575  0.00  0.00     0.139 A 
ATOM      2  C   UNL d   1     -41.487-122.429 -51.756  0.00  0.00     0.188 A 
ATOM      3  N   UNL d   1     -41.286-122.994 -53.049  0.00  0.00    -0.216 NA
ATOM      4  C   UNL d   1     -41.342-123.116 -51.395  0.00  0.00     0.209 A 
ATOM      5  N   UNL d   1     -41.153-123.817 -51.846  0.00  0.00    -0.202 NA
ATOM      6  C   UNL d   1     -41.130-123.726 -52.693  0.00  0.00     0.201 A 
ATOM      7  N   UNL d   1     -41.345-123.285 -50.568  0.00  0.00    -0.125 N 
ENDROOT
BRANCH   1   8
ATOM      8  S   UNL d   1     -41.611-121.651 -52.929  0.00  0.00    -0.047 SA
BRANCH   8   9
ATOM      9  C   UNL d   1     -41.913-121.826 -53.807  0.00  0.00     0.115 A 
ATOM     10  N   UNL d   1     -42.748-121.764 -53.917  0.00  0.00    -0.217 NA
ATOM     11  C   UNL d   1     -43.064-121.911 -54.679  0.00  0.00     0.200 A 
ATOM     12  N   UNL d   1     -42.576-122.110 -55.303  0.00  0.00    -0.224 NA
ATOM     13  C   UNL d   1     -41.738-122.170 -55.187  0.00  0.00     0.085 A 
ATOM     14  C   UNL d   1     -41.417-122.030 -54.447  0.00  0.00     0.045 A 
ATOM     15  C   UNL d   1     -41.338-122.341 -55.731  0.00  0.00     0.021 C 
ENDBRANCH   8   9
ENDBRANCH   1   8
BRANCH   2  16
ATOM     16  N   UNL d   1     -41.672-121.755 -51.285  0.00  0.00    -0.108 N 
ATOM     17  O   UNL d   1     -41.152-121.145 -51.106  0.00  0.00    -0.532 OA
ATOM     18  O   UNL d   1     -42.427-121.642 -50.944  0.00  0.00    -0.532 OA
ENDBRANCH   2  16
TORSDOF 3
ENDMDL
MODEL 4
REMARK VINA RESULT:      -3.3      1.631      3.560
REMARK  3 active torsions:
REMARK  status: ('A' for Active; 'I' for Inactive)
REMARK    1  A    between atoms: S_4  and  C_1 
REMARK    2  A    between atoms: N_3  and  C_2 
REMARK    3  A    between atoms: C_5  and  S_4 
ROOT
ATOM      1  C   UNL d   1     -41.570-122.473 -51.393  0.00  0.00     0.139 A 
ATOM      2  C   UNL d   1     -41.469-122.229 -52.175  0.00  0.00     0.188 A 
ATOM      3  N   UNL d   1     -41.441-123.288 -51.222  0.00  0.00    -0.216 NA
ATOM      4  C   UNL d   1     -41.262-122.709 -52.766  0.00  0.00     0.209 A 
ATOM      5  N   UNL d   1     -41.123-123.541 -52.628  0.00  0.00    -0.202 NA
ATOM      6  C   UNL d   1     -41.222-123.812 -51.826  0.00  0.00     0.201 A 
ATOM      7  N   UNL d   1     -41.145-122.518 -53.581  0.00  0.00    -0.125 N 
ENDROOT
BRANCH   1   8
ATOM      8  S   UNL d   1     -41.773-122.005 -50.813  0.00  0.00    -0.047 SA
BRANCH   8   9
ATOM      9  C   UNL d   1     -42.096-122.528 -50.096  0.00  0.00     0.115 A 
ATOM     10  N   UNL d   1     -42.915-122.727 -50.140  0.00  0.00    -0.217 NA
ATOM     11  C   UNL d   1     -43.249-123.191 -49.526  0.00  0.00     0.200 A 
ATOM     12  N   UNL d   1     -42.792-123.446 -48.899  0.00  0.00    -0.224 NA
ATOM     13  C   UNL d   1     -41.969-123.242 -48.860  0.00  0.00     0.085 A 
ATOM     14  C   UNL d   1     -41.631-122.790 -49.453  0.00  0.00     0.045 A 
ATOM     15  C   UNL d   1     -41.595-123.469 -48.317  0.00  0.00     0.021 C 
ENDBRANCH   8   9
ENDBRANCH   1   8
BRANCH   2  16
ATOM     16  N   UNL d   1     -41.599-121.413 -52.342  0.00  0.00    -0.108 N 
ATOM     17  O   UNL d   1     -41.228-120.786 -51.963  0.00  0.00    -0.532 OA
ATOM     18  O   UNL d   1     -42.137-121.158 -52.930  0.00  0.00    -0.532 OA
ENDBRANCH   2  16
TORSDOF 3
ENDMDL
MODEL 5
REMARK VINA RESULT:      -3.2      0.872      1.236
REMARK  3 active torsions:
REMARK  status: ('A' for Active; 'I' for Inactive)
REMARK    1  A    between atoms: S_4  and  C_1 
REMARK    2  A    between atoms: N_3  and  C_2 
REMARK    3  A    between atoms: C_5  and  S_4 
ROOT
ATOM      1  C   UNL d   1     -42.162-122.895 -49.833  0.00  0.00     0.139 A 
ATOM      2  C   UNL d   1     -42.310-123.172 -49.070  0.00  0.00     0.188 A 
ATOM      3  N   UNL d   1     -42.805-122.901 -50.377  0.00  0.00    -0.216 NA
ATOM      4  C   UNL d   1     -43.010-123.440 -48.822  0.00  0.00     0.209 A 
ATOM      5  N   UNL d   1     -43.683-123.459 -49.348  0.00  0.00    -0.202 NA
ATOM      6  C   UNL d   1     -43.550-123.177 -50.141  0.00  0.00     0.201 A 
ATOM      7  N   UNL d   1     -43.219-123.733 -48.058  0.00  0.00    -0.125 N 
ENDROOT
BRANCH   1   8
ATOM      8  S   UNL d   1     -41.478-122.634 -50.077  0.00  0.00    -0.047 SA
BRANCH   8   9
ATOM      9  C   UNL d   1     -41.397-122.805 -51.003  0.00  0.00     0.115 A 
ATOM     10  N   UNL d   1     -41.205-123.602 -51.203  0.00  0.00    -0.217 NA
ATOM     11  C   UNL d   1     -41.123-123.804 -52.012  0.00  0.00     0.200 A 
ATOM     12  N   UNL d   1     -41.226-123.242 -52.596  0.00  0.00    -0.224 NA
ATOM     13  C   UNL d   1     -41.420-122.442 -52.389  0.00  0.00     0.085 A 
ATOM     14  C   UNL d   1     -41.503-122.233 -51.602  0.00  0.00     0.045 A 
ATOM     15  C   UNL d   1     -41.504-121.976 -52.900  0.00  0.00     0.021 C 
ENDBRANCH   8   9
ENDBRANCH   1   8
BRANCH   2  16
ATOM     16  N   UNL d   1     -41.664-123.165 -48.528  0.00  0.00    -0.108 N 
ATOM     17  O   UNL d   1     -41.466-122.540 -48.034  0.00  0.00    -0.532 OA
ATOM     18  O   UNL d   1     -41.147-123.817 -48.440  0.00  0.00    -0.532 OA
ENDBRANCH   2  16
TORSDOF 3
ENDMDL
