MODEL 1
REMARK VINA RESULT:      12.1      0.000      0.000
REMARK  2 active torsions:
REMARK  status: ('A' for Active; 'I' for Inactive)
REMARK    1  A    between atoms: C_5  and  C_1 
REMARK    2  A    between atoms: N_2  and  C_6 
ROOT
ATOM      1  C   UNL d   1      24.590  12.451  -2.400  0.00  0.00     0.077 A 
ATOM      2  C   UNL d   1      24.472  13.557  -1.597  0.00  0.00     0.160 A 
ATOM      3  C   UNL d   1      24.535  13.248  -2.422  0.00  0.00     0.024 A 
ATOM      4  C   UNL d   1      24.575  12.174  -1.699  0.00  0.00    -0.014 A 
ATOM      5  C   UNL d   1      24.609  11.783  -1.822  0.00  0.00    -0.014 A 
ATOM      6  C   UNL d   1      24.558  12.022  -1.135  0.00  0.00    -0.000 A 
ATOM      7  C   UNL d   1      24.511  12.489  -0.847  0.00  0.00    -0.000 A 
ATOM      8  C   UNL d   1      24.486  13.041  -1.132  0.00  0.00     0.038 A 
ATOM      9  C   UNL d   1      24.457  13.265  -0.869  0.00  0.00     0.038 A 
ATOM     10  C   UNL d   1      24.528  11.821  -0.243  0.00  0.00    -0.000 A 
ATOM     11  O   UNL d   1      24.422  14.286  -1.643  0.00  0.00    -0.290 OA
ENDROOT
BRANCH   1  12
ATOM     12  C   UNL d   1      24.623  12.545  -3.211  0.00  0.00    -0.011 A 
ATOM     13  C   UNL d   1      24.596  13.291  -3.553  0.00  0.00    -0.002 A 
ATOM     14  C   UNL d   1      24.630  13.380  -4.381  0.00  0.00     0.023 A 
ATOM     15  C   UNL d   1      24.693  12.706  -4.855  0.00  0.00     0.127 A 
ATOM     16  C   UNL d   1      24.721  11.959  -4.507  0.00  0.00     0.023 A 
ATOM     17  C   UNL d   1      24.685  11.886  -3.675  0.00  0.00    -0.002 A 
BRANCH  15  18
ATOM     18  N   UNL d   1      24.728  12.776  -5.677  0.00  0.00    -0.114 N 
ATOM     19  O   UNL d   1      24.740  12.083  -6.115  0.00  0.00    -0.532 OA
ATOM     20  O   UNL d   1      24.752  13.545  -6.055  0.00  0.00    -0.532 OA
ENDBRANCH  15  18
ENDBRANCH   1  12
TORSDOF 2
ENDMDL
MODEL 2
REMARK VINA RESULT:      13.4     11.093     11.549
REMARK  2 active torsions:
REMARK  status: ('A' for Active; 'I' for Inactive)
REMARK    1  A    between atoms: C_5  and  C_1 
REMARK    2  A    between atoms: N_2  and  C_6 
ROOT
ATOM      1  C   UNL d   1      13.533  12.330  -3.670  0.00  0.00     0.077 A 
ATOM      2  C   UNL d   1      12.962  13.475  -4.164  0.00  0.00     0.160 A 
ATOM      3  C   UNL d   1      13.323  13.073  -3.466  0.00  0.00     0.024 A 
ATOM      4  C   UNL d   1      13.373  12.165  -4.389  0.00  0.00    -0.014 A 
ATOM      5  C   UNL d   1      13.521  11.782  -4.364  0.00  0.00    -0.014 A 
ATOM      6  C   UNL d   1      13.226  12.099  -4.950  0.00  0.00    -0.000 A 
ATOM      7  C   UNL d   1      13.002  12.576  -5.111  0.00  0.00    -0.000 A 
ATOM      8  C   UNL d   1      12.947  13.054  -4.718  0.00  0.00     0.038 A 
ATOM      9  C   UNL d   1      12.798  13.299  -4.912  0.00  0.00     0.038 A 
ATOM     10  C   UNL d   1      12.982  12.032  -5.829  0.00  0.00    -0.000 A 
ATOM     11  O   UNL d   1      12.779  14.151  -3.954  0.00  0.00    -0.290 OA
ENDROOT
BRANCH   1  12
ATOM     12  C   UNL d   1      13.779  12.308  -2.891  0.00  0.00    -0.011 A 
ATOM     13  C   UNL d   1      13.431  11.797  -2.351  0.00  0.00    -0.002 A 
ATOM     14  C   UNL d   1      13.687  11.780  -1.557  0.00  0.00     0.023 A 
ATOM     15  C   UNL d   1      14.297  12.284  -1.321  0.00  0.00     0.127 A 
ATOM     16  C   UNL d   1      14.644  12.795  -1.868  0.00  0.00     0.023 A 
ATOM     17  C   UNL d   1      14.376  12.801  -2.660  0.00  0.00    -0.002 A 
BRANCH  15  18
ATOM     18  N   UNL d   1      14.563  12.280  -0.539  0.00  0.00    -0.114 N 
ATOM     19  O   UNL d   1      14.180  11.779  -0.014  0.00  0.00    -0.532 OA
ATOM     20  O   UNL d   1      15.212  12.780  -0.290  0.00  0.00    -0.532 OA
ENDBRANCH  15  18
ENDBRANCH   1  12
TORSDOF 2
ENDMDL
MODEL 3
REMARK VINA RESULT:      13.9     10.725     10.788
REMARK  2 active torsions:
REMARK  status: ('A' for Active; 'I' for Inactive)
REMARK    1  A    between atoms: C_5  and  C_1 
REMARK    2  A    between atoms: N_2  and  C_6 
ROOT
ATOM      1  C   UNL d   1      14.317  12.154  -1.858  0.00  0.00     0.077 A 
ATOM      2  C   UNL d   1      13.502  11.881  -0.789  0.00  0.00     0.160 A 
ATOM      3  C   UNL d   1      13.550  12.065  -1.651  0.00  0.00     0.024 A 
ATOM      4  C   UNL d   1      14.791  12.060  -1.280  0.00  0.00    -0.014 A 
ATOM      5  C   UNL d   1      15.127  12.128  -1.507  0.00  0.00    -0.014 A 
ATOM      6  C   UNL d   1      15.105  11.977  -0.794  0.00  0.00    -0.000 A 
ATOM      7  C   UNL d   1      14.746  11.871  -0.391  0.00  0.00    -0.000 A 
ATOM      8  C   UNL d   1      14.134  11.858  -0.501  0.00  0.00     0.038 A 
ATOM      9  C   UNL d   1      13.999  11.784  -0.189  0.00  0.00     0.038 A 
ATOM     10  C   UNL d   1      15.564  11.840  -0.015  0.00  0.00    -0.000 A 
ATOM     11  O   UNL d   1      12.794  11.804  -0.623  0.00  0.00    -0.290 OA
ENDROOT
BRANCH   1  12
ATOM     12  C   UNL d   1      13.984  12.288  -2.592  0.00  0.00    -0.011 A 
ATOM     13  C   UNL d   1      13.418  11.780  -2.901  0.00  0.00    -0.002 A 
ATOM     14  C   UNL d   1      13.082  11.924  -3.651  0.00  0.00     0.023 A 
ATOM     15  C   UNL d   1      13.328  12.585  -4.081  0.00  0.00     0.127 A 
ATOM     16  C   UNL d   1      13.897  13.093  -3.767  0.00  0.00     0.023 A 
ATOM     17  C   UNL d   1      14.224  12.936  -3.014  0.00  0.00    -0.002 A 
BRANCH  15  18
ATOM     18  N   UNL d   1      13.005  12.741  -4.825  0.00  0.00    -0.114 N 
ATOM     19  O   UNL d   1      12.922  12.108  -5.340  0.00  0.00    -0.532 OA
ATOM     20  O   UNL d   1      12.769  13.534  -5.047  0.00  0.00    -0.532 OA
ENDBRANCH  15  18
ENDBRANCH   1  12
TORSDOF 2
ENDMDL
