MODEL 1
REMARK VINA RESULT:      21.7      0.000      0.000
REMARK  3 active torsions:
REMARK  status: ('A' for Active; 'I' for Inactive)
REMARK    1  A    between atoms: N_3  and  C_1 
REMARK    2  A    between atoms: C_5  and  C_2 
REMARK       I    between atoms: C_4  and  N_3 
REMARK    3  A    between atoms: C_10  and  C_4 
ROOT
ATOM      1  N   UNL d   1     -56.679 -99.276 -44.098  0.00  0.00    -0.201 NA
ATOM      2  C   UNL d   1     -57.272 -98.978 -44.589  0.00  0.00     0.280 C 
ATOM      3  O   UNL d   1     -57.096 -98.756 -45.363  0.00  0.00    -0.265 OA
ENDROOT
BRANCH   1   4
ATOM      4  C   UNL d   1     -55.909 -99.350 -44.385  0.00  0.00     0.119 A 
ATOM      5  C   UNL d   1     -55.449-100.038 -44.369  0.00  0.00     0.084 A 
ATOM      6  C   UNL d   1     -54.711 -99.862 -44.716  0.00  0.00     0.014 A 
ATOM      7  C   UNL d   1     -54.725 -99.067 -44.942  0.00  0.00     0.037 A 
ATOM      8  S   UNL d   1     -55.463 -98.757 -44.737  0.00  0.00    -0.067 SA
BRANCH   5   9
ATOM      9  C   UNL d   1     -55.673-100.772 -44.065  0.00  0.00     0.299 C 
ATOM     10  O   UNL d   1     -56.259-101.214 -44.453  0.00  0.00    -0.264 OA
ATOM     11  N   UNL d   1     -55.317-101.066 -43.378  0.00  0.00    -0.102 N 
ENDBRANCH   5   9
ENDBRANCH   1   4
BRANCH   2  12
ATOM     12  C   UNL d   1     -58.037 -98.906 -44.299  0.00  0.00     0.058 A 
ATOM     13  C   UNL d   1     -58.159 -98.829 -43.488  0.00  0.00     0.005 A 
ATOM     14  C   UNL d   1     -58.934 -98.756 -43.202  0.00  0.00     0.000 A 
ATOM     15  C   UNL d   1     -59.573 -98.761 -43.721  0.00  0.00     0.000 A 
ATOM     16  C   UNL d   1     -59.440 -98.838 -44.531  0.00  0.00     0.000 A 
ATOM     17  C   UNL d   1     -58.670 -98.911 -44.824  0.00  0.00     0.005 A 
ENDBRANCH   2  12
TORSDOF 3
ENDMDL
