MODEL 1
REMARK VINA RESULT:       6.7      0.000      0.000
REMARK  5 active torsions:
REMARK  status: ('A' for Active; 'I' for Inactive)
REMARK    1  A    between atoms: N_2  and  C_1 
REMARK    2  A    between atoms: C_8  and  C_5 
REMARK    3  A    between atoms: C_6  and  C_9 
REMARK       I    between atoms: N_12  and  C_6 
REMARK    4  A    between atoms: C_9  and  C_8 
REMARK    5  A    between atoms: C_14  and  N_12 
ROOT
ATOM      1  C   UNL d   1      45.773 -17.058  44.146  0.00  0.00     0.279 C 
ATOM      2  N   UNL d   1      46.190 -17.705  44.425  0.00  0.00    -0.208 NA
ATOM      3  O   UNL d   1      45.467 -17.063  43.384  0.00  0.00    -0.265 OA
ENDROOT
BRANCH   1   4
ATOM      4  C   UNL d   1      45.659 -16.395  44.634  0.00  0.00     0.063 C 
BRANCH   4   5
ATOM      5  C   UNL d   1      46.155 -15.739  44.569  0.00  0.00     0.011 C 
BRANCH   5   6
ATOM      6  C   UNL d   1      45.836 -14.957  44.605  0.00  0.00     0.031 A 
ATOM      7  S   UNL d   1      46.126 -14.232  44.341  0.00  0.00    -0.064 SA
ATOM      8  C   UNL d   1      45.571 -13.663  44.530  0.00  0.00     0.156 A 
ATOM      9  C   UNL d   1      44.935 -14.013  44.908  0.00  0.00     0.031 A 
ATOM     10  C   UNL d   1      45.104 -14.830  44.954  0.00  0.00     0.009 A 
BRANCH   8  11
ATOM     11  N   UNL d   1      45.654 -12.856  44.358  0.00  0.00    -0.107 N 
ATOM     12  O   UNL d   1      45.364 -12.535  43.658  0.00  0.00    -0.531 OA
ATOM     13  O   UNL d   1      46.040 -12.373  44.910  0.00  0.00    -0.531 OA
ENDBRANCH   8  11
ENDBRANCH   5   6
ENDBRANCH   4   5
ENDBRANCH   1   4
BRANCH   2  14
ATOM     14  C   UNL d   1      46.304 -18.367  43.938  0.00  0.00     0.085 A 
ATOM     15  C   UNL d   1      46.274 -19.132  44.264  0.00  0.00     0.019 A 
ATOM     16  C   UNL d   1      46.383 -19.793  43.805  0.00  0.00     0.002 A 
ATOM     17  C   UNL d   1      46.530 -19.678  42.973  0.00  0.00     0.000 A 
ATOM     18  C   UNL d   1      46.558 -18.918  42.658  0.00  0.00     0.002 A 
ATOM     19  C   UNL d   1      46.647 -20.327  42.467  0.00  0.00     0.000 C 
ATOM     20  C   UNL d   1      46.447 -18.271  43.135  0.00  0.00     0.019 A 
ENDBRANCH   2  14
TORSDOF 5
ENDMDL
MODEL 2
REMARK VINA RESULT:       7.4      1.844      5.255
REMARK  5 active torsions:
REMARK  status: ('A' for Active; 'I' for Inactive)
REMARK    1  A    between atoms: N_2  and  C_1 
REMARK    2  A    between atoms: C_8  and  C_5 
REMARK    3  A    between atoms: C_6  and  C_9 
REMARK       I    between atoms: N_12  and  C_6 
REMARK    4  A    between atoms: C_9  and  C_8 
REMARK    5  A    between atoms: C_14  and  N_12 
ROOT
ATOM      1  C   UNL d   1      45.925 -16.159  44.201  0.00  0.00     0.279 C 
ATOM      2  N   UNL d   1      45.362 -15.681  44.557  0.00  0.00    -0.208 NA
ATOM      3  O   UNL d   1      46.528 -15.822  43.757  0.00  0.00    -0.265 OA
ENDROOT
BRANCH   1   4
ATOM      4  C   UNL d   1      45.886 -16.984  44.289  0.00  0.00     0.063 C 
BRANCH   4   5
ATOM      5  C   UNL d   1      46.553 -17.450  44.152  0.00  0.00     0.011 C 
BRANCH   5   6
ATOM      6  C   UNL d   1      46.469 -18.257  43.916  0.00  0.00     0.031 A 
ATOM      7  S   UNL d   1      46.255 -18.600  43.197  0.00  0.00    -0.064 SA
ATOM      8  C   UNL d   1      46.269 -19.411  43.300  0.00  0.00     0.156 A 
ATOM      9  C   UNL d   1      46.487 -19.588  44.069  0.00  0.00     0.031 A 
ATOM     10  C   UNL d   1      46.613 -18.858  44.456  0.00  0.00     0.009 A 
BRANCH   8  11
ATOM     11  N   UNL d   1      46.086 -19.959  42.705  0.00  0.00    -0.107 N 
ATOM     12  O   UNL d   1      46.623 -20.137  42.107  0.00  0.00    -0.531 OA
ATOM     13  O   UNL d   1      45.344 -20.328  42.723  0.00  0.00    -0.531 OA
ENDBRANCH   8  11
ENDBRANCH   5   6
ENDBRANCH   4   5
ENDBRANCH   1   4
BRANCH   2  14
ATOM     14  C   UNL d   1      45.402 -14.857  44.469  0.00  0.00     0.085 A 
ATOM     15  C   UNL d   1      45.911 -14.412  44.955  0.00  0.00     0.019 A 
ATOM     16  C   UNL d   1      45.964 -13.605  44.885  0.00  0.00     0.002 A 
ATOM     17  C   UNL d   1      45.479 -13.225  44.295  0.00  0.00     0.000 A 
ATOM     18  C   UNL d   1      44.979 -13.672  43.819  0.00  0.00     0.002 A 
ATOM     19  C   UNL d   1      45.503 -12.400  44.191  0.00  0.00     0.000 C 
ATOM     20  C   UNL d   1      44.940 -14.478  43.905  0.00  0.00     0.019 A 
ENDBRANCH   2  14
TORSDOF 5
ENDMDL
