MODEL 1
REMARK VINA RESULT:      -6.9      0.000      0.000
REMARK  5 active torsions:
REMARK  status: ('A' for Active; 'I' for Inactive)
REMARK    1  A    between atoms: N_7  and  C_1 
REMARK    2  A    between atoms: C_14  and  N_4 
REMARK    3  A    between atoms: C_6  and  N_7 
REMARK    4  A    between atoms: C_13  and  N_8 
REMARK    5  A    between atoms: C_17  and  C_13 
ROOT
ATOM      1  C   UNL d   1      53.333  32.289  53.243  0.00  0.00     0.159 A 
ATOM      2  C   UNL d   1      52.923  31.614  53.470  0.00  0.00     0.298 A 
ATOM      3  N   UNL d   1      54.208  31.309  53.415  0.00  0.00    -0.238 N 
ATOM      4  N   UNL d   1      53.466  31.007  53.576  0.00  0.00    -0.209 N 
ATOM      5  C   UNL d   1      54.131  32.099  53.209  0.00  0.00     0.104 A 
ATOM      6  O   UNL d   1      52.107  31.556  53.573  0.00  0.00    -0.263 OA
ATOM      7  C   UNL d   1      54.919  30.892  53.451  0.00  0.00     0.120 C 
ATOM      8  C   UNL d   1      54.740  32.610  53.005  0.00  0.00     0.022 C 
ENDROOT
BRANCH   1   9
ATOM      9  N   UNL d   1      53.001  33.022  53.080  0.00  0.00    -0.216 NA
BRANCH   9  10
ATOM     10  C   UNL d   1      53.002  33.612  53.656  0.00  0.00     0.180 A 
ATOM     11  N   UNL d   1      52.712  34.376  53.570  0.00  0.00    -0.285 N 
ATOM     12  C   UNL d   1      52.827  34.770  54.282  0.00  0.00     0.072 A 
ATOM     13  C   UNL d   1      52.615  35.554  54.438  0.00  0.00     0.020 C 
ATOM     14  C   UNL d   1      53.185  34.257  54.806  0.00  0.00     0.056 A 
ATOM     15  S   UNL d   1      53.297  33.535  54.425  0.00  0.00    -0.048 SA
BRANCH  11  16
ATOM     16  C   UNL d   1      52.369  34.692  52.897  0.00  0.00     0.082 C 
BRANCH  16  17
ATOM     17  C   UNL d   1      51.553  34.604  52.756  0.00  0.00     0.018 A 
ATOM     18  C   UNL d   1      50.939  34.689  53.306  0.00  0.00     0.002 A 
ATOM     19  C   UNL d   1      50.139  34.581  53.072  0.00  0.00     0.000 A 
ATOM     20  C   UNL d   1      49.965  34.387  52.278  0.00  0.00     0.000 A 
ATOM     21  C   UNL d   1      50.586  34.301  51.720  0.00  0.00     0.000 A 
ATOM     22  C   UNL d   1      51.380  34.410  51.957  0.00  0.00     0.002 A 
ENDBRANCH  16  17
ENDBRANCH  11  16
ENDBRANCH   9  10
ENDBRANCH   1   9
BRANCH   4  23
ATOM     23  C   UNL d   1      53.293  30.235  53.804  0.00  0.00     0.085 A 
ATOM     24  C   UNL d   1      52.982  29.709  53.260  0.00  0.00     0.019 A 
ATOM     25  C   UNL d   1      52.810  28.940  53.488  0.00  0.00     0.002 A 
ATOM     26  C   UNL d   1      52.947  28.688  54.261  0.00  0.00     0.000 A 
ATOM     27  C   UNL d   1      53.261  29.221  54.809  0.00  0.00     0.002 A 
ATOM     28  C   UNL d   1      53.435  29.994  54.581  0.00  0.00     0.019 A 
ENDBRANCH   4  23
TORSDOF 5
ENDMDL
MODEL 2
REMARK VINA RESULT:      -6.6      1.432      4.693
REMARK  5 active torsions:
REMARK  status: ('A' for Active; 'I' for Inactive)
REMARK    1  A    between atoms: N_7  and  C_1 
REMARK    2  A    between atoms: C_14  and  N_4 
REMARK    3  A    between atoms: C_6  and  N_7 
REMARK    4  A    between atoms: C_13  and  N_8 
REMARK    5  A    between atoms: C_17  and  C_13 
ROOT
ATOM      1  C   UNL d   1      51.788  33.805  53.029  0.00  0.00     0.159 A 
ATOM      2  C   UNL d   1      50.974  33.874  53.125  0.00  0.00     0.298 A 
ATOM      3  N   UNL d   1      51.301  34.466  51.989  0.00  0.00    -0.238 N 
ATOM      4  N   UNL d   1      50.674  34.284  52.480  0.00  0.00    -0.209 N 
ATOM      5  C   UNL d   1      51.990  34.173  52.323  0.00  0.00     0.104 A 
ATOM      6  O   UNL d   1      50.537  33.583  53.760  0.00  0.00    -0.263 OA
ATOM      7  C   UNL d   1      51.253  34.876  51.275  0.00  0.00     0.120 C 
ATOM      8  C   UNL d   1      52.746  34.234  52.011  0.00  0.00     0.022 C 
ENDROOT
BRANCH   1   9
ATOM      9  N   UNL d   1      52.304  33.434  53.548  0.00  0.00    -0.216 NA
BRANCH   9  10
ATOM     10  C   UNL d   1      52.551  32.661  53.402  0.00  0.00     0.180 A 
ATOM     11  N   UNL d   1      53.038  32.206  53.883  0.00  0.00    -0.285 N 
ATOM     12  C   UNL d   1      53.138  31.475  53.521  0.00  0.00     0.072 A 
ATOM     13  C   UNL d   1      53.588  30.849  53.817  0.00  0.00     0.020 C 
ATOM     14  C   UNL d   1      52.717  31.475  52.820  0.00  0.00     0.056 A 
ATOM     15  S   UNL d   1      52.350  32.208  52.740  0.00  0.00    -0.048 SA
BRANCH  11  16
ATOM     16  C   UNL d   1      53.367  32.437  54.597  0.00  0.00     0.082 C 
BRANCH  16  17
ATOM     17  C   UNL d   1      54.093  32.843  54.617  0.00  0.00     0.018 A 
ATOM     18  C   UNL d   1      54.687  32.834  54.039  0.00  0.00     0.002 A 
ATOM     19  C   UNL d   1      55.393  33.277  54.146  0.00  0.00     0.000 A 
ATOM     20  C   UNL d   1      55.493  33.730  54.842  0.00  0.00     0.000 A 
ATOM     21  C   UNL d   1      54.893  33.740  55.428  0.00  0.00     0.000 A 
ATOM     22  C   UNL d   1      54.192  33.297  55.317  0.00  0.00     0.002 A 
ENDBRANCH  16  17
ENDBRANCH  11  16
ENDBRANCH   9  10
ENDBRANCH   1   9
BRANCH   4  23
ATOM     23  C   UNL d   1      49.883  34.476  52.353  0.00  0.00     0.085 A 
ATOM     24  C   UNL d   1      49.481  34.147  51.721  0.00  0.00     0.019 A 
ATOM     25  C   UNL d   1      48.692  34.340  51.595  0.00  0.00     0.002 A 
ATOM     26  C   UNL d   1      48.300  34.861  52.097  0.00  0.00     0.000 A 
ATOM     27  C   UNL d   1      48.708  35.192  52.735  0.00  0.00     0.002 A 
ATOM     28  C   UNL d   1      49.500  35.000  52.863  0.00  0.00     0.019 A 
ENDBRANCH   4  23
TORSDOF 5
ENDMDL
MODEL 3
REMARK VINA RESULT:      -6.0      1.723      3.158
REMARK  5 active torsions:
REMARK  status: ('A' for Active; 'I' for Inactive)
REMARK    1  A    between atoms: N_7  and  C_1 
REMARK    2  A    between atoms: C_14  and  N_4 
REMARK    3  A    between atoms: C_6  and  N_7 
REMARK    4  A    between atoms: C_13  and  N_8 
REMARK    5  A    between atoms: C_17  and  C_13 
ROOT
ATOM      1  C   UNL d   1      51.481  33.951  53.203  0.00  0.00     0.159 A 
ATOM      2  C   UNL d   1      51.594  33.139  53.262  0.00  0.00     0.298 A 
ATOM      3  N   UNL d   1      52.778  33.721  53.345  0.00  0.00    -0.238 N 
ATOM      4  N   UNL d   1      52.398  32.998  53.350  0.00  0.00    -0.209 N 
ATOM      5  C   UNL d   1      52.216  34.312  53.255  0.00  0.00     0.104 A 
ATOM      6  O   UNL d   1      51.002  32.566  53.237  0.00  0.00    -0.263 OA
ATOM      7  C   UNL d   1      53.591  33.842  53.418  0.00  0.00     0.120 C 
ATOM      8  C   UNL d   1      52.361  35.119  53.222  0.00  0.00     0.022 C 
ENDROOT
BRANCH   1   9
ATOM      9  N   UNL d   1      50.759  34.331  53.110  0.00  0.00    -0.216 NA
BRANCH   9  10
ATOM     10  C   UNL d   1      50.405  34.366  52.366  0.00  0.00     0.180 A 
ATOM     11  N   UNL d   1      49.602  34.457  52.213  0.00  0.00    -0.285 N 
ATOM     12  C   UNL d   1      49.501  34.462  51.397  0.00  0.00     0.072 A 
ATOM     13  C   UNL d   1      48.779  34.542  51.002  0.00  0.00     0.020 C 
ATOM     14  C   UNL d   1      50.234  34.375  51.046  0.00  0.00     0.056 A 
ATOM     15  S   UNL d   1      50.800  34.314  51.641  0.00  0.00    -0.048 SA
BRANCH  11  16
ATOM     16  C   UNL d   1      49.007  34.530  52.771  0.00  0.00     0.082 C 
BRANCH  16  17
ATOM     17  C   UNL d   1      48.625  35.260  52.890  0.00  0.00     0.018 A 
ATOM     18  C   UNL d   1      48.229  35.715  52.320  0.00  0.00     0.002 A 
ATOM     19  C   UNL d   1      47.870  36.444  52.533  0.00  0.00     0.000 A 
ATOM     20  C   UNL d   1      47.914  36.709  53.325  0.00  0.00     0.000 A 
ATOM     21  C   UNL d   1      48.314  36.249  53.901  0.00  0.00     0.000 A 
ATOM     22  C   UNL d   1      48.670  35.524  53.685  0.00  0.00     0.002 A 
ENDBRANCH  16  17
ENDBRANCH  11  16
ENDBRANCH   9  10
ENDBRANCH   1   9
BRANCH   4  23
ATOM     23  C   UNL d   1      52.756  32.260  53.428  0.00  0.00     0.085 A 
ATOM     24  C   UNL d   1      53.140  32.066  54.123  0.00  0.00     0.019 A 
ATOM     25  C   UNL d   1      53.496  31.330  54.200  0.00  0.00     0.002 A 
ATOM     26  C   UNL d   1      53.472  30.783  53.585  0.00  0.00     0.000 A 
ATOM     27  C   UNL d   1      53.082  30.981  52.883  0.00  0.00     0.002 A 
ATOM     28  C   UNL d   1      52.724  31.720  52.804  0.00  0.00     0.019 A 
ENDBRANCH   4  23
TORSDOF 5
ENDMDL
MODEL 4
REMARK VINA RESULT:      -5.9      1.185      4.545
REMARK  5 active torsions:
REMARK  status: ('A' for Active; 'I' for Inactive)
REMARK    1  A    between atoms: N_7  and  C_1 
REMARK    2  A    between atoms: C_14  and  N_4 
REMARK    3  A    between atoms: C_6  and  N_7 
REMARK    4  A    between atoms: C_13  and  N_8 
REMARK    5  A    between atoms: C_17  and  C_13 
ROOT
ATOM      1  C   UNL d   1      51.779  33.403  52.858  0.00  0.00     0.159 A 
ATOM      2  C   UNL d   1      51.000  33.565  53.064  0.00  0.00     0.298 A 
ATOM      3  N   UNL d   1      51.340  34.382  52.082  0.00  0.00    -0.238 N 
ATOM      4  N   UNL d   1      50.729  34.172  52.582  0.00  0.00    -0.209 N 
ATOM      5  C   UNL d   1      51.990  33.910  52.249  0.00  0.00     0.104 A 
ATOM      6  O   UNL d   1      50.566  33.184  53.652  0.00  0.00    -0.263 OA
ATOM      7  C   UNL d   1      51.312  34.970  51.503  0.00  0.00     0.120 C 
ATOM      8  C   UNL d   1      52.719  33.939  51.875  0.00  0.00     0.022 C 
ENDROOT
BRANCH   1   9
ATOM      9  N   UNL d   1      52.259  32.834  53.204  0.00  0.00    -0.216 NA
BRANCH   9  10
ATOM     10  C   UNL d   1      52.784  33.045  53.803  0.00  0.00     0.180 A 
ATOM     11  N   UNL d   1      53.493  32.671  53.985  0.00  0.00    -0.285 N 
ATOM     12  C   UNL d   1      53.832  33.068  54.619  0.00  0.00     0.072 A 
ATOM     13  C   UNL d   1      54.550  32.874  54.980  0.00  0.00     0.020 C 
ATOM     14  C   UNL d   1      53.339  33.684  54.831  0.00  0.00     0.056 A 
ATOM     15  S   UNL d   1      52.686  33.677  54.329  0.00  0.00    -0.048 SA
BRANCH  11  16
ATOM     16  C   UNL d   1      53.807  32.018  53.603  0.00  0.00     0.082 C 
BRANCH  16  17
ATOM     17  C   UNL d   1      53.589  31.248  53.831  0.00  0.00     0.018 A 
ATOM     18  C   UNL d   1      53.407  30.985  54.596  0.00  0.00     0.002 A 
ATOM     19  C   UNL d   1      53.195  30.184  54.732  0.00  0.00     0.000 A 
ATOM     20  C   UNL d   1      53.169  29.650  54.090  0.00  0.00     0.000 A 
ATOM     21  C   UNL d   1      53.353  29.914  53.315  0.00  0.00     0.000 A 
ATOM     22  C   UNL d   1      53.563  30.713  53.184  0.00  0.00     0.002 A 
ENDBRANCH  16  17
ENDBRANCH  11  16
ENDBRANCH   9  10
ENDBRANCH   1   9
BRANCH   4  23
ATOM     23  C   UNL d   1      49.977  34.508  52.600  0.00  0.00     0.085 A 
ATOM     24  C   UNL d   1      49.760  34.989  53.225  0.00  0.00     0.019 A 
ATOM     25  C   UNL d   1      49.010  35.323  53.242  0.00  0.00     0.002 A 
ATOM     26  C   UNL d   1      48.471  35.179  52.636  0.00  0.00     0.000 A 
ATOM     27  C   UNL d   1      48.692  34.693  52.005  0.00  0.00     0.002 A 
ATOM     28  C   UNL d   1      49.444  34.357  51.987  0.00  0.00     0.019 A 
ENDBRANCH   4  23
TORSDOF 5
ENDMDL
MODEL 5
REMARK VINA RESULT:      -5.3      1.626      2.279
REMARK  5 active torsions:
REMARK  status: ('A' for Active; 'I' for Inactive)
REMARK    1  A    between atoms: N_7  and  C_1 
REMARK    2  A    between atoms: C_14  and  N_4 
REMARK    3  A    between atoms: C_6  and  N_7 
REMARK    4  A    between atoms: C_13  and  N_8 
REMARK    5  A    between atoms: C_17  and  C_13 
ROOT
ATOM      1  C   UNL d   1      53.184  31.604  53.768  0.00  0.00     0.159 A 
ATOM      2  C   UNL d   1      53.382  31.022  54.313  0.00  0.00     0.298 A 
ATOM      3  N   UNL d   1      52.898  30.424  53.238  0.00  0.00    -0.238 N 
ATOM      4  N   UNL d   1      53.204  30.291  53.984  0.00  0.00    -0.209 N 
ATOM      5  C   UNL d   1      52.883  31.233  53.101  0.00  0.00     0.104 A 
ATOM      6  O   UNL d   1      53.704  31.150  55.061  0.00  0.00    -0.263 OA
ATOM      7  C   UNL d   1      52.644  29.845  52.708  0.00  0.00     0.120 C 
ATOM      8  C   UNL d   1      52.616  31.605  52.420  0.00  0.00     0.022 C 
ENDROOT
BRANCH   1   9
ATOM      9  N   UNL d   1      53.272  32.413  53.875  0.00  0.00    -0.216 NA
BRANCH   9  10
ATOM     10  C   UNL d   1      54.025  32.750  53.872  0.00  0.00     0.180 A 
ATOM     11  N   UNL d   1      54.278  33.379  54.337  0.00  0.00    -0.285 N 
ATOM     12  C   UNL d   1      55.065  33.527  54.151  0.00  0.00     0.072 A 
ATOM     13  C   UNL d   1      55.537  34.116  54.490  0.00  0.00     0.020 C 
ATOM     14  C   UNL d   1      55.299  32.997  53.576  0.00  0.00     0.056 A 
ATOM     15  S   UNL d   1      54.658  32.510  53.398  0.00  0.00    -0.048 SA
BRANCH  11  16
ATOM     16  C   UNL d   1      53.830  33.786  54.888  0.00  0.00     0.082 C 
BRANCH  16  17
ATOM     17  C   UNL d   1      53.426  34.482  54.674  0.00  0.00     0.018 A 
ATOM     18  C   UNL d   1      53.195  34.712  53.912  0.00  0.00     0.002 A 
ATOM     19  C   UNL d   1      52.788  35.436  53.791  0.00  0.00     0.000 A 
ATOM     20  C   UNL d   1      52.616  35.927  54.445  0.00  0.00     0.000 A 
ATOM     21  C   UNL d   1      52.848  35.695  55.217  0.00  0.00     0.000 A 
ATOM     22  C   UNL d   1      53.253  34.973  55.334  0.00  0.00     0.002 A 
ENDBRANCH  16  17
ENDBRANCH  11  16
ENDBRANCH   9  10
ENDBRANCH   1   9
BRANCH   4  23
ATOM     23  C   UNL d   1      53.316  29.557  54.341  0.00  0.00     0.085 A 
ATOM     24  C   UNL d   1      53.852  29.027  54.024  0.00  0.00     0.019 A 
ATOM     25  C   UNL d   1      53.961  28.296  54.382  0.00  0.00     0.002 A 
ATOM     26  C   UNL d   1      53.538  28.088  55.057  0.00  0.00     0.000 A 
ATOM     27  C   UNL d   1      52.997  28.626  55.376  0.00  0.00     0.002 A 
ATOM     28  C   UNL d   1      52.886  29.361  55.018  0.00  0.00     0.019 A 
ENDBRANCH   4  23
TORSDOF 5
ENDMDL
MODEL 6
REMARK VINA RESULT:      -5.0      0.788      4.648
REMARK  5 active torsions:
REMARK  status: ('A' for Active; 'I' for Inactive)
REMARK    1  A    between atoms: N_7  and  C_1 
REMARK    2  A    between atoms: C_14  and  N_4 
REMARK    3  A    between atoms: C_6  and  N_7 
REMARK    4  A    between atoms: C_13  and  N_8 
REMARK    5  A    between atoms: C_17  and  C_13 
ROOT
ATOM      1  C   UNL d   1      52.371  33.044  53.859  0.00  0.00     0.159 A 
ATOM      2  C   UNL d   1      51.735  33.068  53.338  0.00  0.00     0.298 A 
ATOM      3  N   UNL d   1      52.042  34.312  53.664  0.00  0.00    -0.238 N 
ATOM      4  N   UNL d   1      51.532  33.855  53.218  0.00  0.00    -0.209 N 
ATOM      5  C   UNL d   1      52.561  33.816  54.061  0.00  0.00     0.104 A 
ATOM      6  O   UNL d   1      51.365  32.416  52.997  0.00  0.00    -0.263 OA
ATOM      7  C   UNL d   1      52.039  35.136  53.710  0.00  0.00     0.120 C 
ATOM      8  C   UNL d   1      53.163  34.048  54.568  0.00  0.00     0.022 C 
ENDROOT
BRANCH   1   9
ATOM      9  N   UNL d   1      52.747  32.365  54.128  0.00  0.00    -0.216 NA
BRANCH   9  10
ATOM     10  C   UNL d   1      53.420  32.086  53.742  0.00  0.00     0.180 A 
ATOM     11  N   UNL d   1      53.542  31.320  53.470  0.00  0.00    -0.285 N 
ATOM     12  C   UNL d   1      54.286  31.293  53.122  0.00  0.00     0.072 A 
ATOM     13  C   UNL d   1      54.632  30.626  52.776  0.00  0.00     0.020 C 
ATOM     14  C   UNL d   1      54.624  32.035  53.177  0.00  0.00     0.056 A 
ATOM     15  S   UNL d   1      54.092  32.533  53.560  0.00  0.00    -0.048 SA
BRANCH  11  16
ATOM     16  C   UNL d   1      53.019  30.693  53.533  0.00  0.00     0.082 C 
BRANCH  16  17
ATOM     17  C   UNL d   1      53.144  30.091  54.093  0.00  0.00     0.018 A 
ATOM     18  C   UNL d   1      53.361  30.184  54.888  0.00  0.00     0.002 A 
ATOM     19  C   UNL d   1      53.466  29.513  55.382  0.00  0.00     0.000 A 
ATOM     20  C   UNL d   1      53.350  28.748  55.068  0.00  0.00     0.000 A 
ATOM     21  C   UNL d   1      53.130  28.652  54.264  0.00  0.00     0.000 A 
ATOM     22  C   UNL d   1      53.026  29.322  53.775  0.00  0.00     0.002 A 
ENDBRANCH  16  17
ENDBRANCH  11  16
ENDBRANCH   9  10
ENDBRANCH   1   9
BRANCH   4  23
ATOM     23  C   UNL d   1      50.925  34.131  52.736  0.00  0.00     0.085 A 
ATOM     24  C   UNL d   1      51.035  34.173  51.926  0.00  0.00     0.019 A 
ATOM     25  C   UNL d   1      50.428  34.449  51.446  0.00  0.00     0.002 A 
ATOM     26  C   UNL d   1      49.709  34.685  51.769  0.00  0.00     0.000 A 
ATOM     27  C   UNL d   1      49.600  34.642  52.588  0.00  0.00     0.002 A 
ATOM     28  C   UNL d   1      50.208  34.365  53.071  0.00  0.00     0.019 A 
ENDBRANCH   4  23
TORSDOF 5
ENDMDL
MODEL 7
REMARK VINA RESULT:      -4.7      2.411      5.579
REMARK  5 active torsions:
REMARK  status: ('A' for Active; 'I' for Inactive)
REMARK    1  A    between atoms: N_7  and  C_1 
REMARK    2  A    between atoms: C_14  and  N_4 
REMARK    3  A    between atoms: C_6  and  N_7 
REMARK    4  A    between atoms: C_13  and  N_8 
REMARK    5  A    between atoms: C_17  and  C_13 
ROOT
ATOM      1  C   UNL d   1      49.911  34.821  52.451  0.00  0.00     0.159 A 
ATOM      2  C   UNL d   1      49.341  35.212  52.896  0.00  0.00     0.298 A 
ATOM      3  N   UNL d   1      48.810  34.916  51.722  0.00  0.00    -0.238 N 
ATOM      4  N   UNL d   1      48.658  35.270  52.442  0.00  0.00    -0.209 N 
ATOM      5  C   UNL d   1      49.581  34.637  51.723  0.00  0.00     0.104 A 
ATOM      6  O   UNL d   1      49.437  35.497  53.663  0.00  0.00    -0.263 OA
ATOM      7  C   UNL d   1      48.277  34.847  51.095  0.00  0.00     0.120 C 
ATOM      8  C   UNL d   1      49.957  34.245  51.108  0.00  0.00     0.022 C 
ENDROOT
BRANCH   1   9
ATOM      9  N   UNL d   1      50.675  34.647  52.696  0.00  0.00    -0.216 NA
BRANCH   9  10
ATOM     10  C   UNL d   1      50.873  33.876  52.914  0.00  0.00     0.180 A 
ATOM     11  N   UNL d   1      51.632  33.582  53.029  0.00  0.00    -0.285 N 
ATOM     12  C   UNL d   1      51.565  32.791  53.241  0.00  0.00     0.072 A 
ATOM     13  C   UNL d   1      52.195  32.283  53.408  0.00  0.00     0.020 C 
ATOM     14  C   UNL d   1      50.772  32.594  53.259  0.00  0.00     0.056 A 
ATOM     15  S   UNL d   1      50.336  33.263  53.057  0.00  0.00    -0.048 SA
BRANCH  11  16
ATOM     16  C   UNL d   1      52.331  34.000  52.947  0.00  0.00     0.082 C 
BRANCH  16  17
ATOM     17  C   UNL d   1      52.705  34.335  53.610  0.00  0.00     0.018 A 
ATOM     18  C   UNL d   1      52.888  33.957  54.325  0.00  0.00     0.002 A 
ATOM     19  C   UNL d   1      53.269  34.379  54.944  0.00  0.00     0.000 A 
ATOM     20  C   UNL d   1      53.463  35.184  54.835  0.00  0.00     0.000 A 
ATOM     21  C   UNL d   1      53.278  35.568  54.113  0.00  0.00     0.000 A 
ATOM     22  C   UNL d   1      52.899  35.145  53.499  0.00  0.00     0.002 A 
ENDBRANCH  16  17
ENDBRANCH  11  16
ENDBRANCH   9  10
ENDBRANCH   1   9
BRANCH   4  23
ATOM     23  C   UNL d   1      47.951  35.622  52.674  0.00  0.00     0.085 A 
ATOM     24  C   UNL d   1      47.748  36.360  52.383  0.00  0.00     0.019 A 
ATOM     25  C   UNL d   1      47.042  36.709  52.614  0.00  0.00     0.002 A 
ATOM     26  C   UNL d   1      46.533  36.327  53.137  0.00  0.00     0.000 A 
ATOM     27  C   UNL d   1      46.740  35.582  53.429  0.00  0.00     0.002 A 
ATOM     28  C   UNL d   1      47.448  35.229  53.198  0.00  0.00     0.019 A 
ENDBRANCH   4  23
TORSDOF 5
ENDMDL
MODEL 8
REMARK VINA RESULT:      -4.2      1.557      4.803
REMARK  5 active torsions:
REMARK  status: ('A' for Active; 'I' for Inactive)
REMARK    1  A    between atoms: N_7  and  C_1 
REMARK    2  A    between atoms: C_14  and  N_4 
REMARK    3  A    between atoms: C_6  and  N_7 
REMARK    4  A    between atoms: C_13  and  N_8 
REMARK    5  A    between atoms: C_17  and  C_13 
ROOT
ATOM      1  C   UNL d   1      53.911  32.440  54.021  0.00  0.00     0.159 A 
ATOM      2  C   UNL d   1      53.396  33.013  54.307  0.00  0.00     0.298 A 
ATOM      3  N   UNL d   1      54.420  33.631  53.743  0.00  0.00    -0.238 N 
ATOM      4  N   UNL d   1      53.712  33.751  54.135  0.00  0.00    -0.209 N 
ATOM      5  C   UNL d   1      54.546  32.824  53.671  0.00  0.00     0.104 A 
ATOM      6  O   UNL d   1      52.685  32.872  54.700  0.00  0.00    -0.263 OA
ATOM      7  C   UNL d   1      54.925  34.221  53.465  0.00  0.00     0.120 C 
ATOM      8  C   UNL d   1      55.191  32.464  53.313  0.00  0.00     0.022 C 
ENDROOT
BRANCH   1   9
ATOM      9  N   UNL d   1      53.806  31.628  54.076  0.00  0.00    -0.216 NA
BRANCH   9  10
ATOM     10  C   UNL d   1      53.324  31.236  53.533  0.00  0.00     0.180 A 
ATOM     11  N   UNL d   1      53.336  30.432  53.363  0.00  0.00    -0.285 N 
ATOM     12  C   UNL d   1      52.764  30.288  52.791  0.00  0.00     0.072 A 
ATOM     13  C   UNL d   1      52.590  29.550  52.460  0.00  0.00     0.020 C 
ATOM     14  C   UNL d   1      52.400  30.995  52.606  0.00  0.00     0.056 A 
ATOM     15  S   UNL d   1      52.743  31.589  53.063  0.00  0.00    -0.048 SA
BRANCH  11  16
ATOM     16  C   UNL d   1      53.828  29.872  53.703  0.00  0.00     0.082 C 
BRANCH  16  17
ATOM     17  C   UNL d   1      53.567  29.413  54.346  0.00  0.00     0.018 A 
ATOM     18  C   UNL d   1      52.997  29.622  54.911  0.00  0.00     0.002 A 
ATOM     19  C   UNL d   1      52.796  29.091  55.530  0.00  0.00     0.000 A 
ATOM     20  C   UNL d   1      53.176  28.348  55.575  0.00  0.00     0.000 A 
ATOM     21  C   UNL d   1      53.754  28.136  55.004  0.00  0.00     0.000 A 
ATOM     22  C   UNL d   1      53.951  28.667  54.389  0.00  0.00     0.002 A 
ENDBRANCH  16  17
ENDBRANCH  11  16
ENDBRANCH   9  10
ENDBRANCH   1   9
BRANCH   4  23
ATOM     23  C   UNL d   1      53.377  34.479  54.323  0.00  0.00     0.085 A 
ATOM     24  C   UNL d   1      52.930  34.879  53.765  0.00  0.00     0.019 A 
ATOM     25  C   UNL d   1      52.596  35.604  53.954  0.00  0.00     0.002 A 
ATOM     26  C   UNL d   1      52.704  35.938  54.699  0.00  0.00     0.000 A 
ATOM     27  C   UNL d   1      53.156  35.532  55.261  0.00  0.00     0.002 A 
ATOM     28  C   UNL d   1      53.492  34.803  55.073  0.00  0.00     0.019 A 
ENDBRANCH   4  23
TORSDOF 5
ENDMDL
