MODEL 1
REMARK VINA RESULT:     -10.0      0.000      0.000
REMARK  1 active torsions:
REMARK  status: ('A' for Active; 'I' for Inactive)
REMARK       I    between atoms: C_3  and  N_1 
REMARK    1  A    between atoms: C_6  and  C_3 
ROOT
ATOM      1  N   UNL d   1     -48.735  14.030  22.539  0.00  0.00    -0.175 N 
ATOM      2  N   UNL d   1     -48.478  14.629  23.067  0.00  0.00    -0.057 NA
ATOM      3  C   UNL d   1     -48.263  13.391  22.263  0.00  0.00     0.282 C 
ATOM      4  N   UNL d   1     -49.077  15.122  23.191  0.00  0.00    -0.129 NA
ATOM      5  C   UNL d   1     -49.523  14.187  22.349  0.00  0.00     0.107 A 
ATOM      6  C   UNL d   1     -49.739  14.877  22.761  0.00  0.00     0.122 A 
ATOM      7  O   UNL d   1     -48.599  12.836  21.735  0.00  0.00    -0.265 OA
ATOM      8  C   UNL d   1     -50.079  13.797  21.856  0.00  0.00     0.021 A 
ATOM      9  C   UNL d   1     -50.515  15.193  22.689  0.00  0.00     0.022 A 
ATOM     10  C   UNL d   1     -50.849  14.110  21.784  0.00  0.00     0.002 A 
ATOM     11  C   UNL d   1     -51.064  14.800  22.196  0.00  0.00     0.002 A 
ENDROOT
BRANCH   3  12
ATOM     12  C   UNL d   1     -47.480  13.305  22.502  0.00  0.00     0.058 A 
ATOM     13  C   UNL d   1     -47.234  12.639  22.904  0.00  0.00     0.005 A 
ATOM     14  C   UNL d   1     -46.468  12.557  23.137  0.00  0.00     0.000 A 
ATOM     15  C   UNL d   1     -47.797  12.064  23.057  0.00  0.00     0.000 A 
ATOM     16  C   UNL d   1     -46.244  11.885  23.536  0.00  0.00     0.000 A 
ATOM     17  C   UNL d   1     -45.913  13.154  22.971  0.00  0.00     0.000 A 
ATOM     18  C   UNL d   1     -46.767  11.311  23.698  0.00  0.00     0.000 A 
ATOM     19  C   UNL d   1     -47.546  11.397  23.460  0.00  0.00     0.000 A 
ATOM     20  C   UNL d   1     -46.150  13.831  22.566  0.00  0.00     0.000 A 
ATOM     21  C   UNL d   1     -46.943  13.906  22.330  0.00  0.00     0.005 A 
ENDBRANCH   3  12
TORSDOF 1
ENDMDL
MODEL 2
REMARK VINA RESULT:      -9.9      1.074      3.967
REMARK  1 active torsions:
REMARK  status: ('A' for Active; 'I' for Inactive)
REMARK       I    between atoms: C_3  and  N_1 
REMARK    1  A    between atoms: C_6  and  C_3 
ROOT
ATOM      1  N   UNL d   1     -48.368  12.598  22.800  0.00  0.00    -0.175 N 
ATOM      2  N   UNL d   1     -48.943  12.018  22.990  0.00  0.00    -0.057 NA
ATOM      3  C   UNL d   1     -48.526  13.334  22.424  0.00  0.00     0.282 C 
ATOM      4  N   UNL d   1     -48.579  11.413  23.335  0.00  0.00    -0.129 NA
ATOM      5  C   UNL d   1     -47.634  12.313  23.048  0.00  0.00     0.107 A 
ATOM      6  C   UNL d   1     -47.768  11.564  23.386  0.00  0.00     0.122 A 
ATOM      7  O   UNL d   1     -47.892  13.857  22.270  0.00  0.00    -0.265 OA
ATOM      8  C   UNL d   1     -46.859  12.629  23.014  0.00  0.00     0.021 A 
ATOM      9  C   UNL d   1     -47.128  11.115  23.698  0.00  0.00     0.022 A 
ATOM     10  C   UNL d   1     -46.223  12.185  23.323  0.00  0.00     0.002 A 
ATOM     11  C   UNL d   1     -46.357  11.437  23.661  0.00  0.00     0.002 A 
ENDROOT
BRANCH   3  12
ATOM     12  C   UNL d   1     -49.292  13.545  22.207  0.00  0.00     0.058 A 
ATOM     13  C   UNL d   1     -49.645  14.215  22.510  0.00  0.00     0.005 A 
ATOM     14  C   UNL d   1     -50.394  14.420  22.296  0.00  0.00     0.000 A 
ATOM     15  C   UNL d   1     -49.207  14.665  23.037  0.00  0.00     0.000 A 
ATOM     16  C   UNL d   1     -50.727  15.092  22.611  0.00  0.00     0.000 A 
ATOM     17  C   UNL d   1     -50.820  13.949  21.760  0.00  0.00     0.000 A 
ATOM     18  C   UNL d   1     -50.326  15.546  23.123  0.00  0.00     0.000 A 
ATOM     19  C   UNL d   1     -49.565  15.336  23.339  0.00  0.00     0.000 A 
ATOM     20  C   UNL d   1     -50.474  13.270  21.447  0.00  0.00     0.000 A 
ATOM     21  C   UNL d   1     -49.701  13.067  21.674  0.00  0.00     0.005 A 
ENDBRANCH   3  12
TORSDOF 1
ENDMDL
MODEL 3
REMARK VINA RESULT:      -9.7      0.901      1.838
REMARK  1 active torsions:
REMARK  status: ('A' for Active; 'I' for Inactive)
REMARK       I    between atoms: C_3  and  N_1 
REMARK    1  A    between atoms: C_6  and  C_3 
ROOT
ATOM      1  N   UNL d   1     -49.099  13.140  22.511  0.00  0.00    -0.175 N 
ATOM      2  N   UNL d   1     -49.215  12.425  22.089  0.00  0.00    -0.057 NA
ATOM      3  C   UNL d   1     -48.466  13.293  23.043  0.00  0.00     0.282 C 
ATOM      4  N   UNL d   1     -49.864  12.498  21.652  0.00  0.00    -0.129 NA
ATOM      5  C   UNL d   1     -49.714  13.653  22.307  0.00  0.00     0.107 A 
ATOM      6  C   UNL d   1     -50.197  13.247  21.765  0.00  0.00     0.122 A 
ATOM      7  O   UNL d   1     -48.425  14.037  23.424  0.00  0.00    -0.265 OA
ATOM      8  C   UNL d   1     -49.903  14.436  22.540  0.00  0.00     0.021 A 
ATOM      9  C   UNL d   1     -50.881  13.615  21.442  0.00  0.00     0.022 A 
ATOM     10  C   UNL d   1     -50.581  14.802  22.221  0.00  0.00     0.002 A 
ATOM     11  C   UNL d   1     -51.064  14.397  21.678  0.00  0.00     0.002 A 
ENDROOT
BRANCH   3  12
ATOM     12  C   UNL d   1     -47.889  12.724  23.193  0.00  0.00     0.058 A 
ATOM     13  C   UNL d   1     -47.107  12.858  23.002  0.00  0.00     0.005 A 
ATOM     14  C   UNL d   1     -46.545  12.301  23.150  0.00  0.00     0.000 A 
ATOM     15  C   UNL d   1     -46.923  13.578  22.657  0.00  0.00     0.000 A 
ATOM     16  C   UNL d   1     -45.772  12.455  22.952  0.00  0.00     0.000 A 
ATOM     17  C   UNL d   1     -46.754  11.578  23.501  0.00  0.00     0.000 A 
ATOM     18  C   UNL d   1     -45.564  13.144  22.616  0.00  0.00     0.000 A 
ATOM     19  C   UNL d   1     -46.138  13.709  22.467  0.00  0.00     0.000 A 
ATOM     20  C   UNL d   1     -47.541  11.431  23.698  0.00  0.00     0.000 A 
ATOM     21  C   UNL d   1     -48.113  12.012  23.542  0.00  0.00     0.005 A 
ENDBRANCH   3  12
TORSDOF 1
ENDMDL
MODEL 4
REMARK VINA RESULT:      -9.6      0.964      3.764
REMARK  1 active torsions:
REMARK  status: ('A' for Active; 'I' for Inactive)
REMARK       I    between atoms: C_3  and  N_1 
REMARK    1  A    between atoms: C_6  and  C_3 
ROOT
ATOM      1  N   UNL d   1     -47.935  13.246  23.040  0.00  0.00    -0.175 N 
ATOM      2  N   UNL d   1     -47.517  13.858  22.647  0.00  0.00    -0.057 NA
ATOM      3  C   UNL d   1     -48.758  13.252  23.211  0.00  0.00     0.282 C 
ATOM      4  N   UNL d   1     -46.762  13.646  22.592  0.00  0.00    -0.129 NA
ATOM      5  C   UNL d   1     -47.393  12.649  23.220  0.00  0.00     0.107 A 
ATOM      6  C   UNL d   1     -46.652  12.902  22.937  0.00  0.00     0.122 A 
ATOM      7  O   UNL d   1     -49.097  12.598  23.607  0.00  0.00    -0.265 OA
ATOM      8  C   UNL d   1     -47.468  11.908  23.603  0.00  0.00     0.021 A 
ATOM      9  C   UNL d   1     -45.970  12.419  23.032  0.00  0.00     0.022 A 
ATOM     10  C   UNL d   1     -46.793  11.427  23.698  0.00  0.00     0.002 A 
ATOM     11  C   UNL d   1     -46.052  11.680  23.415  0.00  0.00     0.002 A 
ENDROOT
BRANCH   3  12
ATOM     12  C   UNL d   1     -49.233  13.890  22.996  0.00  0.00     0.058 A 
ATOM     13  C   UNL d   1     -49.849  13.797  22.470  0.00  0.00     0.005 A 
ATOM     14  C   UNL d   1     -50.312  14.421  22.261  0.00  0.00     0.000 A 
ATOM     15  C   UNL d   1     -49.973  13.045  22.166  0.00  0.00     0.000 A 
ATOM     16  C   UNL d   1     -50.921  14.306  21.734  0.00  0.00     0.000 A 
ATOM     17  C   UNL d   1     -50.168  15.175  22.581  0.00  0.00     0.000 A 
ATOM     18  C   UNL d   1     -51.064  13.590  21.425  0.00  0.00     0.000 A 
ATOM     19  C   UNL d   1     -50.592  12.956  21.639  0.00  0.00     0.000 A 
ATOM     20  C   UNL d   1     -49.549  15.281  23.113  0.00  0.00     0.000 A 
ATOM     21  C   UNL d   1     -49.077  14.631  23.322  0.00  0.00     0.005 A 
ENDBRANCH   3  12
TORSDOF 1
ENDMDL
