MODEL 1
REMARK VINA RESULT:      49.5      0.000      0.000
REMARK  3 active torsions:
REMARK  status: ('A' for Active; 'I' for Inactive)
REMARK    1  A    between atoms: N_2  and  S_1 
REMARK    2  A    between atoms: C_5  and  S_1 
REMARK    3  A    between atoms: C_4  and  C_3 
ROOT
ATOM      1  C   UNL d   1     -55.676-100.456 -44.528  0.00  0.00     0.083 A 
ATOM      2  C   UNL d   1     -56.411 -99.349 -45.069  0.00  0.00     0.104 A 
ATOM      3  C   UNL d   1     -56.239-100.166 -45.051  0.00  0.00     0.018 A 
ATOM      4  C   UNL d   1     -55.275 -99.937 -44.013  0.00  0.00     0.062 A 
ATOM      5  C   UNL d   1     -56.012 -98.840 -44.557  0.00  0.00     0.014 A 
ATOM      6  C   UNL d   1     -55.450 -99.130 -44.035  0.00  0.00     0.012 A 
ATOM      7 CL   UNL d   1     -54.713-100.227 -43.490  0.00  0.00    -0.082 Cl
ENDROOT
BRANCH   2   8
ATOM      8  S   UNL d   1     -56.977 -99.057 -45.595  0.00  0.00     0.272 S 
ATOM      9  O   UNL d   1     -56.450 -99.146 -46.211  0.00  0.00    -0.200 OA
ATOM     10  O   UNL d   1     -57.554 -98.758 -46.132  0.00  0.00    -0.200 OA
BRANCH   8  11
ATOM     11  N   UNL d   1     -57.529 -98.963 -44.950  0.00  0.00    -0.225 N 
ATOM     12  C   UNL d   1     -58.361 -98.926 -45.112  0.00  0.00     0.116 A 
ATOM     13  C   UNL d   1     -58.891 -98.836 -44.492  0.00  0.00     0.118 A 
ATOM     14  C   UNL d   1     -59.707 -98.798 -44.641  0.00  0.00     0.028 C 
ATOM     15  O   UNL d   1     -58.600 -98.782 -43.697  0.00  0.00    -0.304 OA
ATOM     16  C   UNL d   1     -57.785 -98.819 -43.549  0.00  0.00     0.118 A 
ATOM     17  C   UNL d   1     -57.255 -98.909 -44.169  0.00  0.00     0.116 A 
ATOM     18  C   UNL d   1     -57.515 -98.765 -42.771  0.00  0.00     0.028 C 
ENDBRANCH   8  11
ENDBRANCH   2   8
BRANCH   1  19
ATOM     19  C   UNL d   1     -55.505-101.283 -44.514  0.00  0.00     0.420 C 
ATOM     20  F   UNL d   1     -55.328-102.101 -44.505  0.00  0.00    -0.166 F 
ATOM     21  F   UNL d   1     -56.171-101.433 -44.039  0.00  0.00    -0.166 F 
ATOM     22  F   UNL d   1     -54.834-101.147 -44.990  0.00  0.00    -0.166 F 
ENDBRANCH   1  19
TORSDOF 3
ENDMDL
