MODEL 1
REMARK VINA RESULT:     102.1      0.000      0.000
REMARK  5 active torsions:
REMARK  status: ('A' for Active; 'I' for Inactive)
REMARK    1  A    between atoms: C_15  and  C_4 
REMARK    2  A    between atoms: S_10  and  C_5 
REMARK    3  A    between atoms: C_17  and  S_10 
REMARK    4  A    between atoms: C_11  and  C_14 
REMARK    5  A    between atoms: C_14  and  C_17 
ROOT
ATOM      1  N   UNL d   1      61.190  47.387  50.495  0.00  0.00    -0.206 N 
ATOM      2  C   UNL d   1      61.238  46.591  50.711  0.00  0.00     0.166 A 
ATOM      3  N   UNL d   1      61.482  47.039  49.164  0.00  0.00    -0.163 NA
ATOM      4  C   UNL d   1      61.407  46.024  50.158  0.00  0.00     0.055 A 
ATOM      5  C   UNL d   1      61.021  47.936  51.061  0.00  0.00     0.116 A 
ATOM      6  C   UNL d   1      61.530  46.256  49.376  0.00  0.00     0.104 A 
ATOM      7  N   UNL d   1      61.115  46.366  51.486  0.00  0.00    -0.227 NA
ATOM      8  C   UNL d   1      60.895  47.728  51.839  0.00  0.00     0.045 A 
ATOM      9  C   UNL d   1      60.943  46.937  52.054  0.00  0.00     0.085 A 
ATOM     10  C   UNL d   1      61.697  45.689  48.829  0.00  0.00     0.023 C 
ATOM     11  C   UNL d   1      60.815  46.702  52.863  0.00  0.00     0.021 C 
ENDROOT
BRANCH   5  12
ATOM     12  S   UNL d   1      60.971  48.756  50.838  0.00  0.00    -0.064 SA
BRANCH  12  13
ATOM     13  C   UNL d   1      60.660  49.521  50.668  0.00  0.00     0.079 C 
BRANCH  13  14
ATOM     14  C   UNL d   1      60.087  49.612  50.048  0.00  0.00     0.202 C 
ATOM     15  O   UNL d   1      60.346  49.680  49.247  0.00  0.00    -0.286 OA
BRANCH  14  16
ATOM     16  C   UNL d   1      59.267  49.635  50.231  0.00  0.00     0.043 A 
ATOM     17  C   UNL d   1      58.690  49.616  49.613  0.00  0.00     0.049 A 
ATOM     18  C   UNL d   1      57.860  49.640  49.804  0.00  0.00     0.234 A 
ATOM     19  O   UNL d   1      57.278  49.620  49.181  0.00  0.00    -0.283 OA
ATOM     20  C   UNL d   1      57.613  49.682  50.609  0.00  0.00     0.234 A 
ATOM     21  C   UNL d   1      58.183  49.702  51.230  0.00  0.00     0.045 A 
ATOM     22  O   UNL d   1      56.793  49.706  50.805  0.00  0.00    -0.283 OA
ATOM     23  C   UNL d   1      59.012  49.678  51.040  0.00  0.00     0.007 A 
ENDBRANCH  14  16
ENDBRANCH  13  14
ENDBRANCH  12  13
ENDBRANCH   5  12
BRANCH   4  24
ATOM     24  C   UNL d   1      61.454  45.240  50.370  0.00  0.00     0.004 A 
ATOM     25  C   UNL d   1      60.864  44.902  50.799  0.00  0.00     0.000 A 
ATOM     26  C   UNL d   1      60.911  44.118  51.012  0.00  0.00     0.000 A 
ATOM     27  C   UNL d   1      61.549  43.675  50.795  0.00  0.00     0.000 A 
ATOM     28  C   UNL d   1      62.151  44.029  50.354  0.00  0.00     0.000 A 
ATOM     29  C   UNL d   1      62.093  44.800  50.152  0.00  0.00     0.000 A 
ENDBRANCH   4  24
TORSDOF 5
ENDMDL
