MODEL 1
REMARK VINA RESULT:      -9.0      0.000      0.000
REMARK  4 active torsions:
REMARK  status: ('A' for Active; 'I' for Inactive)
REMARK    1  A    between atoms: S_2  and  C_1 
REMARK    2  A    between atoms: C_8  and  S_2 
REMARK    3  A    between atoms: N_7  and  C_4 
REMARK    4  A    between atoms: C_11  and  N_7 
ROOT
ATOM      1  C   UNL d   1      51.761  33.754  52.909  0.00  0.00     0.187 A 
ATOM      2  N   UNL d   1      52.053  33.011  52.863  0.00  0.00    -0.208 NA
ATOM      3  C   UNL d   1      52.799  33.013  53.215  0.00  0.00     0.196 A 
ATOM      4  C   UNL d   1      52.248  34.288  53.269  0.00  0.00     0.118 A 
ATOM      5  S   UNL d   1      52.963  33.801  53.486  0.00  0.00    -0.035 SA
ATOM      6 CL   UNL d   1      52.221  35.065  53.447  0.00  0.00    -0.073 Cl
ENDROOT
BRANCH   1   7
ATOM      7  S   UNL d   1      51.029  34.062  52.639  0.00  0.00     0.228 S 
ATOM      8  O   UNL d   1      51.481  34.362  51.911  0.00  0.00    -0.216 OA
ATOM      9  O   UNL d   1      50.705  33.750  53.339  0.00  0.00    -0.216 OA
BRANCH   7  10
ATOM     10  C   UNL d   1      50.332  34.329  52.432  0.00  0.00     0.089 A 
ATOM     11  C   UNL d   1      49.804  34.717  52.888  0.00  0.00     0.011 A 
ATOM     12  C   UNL d   1      49.062  34.968  52.558  0.00  0.00     0.001 A 
ATOM     13  C   UNL d   1      48.791  34.872  51.815  0.00  0.00     0.000 A 
ATOM     14  C   UNL d   1      49.328  34.446  51.246  0.00  0.00     0.001 A 
ATOM     15  C   UNL d   1      47.995  35.145  51.472  0.00  0.00     0.000 C 
ATOM     16  C   UNL d   1      50.070  34.195  51.577  0.00  0.00     0.011 A 
ENDBRANCH   7  10
ENDBRANCH   1   7
BRANCH   3  17
ATOM     17  N   UNL d   1      53.448  32.375  53.364  0.00  0.00    -0.221 NA
BRANCH  17  18
ATOM     18  C   UNL d   1      53.277  31.509  53.354  0.00  0.00     0.084 A 
ATOM     19  C   UNL d   1      53.564  31.152  54.005  0.00  0.00     0.018 A 
ATOM     20  C   UNL d   1      53.959  31.463  54.619  0.00  0.00     0.002 C 
ATOM     21  C   UNL d   1      53.412  30.368  54.000  0.00  0.00     0.002 A 
ATOM     22  C   UNL d   1      52.962  29.988  53.309  0.00  0.00     0.000 A 
ATOM     23  C   UNL d   1      52.702  30.380  52.697  0.00  0.00     0.002 A 
ATOM     24  C   UNL d   1      52.911  31.234  52.780  0.00  0.00     0.019 A 
ENDBRANCH  17  18
ENDBRANCH   3  17
TORSDOF 4
ENDMDL
MODEL 2
REMARK VINA RESULT:      -8.4      1.024      4.722
REMARK  4 active torsions:
REMARK  status: ('A' for Active; 'I' for Inactive)
REMARK    1  A    between atoms: S_2  and  C_1 
REMARK    2  A    between atoms: C_8  and  S_2 
REMARK    3  A    between atoms: N_7  and  C_4 
REMARK    4  A    between atoms: C_11  and  N_7 
ROOT
ATOM      1  C   UNL d   1      51.697  33.513  53.071  0.00  0.00     0.187 A 
ATOM      2  N   UNL d   1      50.900  33.571  53.047  0.00  0.00    -0.208 NA
ATOM      3  C   UNL d   1      50.710  34.370  52.969  0.00  0.00     0.196 A 
ATOM      4  C   UNL d   1      52.091  34.216  53.017  0.00  0.00     0.118 A 
ATOM      5  S   UNL d   1      51.433  34.814  52.947  0.00  0.00    -0.035 SA
ATOM      6 CL   UNL d   1      52.852  34.452  53.014  0.00  0.00    -0.073 Cl
ENDROOT
BRANCH   1   7
ATOM      7  S   UNL d   1      52.185  32.834  53.145  0.00  0.00     0.228 S 
ATOM      8  O   UNL d   1      52.300  32.882  52.245  0.00  0.00    -0.216 OA
ATOM      9  O   UNL d   1      52.020  32.874  53.960  0.00  0.00    -0.216 OA
BRANCH   7  10
ATOM     10  C   UNL d   1      52.627  32.209  53.261  0.00  0.00     0.089 A 
ATOM     11  C   UNL d   1      53.313  32.167  53.668  0.00  0.00     0.011 A 
ATOM     12  C   UNL d   1      53.721  31.424  53.735  0.00  0.00     0.001 A 
ATOM     13  C   UNL d   1      53.514  30.715  53.437  0.00  0.00     0.000 A 
ATOM     14  C   UNL d   1      52.757  30.684  52.970  0.00  0.00     0.001 A 
ATOM     15  C   UNL d   1      53.959  29.926  53.515  0.00  0.00     0.000 C 
ATOM     16  C   UNL d   1      52.350  31.427  52.903  0.00  0.00     0.011 A 
ENDBRANCH   7  10
ENDBRANCH   1   7
BRANCH   3  17
ATOM     17  N   UNL d   1      49.923  34.846  52.907  0.00  0.00    -0.221 NA
BRANCH  17  18
ATOM     18  C   UNL d   1      49.389  34.797  52.205  0.00  0.00     0.084 A 
ATOM     19  C   UNL d   1      48.704  35.180  52.339  0.00  0.00     0.018 A 
ATOM     20  C   UNL d   1      48.462  35.572  52.984  0.00  0.00     0.002 C 
ATOM     21  C   UNL d   1      48.218  35.138  51.706  0.00  0.00     0.002 A 
ATOM     22  C   UNL d   1      48.472  34.694  50.956  0.00  0.00     0.000 A 
ATOM     23  C   UNL d   1      49.151  34.337  50.876  0.00  0.00     0.002 A 
ATOM     24  C   UNL d   1      49.626  34.431  51.615  0.00  0.00     0.019 A 
ENDBRANCH  17  18
ENDBRANCH   3  17
TORSDOF 4
ENDMDL
MODEL 3
REMARK VINA RESULT:      -8.4      1.544      2.148
REMARK  4 active torsions:
REMARK  status: ('A' for Active; 'I' for Inactive)
REMARK    1  A    between atoms: S_2  and  C_1 
REMARK    2  A    between atoms: C_8  and  S_2 
REMARK    3  A    between atoms: N_7  and  C_4 
REMARK    4  A    between atoms: C_11  and  N_7 
ROOT
ATOM      1  C   UNL d   1      52.001  33.213  52.981  0.00  0.00     0.187 A 
ATOM      2  N   UNL d   1      52.738  33.462  53.162  0.00  0.00    -0.208 NA
ATOM      3  C   UNL d   1      53.199  32.794  53.310  0.00  0.00     0.196 A 
ATOM      4  C   UNL d   1      51.901  32.411  52.990  0.00  0.00     0.118 A 
ATOM      5  S   UNL d   1      52.710  32.107  53.213  0.00  0.00    -0.035 SA
ATOM      6 CL   UNL d   1      51.302  31.903  52.856  0.00  0.00    -0.073 Cl
ENDROOT
BRANCH   1   7
ATOM      7  S   UNL d   1      51.316  33.656  52.783  0.00  0.00     0.228 S 
ATOM      8  O   UNL d   1      51.702  33.796  51.973  0.00  0.00    -0.216 OA
ATOM      9  O   UNL d   1      51.047  33.472  53.549  0.00  0.00    -0.216 OA
BRANCH   7  10
ATOM     10  C   UNL d   1      50.666  34.055  52.646  0.00  0.00     0.089 A 
ATOM     11  C   UNL d   1      50.233  34.473  53.170  0.00  0.00     0.011 A 
ATOM     12  C   UNL d   1      49.531  34.877  52.912  0.00  0.00     0.001 A 
ATOM     13  C   UNL d   1      49.214  34.907  52.182  0.00  0.00     0.000 A 
ATOM     14  C   UNL d   1      49.645  34.461  51.543  0.00  0.00     0.001 A 
ATOM     15  C   UNL d   1      48.462  35.343  51.917  0.00  0.00     0.000 C 
ATOM     16  C   UNL d   1      50.347  34.058  51.801  0.00  0.00     0.011 A 
ENDBRANCH   7  10
ENDBRANCH   1   7
BRANCH   3  17
ATOM     17  N   UNL d   1      54.079  32.652  53.545  0.00  0.00    -0.221 NA
BRANCH  17  18
ATOM     18  C   UNL d   1      54.454  33.034  54.248  0.00  0.00     0.084 A 
ATOM     19  C   UNL d   1      55.158  33.353  54.060  0.00  0.00     0.018 A 
ATOM     20  C   UNL d   1      55.537  33.367  53.363  0.00  0.00     0.002 C 
ATOM     21  C   UNL d   1      55.500  33.699  54.694  0.00  0.00     0.002 A 
ATOM     22  C   UNL d   1      55.087  33.697  55.502  0.00  0.00     0.000 A 
ATOM     23  C   UNL d   1      54.400  33.372  55.633  0.00  0.00     0.002 A 
ATOM     24  C   UNL d   1      54.092  33.014  54.887  0.00  0.00     0.019 A 
ENDBRANCH  17  18
ENDBRANCH   3  17
TORSDOF 4
ENDMDL
MODEL 4
REMARK VINA RESULT:      -8.3      1.729      5.124
REMARK  4 active torsions:
REMARK  status: ('A' for Active; 'I' for Inactive)
REMARK    1  A    between atoms: S_2  and  C_1 
REMARK    2  A    between atoms: C_8  and  S_2 
REMARK    3  A    between atoms: N_7  and  C_4 
REMARK    4  A    between atoms: C_11  and  N_7 
ROOT
ATOM      1  C   UNL d   1      51.096  34.174  52.891  0.00  0.00     0.187 A 
ATOM      2  N   UNL d   1      50.344  34.283  53.139  0.00  0.00    -0.208 NA
ATOM      3  C   UNL d   1      49.883  34.448  52.475  0.00  0.00     0.196 A 
ATOM      4  C   UNL d   1      51.205  34.249  52.094  0.00  0.00     0.118 A 
ATOM      5  S   UNL d   1      50.386  34.436  51.792  0.00  0.00    -0.035 SA
ATOM      6 CL   UNL d   1      51.818  34.196  51.588  0.00  0.00    -0.073 Cl
ENDROOT
BRANCH   1   7
ATOM      7  S   UNL d   1      51.788  33.993  53.331  0.00  0.00     0.228 S 
ATOM      8  O   UNL d   1      52.022  34.864  53.221  0.00  0.00    -0.216 OA
ATOM      9  O   UNL d   1      51.487  33.219  53.376  0.00  0.00    -0.216 OA
BRANCH   7  10
ATOM     10  C   UNL d   1      52.409  33.781  53.740  0.00  0.00     0.089 A 
ATOM     11  C   UNL d   1      52.758  33.062  53.758  0.00  0.00     0.011 A 
ATOM     12  C   UNL d   1      53.442  32.935  54.246  0.00  0.00     0.001 A 
ATOM     13  C   UNL d   1      53.817  33.453  54.721  0.00  0.00     0.000 A 
ATOM     14  C   UNL d   1      53.483  34.278  54.753  0.00  0.00     0.001 A 
ATOM     15  C   UNL d   1      54.548  33.306  55.239  0.00  0.00     0.000 C 
ATOM     16  C   UNL d   1      52.799  34.405  54.265  0.00  0.00     0.011 A 
ENDBRANCH   7  10
ENDBRANCH   1   7
BRANCH   3  17
ATOM     17  N   UNL d   1      48.990  34.630  52.335  0.00  0.00    -0.221 NA
BRANCH  17  18
ATOM     18  C   UNL d   1      48.578  35.317  52.705  0.00  0.00     0.084 A 
ATOM     19  C   UNL d   1      47.997  35.591  52.236  0.00  0.00     0.018 A 
ATOM     20  C   UNL d   1      47.761  35.335  51.523  0.00  0.00     0.002 C 
ATOM     21  C   UNL d   1      47.622  36.214  52.567  0.00  0.00     0.002 A 
ATOM     22  C   UNL d   1      47.873  36.525  53.382  0.00  0.00     0.000 A 
ATOM     23  C   UNL d   1      48.447  36.223  53.800  0.00  0.00     0.002 A 
ATOM     24  C   UNL d   1      48.807  35.543  53.365  0.00  0.00     0.019 A 
ENDBRANCH  17  18
ENDBRANCH   3  17
TORSDOF 4
ENDMDL
MODEL 5
REMARK VINA RESULT:      -7.8      1.628      4.885
REMARK  4 active torsions:
REMARK  status: ('A' for Active; 'I' for Inactive)
REMARK    1  A    between atoms: S_2  and  C_1 
REMARK    2  A    between atoms: C_8  and  S_2 
REMARK    3  A    between atoms: N_7  and  C_4 
REMARK    4  A    between atoms: C_11  and  N_7 
ROOT
ATOM      1  C   UNL d   1      53.109  32.219  53.310  0.00  0.00     0.187 A 
ATOM      2  N   UNL d   1      52.457  32.585  53.030  0.00  0.00    -0.208 NA
ATOM      3  C   UNL d   1      52.667  33.361  52.842  0.00  0.00     0.196 A 
ATOM      4  C   UNL d   1      53.773  32.679  53.337  0.00  0.00     0.118 A 
ATOM      5  S   UNL d   1      53.491  33.464  53.021  0.00  0.00    -0.035 SA
ATOM      6 CL   UNL d   1      54.532  32.583  53.560  0.00  0.00    -0.073 Cl
ENDROOT
BRANCH   1   7
ATOM      7  S   UNL d   1      53.210  31.430  53.581  0.00  0.00     0.228 S 
ATOM      8  O   UNL d   1      53.421  31.789  54.388  0.00  0.00    -0.216 OA
ATOM      9  O   UNL d   1      53.004  31.200  52.808  0.00  0.00    -0.216 OA
BRANCH   7  10
ATOM     10  C   UNL d   1      53.290  30.688  53.785  0.00  0.00     0.089 A 
ATOM     11  C   UNL d   1      53.497  30.074  53.318  0.00  0.00     0.011 A 
ATOM     12  C   UNL d   1      53.557  29.293  53.647  0.00  0.00     0.001 A 
ATOM     13  C   UNL d   1      53.431  29.058  54.398  0.00  0.00     0.000 A 
ATOM     14  C   UNL d   1      53.196  29.691  54.978  0.00  0.00     0.001 A 
ATOM     15  C   UNL d   1      53.498  28.219  54.738  0.00  0.00     0.000 C 
ATOM     16  C   UNL d   1      53.136  30.472  54.650  0.00  0.00     0.011 A 
ENDBRANCH   7  10
ENDBRANCH   1   7
BRANCH   3  17
ATOM     17  N   UNL d   1      52.218  34.090  52.501  0.00  0.00    -0.221 NA
BRANCH  17  18
ATOM     18  C   UNL d   1      51.363  34.244  52.663  0.00  0.00     0.084 A 
ATOM     19  C   UNL d   1      50.958  34.355  51.987  0.00  0.00     0.018 A 
ATOM     20  C   UNL d   1      51.216  34.344  51.237  0.00  0.00     0.002 C 
ATOM     21  C   UNL d   1      50.185  34.494  52.129  0.00  0.00     0.002 A 
ATOM     22  C   UNL d   1      49.866  34.511  52.979  0.00  0.00     0.000 A 
ATOM     23  C   UNL d   1      50.302  34.397  53.605  0.00  0.00     0.002 A 
ATOM     24  C   UNL d   1      51.139  34.251  53.362  0.00  0.00     0.019 A 
ENDBRANCH  17  18
ENDBRANCH   3  17
TORSDOF 4
ENDMDL
