MODEL 1
REMARK VINA RESULT:      36.8      0.000      0.000
REMARK  1 active torsions:
REMARK  status: ('A' for Active; 'I' for Inactive)
REMARK       I    between atoms: N_2  and  C_1 
REMARK       I    between atoms: N_3  and  C_1 
REMARK    1  A    between atoms: C_4  and  N_2 
ROOT
ATOM      1  C   UNL d   1     -55.375-102.773 -38.975  0.00  0.00     0.086 A 
ATOM      2  C   UNL d   1     -56.135-102.804 -39.303  0.00  0.00     0.018 A 
ATOM      3  C   UNL d   1     -56.234-102.850 -40.119  0.00  0.00     0.002 A 
ATOM      4  C   UNL d   1     -54.712-102.788 -39.462  0.00  0.00     0.019 A 
ATOM      5  C   UNL d   1     -54.810-102.834 -40.278  0.00  0.00     0.002 A 
ATOM      6  C   UNL d   1     -56.803-102.788 -38.808  0.00  0.00     0.002 A 
ATOM      7  C   UNL d   1     -55.569-102.865 -40.606  0.00  0.00     0.000 A 
ATOM      8  C   UNL d   1     -56.997-102.879 -40.429  0.00  0.00     0.000 A 
ATOM      9  C   UNL d   1     -57.559-102.819 -39.134  0.00  0.00     0.000 A 
ATOM     10  C   UNL d   1     -57.659-102.864 -39.941  0.00  0.00     0.000 A 
ENDROOT
BRANCH   1  11
ATOM     11  N   UNL d   1     -55.266-102.726 -38.153  0.00  0.00    -0.192 NA
ATOM     12  C   UNL d   1     -55.095-102.004 -37.785  0.00  0.00     0.354 C 
ATOM     13  N   UNL d   1     -54.991-101.984 -36.974  0.00  0.00    -0.252 N 
ATOM     14  O   UNL d   1     -55.032-101.307 -38.249  0.00  0.00    -0.244 OA
ATOM     15  C   UNL d   1     -54.817-101.246 -36.598  0.00  0.00     0.111 A 
ATOM     16  C   UNL d   1     -55.057-102.682 -36.536  0.00  0.00     0.111 A 
ATOM     17  C   UNL d   1     -54.713-101.238 -35.769  0.00  0.00     0.142 A 
ATOM     18  O   UNL d   1     -54.782-101.959 -35.318  0.00  0.00    -0.300 OA
ATOM     19  C   UNL d   1     -54.951-102.665 -35.699  0.00  0.00     0.142 A 
ENDBRANCH   1  11
TORSDOF 1
ENDMDL
MODEL 2
REMARK VINA RESULT:      37.0      6.671      7.708
REMARK  1 active torsions:
REMARK  status: ('A' for Active; 'I' for Inactive)
REMARK       I    between atoms: N_2  and  C_1 
REMARK       I    between atoms: N_3  and  C_1 
REMARK    1  A    between atoms: C_4  and  N_2 
ROOT
ATOM      1  C   UNL d   1     -56.225 -99.385 -44.543  0.00  0.00     0.086 A 
ATOM      2  C   UNL d   1     -55.869-100.131 -44.591  0.00  0.00     0.018 A 
ATOM      3  C   UNL d   1     -55.112-100.251 -44.290  0.00  0.00     0.002 A 
ATOM      4  C   UNL d   1     -55.824 -98.756 -44.194  0.00  0.00     0.019 A 
ATOM      5  C   UNL d   1     -55.067 -98.875 -43.894  0.00  0.00     0.002 A 
ATOM      6  C   UNL d   1     -56.277-100.764 -44.944  0.00  0.00     0.002 A 
ATOM      7  C   UNL d   1     -54.711 -99.621 -43.942  0.00  0.00     0.000 A 
ATOM      8  C   UNL d   1     -54.773-101.000 -44.347  0.00  0.00     0.000 A 
ATOM      9  C   UNL d   1     -55.924-101.507 -44.991  0.00  0.00     0.000 A 
ATOM     10  C   UNL d   1     -55.175-101.627 -44.695  0.00  0.00     0.000 A 
ENDROOT
BRANCH   1  11
ATOM     11  N   UNL d   1     -56.988 -99.254 -44.842  0.00  0.00    -0.192 NA
ATOM     12  C   UNL d   1     -57.632 -99.142 -44.335  0.00  0.00     0.354 C 
ATOM     13  N   UNL d   1     -58.375 -99.015 -44.654  0.00  0.00    -0.252 N 
ATOM     14  O   UNL d   1     -57.515 -99.161 -43.504  0.00  0.00    -0.244 OA
ATOM     15  C   UNL d   1     -59.034 -98.901 -44.136  0.00  0.00     0.111 A 
ATOM     16  C   UNL d   1     -58.469 -99.000 -45.476  0.00  0.00     0.111 A 
ATOM     17  C   UNL d   1     -59.787 -98.771 -44.474  0.00  0.00     0.142 A 
ATOM     18  O   UNL d   1     -59.883 -98.756 -45.322  0.00  0.00    -0.300 OA
ATOM     19  C   UNL d   1     -59.234 -98.868 -45.809  0.00  0.00     0.142 A 
ENDBRANCH   1  11
TORSDOF 1
ENDMDL
