MODEL 1
REMARK VINA RESULT:      21.8      0.000      0.000
REMARK  5 active torsions:
REMARK  status: ('A' for Active; 'I' for Inactive)
REMARK    1  A    between atoms: C_2  and  N_1 
REMARK    2  A    between atoms: N_5  and  C_3 
REMARK       I    between atoms: C_4  and  N_5 
REMARK       I    between atoms: N_9  and  C_4 
REMARK    3  A    between atoms: O_11  and  N_9 
REMARK    4  A    between atoms: C_13  and  O_11 
REMARK    5  A    between atoms: C_14  and  C_13 
ROOT
ATOM      1  C   UNL d   1      45.215 -13.946  44.566  0.00  0.00     0.156 A 
ATOM      2  C   UNL d   1      45.952 -14.316  44.567  0.00  0.00     0.160 A 
ATOM      3  C   UNL d   1      45.152 -13.152  44.759  0.00  0.00     0.026 A 
ATOM      4  C   UNL d   1      46.636 -13.881  44.764  0.00  0.00     0.034 A 
ATOM      5  C   UNL d   1      45.831 -12.719  44.954  0.00  0.00     0.002 A 
ATOM      6  C   UNL d   1      46.573 -13.093  44.955  0.00  0.00     0.003 A 
ENDROOT
BRANCH   2   7
ATOM      7  N   UNL d   1      46.016 -15.118  44.373  0.00  0.00    -0.335 NA
ATOM      8  C   UNL d   1      46.079 -15.917  44.179  0.00  0.00     0.499 C 
ATOM      9  O   UNL d   1      45.896 -16.110  44.955  0.00  0.00    -0.211 OA
ATOM     10  N   UNL d   1      46.142 -16.712  43.987  0.00  0.00    -0.199 NA
BRANCH  10  11
ATOM     11  O   UNL d   1      46.205 -17.514  43.792  0.00  0.00    -0.156 OA
BRANCH  11  12
ATOM     12  C   UNL d   1      45.993 -17.971  43.137  0.00  0.00     0.163 C 
BRANCH  12  13
ATOM     13  C   UNL d   1      46.418 -18.600  43.446  0.00  0.00     0.030 C 
ATOM     14  C   UNL d   1      46.489 -18.921  42.694  0.00  0.00     0.002 C 
ENDBRANCH  12  13
ENDBRANCH  11  12
ENDBRANCH  10  11
ENDBRANCH   2   7
BRANCH   1  15
ATOM     15  N   UNL d   1      44.536 -14.381  44.370  0.00  0.00    -0.111 N 
ATOM     16  O   UNL d   1      44.200 -14.328  43.620  0.00  0.00    -0.532 OA
ATOM     17  O   UNL d   1      44.191 -14.879  44.946  0.00  0.00    -0.532 OA
ENDBRANCH   1  15
TORSDOF 5
ENDMDL
MODEL 2
REMARK VINA RESULT:      22.8      7.229      7.971
REMARK  5 active torsions:
REMARK  status: ('A' for Active; 'I' for Inactive)
REMARK    1  A    between atoms: C_2  and  N_1 
REMARK    2  A    between atoms: N_5  and  C_3 
REMARK       I    between atoms: C_4  and  N_5 
REMARK       I    between atoms: N_9  and  C_4 
REMARK    3  A    between atoms: O_11  and  N_9 
REMARK    4  A    between atoms: C_13  and  O_11 
REMARK    5  A    between atoms: C_14  and  C_13 
ROOT
ATOM      1  C   UNL d   1      45.390 -14.404  37.204  0.00  0.00     0.156 A 
ATOM      2  C   UNL d   1      45.024 -15.078  36.901  0.00  0.00     0.160 A 
ATOM      3  C   UNL d   1      46.189 -14.276  37.079  0.00  0.00     0.026 A 
ATOM      4  C   UNL d   1      45.470 -15.632  36.465  0.00  0.00     0.034 A 
ATOM      5  C   UNL d   1      46.633 -14.826  36.646  0.00  0.00     0.002 A 
ATOM      6  C   UNL d   1      46.264 -15.505  36.341  0.00  0.00     0.003 A 
ENDROOT
BRANCH   2   7
ATOM      7  N   UNL d   1      44.216 -15.207  37.027  0.00  0.00    -0.335 NA
ATOM      8  C   UNL d   1      43.412 -15.335  37.153  0.00  0.00     0.499 C 
ATOM      9  O   UNL d   1      43.458 -16.013  36.694  0.00  0.00    -0.211 OA
ATOM     10  N   UNL d   1      42.612 -15.463  37.278  0.00  0.00    -0.199 NA
BRANCH  10  11
ATOM     11  O   UNL d   1      41.804 -15.591  37.404  0.00  0.00    -0.156 OA
BRANCH  11  12
ATOM     12  C   UNL d   1      41.122 -15.491  36.948  0.00  0.00     0.163 C 
BRANCH  12  13
ATOM     13  C   UNL d   1      41.379 -16.087  36.446  0.00  0.00     0.030 C 
ATOM     14  C   UNL d   1      40.607 -16.352  36.366  0.00  0.00     0.002 C 
ENDBRANCH  12  13
ENDBRANCH  11  12
ENDBRANCH  10  11
ENDBRANCH   2   7
BRANCH   1  15
ATOM     15  N   UNL d   1      44.945 -13.854  37.637  0.00  0.00    -0.111 N 
ATOM     16  O   UNL d   1      44.864 -13.923  38.455  0.00  0.00    -0.532 OA
ATOM     17  O   UNL d   1      44.574 -13.222  37.235  0.00  0.00    -0.532 OA
ENDBRANCH   1  15
TORSDOF 5
ENDMDL
MODEL 3
REMARK VINA RESULT:      23.8      5.737      6.645
REMARK  5 active torsions:
REMARK  status: ('A' for Active; 'I' for Inactive)
REMARK    1  A    between atoms: C_2  and  N_1 
REMARK    2  A    between atoms: N_5  and  C_3 
REMARK       I    between atoms: C_4  and  N_5 
REMARK       I    between atoms: N_9  and  C_4 
REMARK    3  A    between atoms: O_11  and  N_9 
REMARK    4  A    between atoms: C_13  and  O_11 
REMARK    5  A    between atoms: C_14  and  C_13 
ROOT
ATOM      1  C   UNL d   1      44.993 -15.439  37.074  0.00  0.00     0.156 A 
ATOM      2  C   UNL d   1      44.589 -15.996  37.529  0.00  0.00     0.160 A 
ATOM      3  C   UNL d   1      44.602 -15.026  36.485  0.00  0.00     0.026 A 
ATOM      4  C   UNL d   1      43.780 -16.140  37.388  0.00  0.00     0.034 A 
ATOM      5  C   UNL d   1      43.798 -15.168  36.344  0.00  0.00     0.002 A 
ATOM      6  C   UNL d   1      43.391 -15.730  36.802  0.00  0.00     0.003 A 
ENDROOT
BRANCH   2   7
ATOM      7  N   UNL d   1      44.984 -16.414  38.124  0.00  0.00    -0.335 NA
ATOM      8  C   UNL d   1      45.377 -16.829  38.717  0.00  0.00     0.499 C 
ATOM      9  O   UNL d   1      44.708 -17.291  38.825  0.00  0.00    -0.211 OA
ATOM     10  N   UNL d   1      45.769 -17.243  39.307  0.00  0.00    -0.199 NA
BRANCH  10  11
ATOM     11  O   UNL d   1      46.164 -17.660  39.903  0.00  0.00    -0.156 OA
BRANCH  11  12
ATOM     12  C   UNL d   1      45.940 -18.231  40.458  0.00  0.00     0.163 C 
BRANCH  12  13
ATOM     13  C   UNL d   1      46.638 -18.097  40.868  0.00  0.00     0.030 C 
ATOM     14  C   UNL d   1      46.438 -18.687  41.402  0.00  0.00     0.002 C 
ENDBRANCH  12  13
ENDBRANCH  11  12
ENDBRANCH  10  11
ENDBRANCH   2   7
BRANCH   1  15
ATOM     15  N   UNL d   1      45.798 -15.298  37.216  0.00  0.00    -0.111 N 
ATOM     16  O   UNL d   1      46.039 -14.762  37.794  0.00  0.00    -0.532 OA
ATOM     17  O   UNL d   1      46.369 -15.707  36.763  0.00  0.00    -0.532 OA
ENDBRANCH   1  15
TORSDOF 5
ENDMDL
