MODEL 1
REMARK VINA RESULT:      35.9      0.000      0.000
REMARK  2 active torsions:
REMARK  status: ('A' for Active; 'I' for Inactive)
REMARK    1  A    between atoms: C_5  and  C_1 
REMARK    2  A    between atoms: C_7  and  C_5 
ROOT
ATOM      1  C   UNL d   1      13.791  12.804  -2.889  0.00  0.00     0.158 A 
ATOM      2  C   UNL d   1      13.383  12.116  -2.691  0.00  0.00     0.131 A 
ATOM      3  O   UNL d   1      14.308  13.145  -2.334  0.00  0.00    -0.302 OA
ATOM      4  C   UNL d   1      14.014  12.118  -1.380  0.00  0.00     0.044 A 
ATOM      5  C   UNL d   1      14.423  12.806  -1.578  0.00  0.00     0.102 A 
ATOM      6  N   UNL d   1      12.875  11.781  -3.236  0.00  0.00    -0.146 N 
ATOM      7  C   UNL d   1      14.127  11.781  -0.630  0.00  0.00     0.004 A 
ATOM      8  C   UNL d   1      14.939  13.147  -1.023  0.00  0.00     0.025 A 
ATOM      9  C   UNL d   1      14.639  12.120  -0.081  0.00  0.00     0.000 A 
ATOM     10  C   UNL d   1      15.048  12.808  -0.279  0.00  0.00     0.002 A 
ENDROOT
BRANCH   1  11
ATOM     11  C   UNL d   1      13.681  13.137  -3.626  0.00  0.00     0.220 C 
ATOM     12  O   UNL d   1      13.463  12.666  -4.247  0.00  0.00    -0.284 OA
BRANCH  11  13
ATOM     13  C   UNL d   1      13.783  13.919  -3.758  0.00  0.00     0.041 A 
ATOM     14  C   UNL d   1      14.262  14.376  -3.267  0.00  0.00     0.003 A 
ATOM     15  C   UNL d   1      14.358  15.191  -3.419  0.00  0.00     0.000 A 
ATOM     16  C   UNL d   1      13.961  15.546  -4.078  0.00  0.00     0.000 A 
ATOM     17  C   UNL d   1      13.484  15.072  -4.561  0.00  0.00     0.000 A 
ATOM     18  C   UNL d   1      14.050  16.353  -4.236  0.00  0.00     0.000 C 
ATOM     19  C   UNL d   1      13.387  14.274  -4.417  0.00  0.00     0.003 A 
ENDBRANCH  11  13
ENDBRANCH   1  11
TORSDOF 2
ENDMDL
