MODEL 1
REMARK VINA RESULT:      -8.7      0.000      0.000
REMARK  4 active torsions:
REMARK  status: ('A' for Active; 'I' for Inactive)
REMARK    1  A    between atoms: C_2  and  S_1 
REMARK    2  A    between atoms: N_3  and  S_1 
REMARK    3  A    between atoms: C_5  and  C_11 
REMARK    4  A    between atoms: O_20  and  C_8 
ROOT
ATOM      1  S   UNL d   1      52.428  33.164  53.188  0.00  0.00     0.273 S 
ATOM      2  O   UNL d   1      52.212  33.197  53.988  0.00  0.00    -0.200 OA
ATOM      3  O   UNL d   1      52.648  33.129  52.389  0.00  0.00    -0.200 OA
ENDROOT
BRANCH   1   4
ATOM      4  C   UNL d   1      53.128  32.795  53.405  0.00  0.00     0.128 A 
ATOM      5  C   UNL d   1      53.753  33.238  53.709  0.00  0.00     0.044 A 
ATOM      6  C   UNL d   1      54.456  32.867  53.928  0.00  0.00     0.141 A 
ATOM      7  F   UNL d   1      55.082  33.314  54.233  0.00  0.00    -0.204 F 
ATOM      8  C   UNL d   1      54.530  32.052  53.841  0.00  0.00     0.032 A 
ATOM      9  C   UNL d   1      53.904  31.606  53.536  0.00  0.00     0.027 A 
ATOM     10  C   UNL d   1      53.205  31.978  53.319  0.00  0.00     0.106 A 
BRANCH  10  11
ATOM     11  O   UNL d   1      52.572  31.537  53.012  0.00  0.00    -0.327 OA
ATOM     12  C   UNL d   1      52.643  30.714  52.939  0.00  0.00     0.181 C 
ENDBRANCH  10  11
ENDBRANCH   1   4
BRANCH   1  13
ATOM     13  N   UNL d   1      51.722  33.536  52.968  0.00  0.00    -0.229 N 
ATOM     14  C   UNL d   1      51.034  33.444  53.427  0.00  0.00     0.092 A 
ATOM     15  C   UNL d   1      50.327  33.817  53.207  0.00  0.00     0.025 A 
ATOM     16  C   UNL d   1      50.307  34.282  52.529  0.00  0.00     0.062 A 
ATOM     17  C   UNL d   1      50.980  34.382  52.065  0.00  0.00     0.025 A 
ATOM     18  C   UNL d   1      51.687  34.009  52.285  0.00  0.00     0.092 A 
BRANCH  16  19
ATOM     19  C   UNL d   1      49.600  34.654  52.309  0.00  0.00     0.297 C 
ATOM     20  O   UNL d   1      49.265  34.502  51.568  0.00  0.00    -0.264 OA
ATOM     21  N   UNL d   1      49.222  35.182  52.828  0.00  0.00    -0.102 N 
ENDBRANCH  16  19
ENDBRANCH   1  13
TORSDOF 4
ENDMDL
MODEL 2
REMARK VINA RESULT:      -8.0      2.113      3.972
REMARK  4 active torsions:
REMARK  status: ('A' for Active; 'I' for Inactive)
REMARK    1  A    between atoms: C_2  and  S_1 
REMARK    2  A    between atoms: N_3  and  S_1 
REMARK    3  A    between atoms: C_5  and  C_11 
REMARK    4  A    between atoms: O_20  and  C_8 
ROOT
ATOM      1  S   UNL d   1      52.687  32.538  53.285  0.00  0.00     0.273 S 
ATOM      2  O   UNL d   1      51.948  32.504  53.660  0.00  0.00    -0.200 OA
ATOM      3  O   UNL d   1      53.425  32.577  52.910  0.00  0.00    -0.200 OA
ENDROOT
BRANCH   1   4
ATOM      4  C   UNL d   1      52.580  33.344  53.175  0.00  0.00     0.128 A 
ATOM      5  C   UNL d   1      52.186  33.622  52.507  0.00  0.00     0.044 A 
ATOM      6  C   UNL d   1      52.079  34.433  52.396  0.00  0.00     0.141 A 
ATOM      7  F   UNL d   1      51.684  34.710  51.725  0.00  0.00    -0.204 F 
ATOM      8  C   UNL d   1      52.367  34.961  52.958  0.00  0.00     0.032 A 
ATOM      9  C   UNL d   1      52.762  34.684  53.629  0.00  0.00     0.027 A 
ATOM     10  C   UNL d   1      52.867  33.877  53.736  0.00  0.00     0.106 A 
BRANCH  10  11
ATOM     11  O   UNL d   1      53.263  33.590  54.408  0.00  0.00    -0.327 OA
ATOM     12  C   UNL d   1      53.542  34.123  54.978  0.00  0.00     0.181 C 
ENDBRANCH  10  11
ENDBRANCH   1   4
BRANCH   1  13
ATOM     13  N   UNL d   1      52.795  31.724  53.396  0.00  0.00    -0.229 N 
ATOM     14  C   UNL d   1      53.539  31.422  53.613  0.00  0.00     0.092 A 
ATOM     15  C   UNL d   1      53.647  30.608  53.724  0.00  0.00     0.025 A 
ATOM     16  C   UNL d   1      53.011  30.096  53.618  0.00  0.00     0.062 A 
ATOM     17  C   UNL d   1      52.270  30.381  53.404  0.00  0.00     0.025 A 
ATOM     18  C   UNL d   1      52.162  31.196  53.293  0.00  0.00     0.092 A 
BRANCH  16  19
ATOM     19  C   UNL d   1      53.120  29.281  53.730  0.00  0.00     0.297 C 
ATOM     20  O   UNL d   1      52.765  28.742  53.212  0.00  0.00    -0.264 OA
ATOM     21  N   UNL d   1      53.584  28.999  54.359  0.00  0.00    -0.102 N 
ENDBRANCH  16  19
ENDBRANCH   1  13
TORSDOF 4
ENDMDL
