MODEL 1
REMARK VINA RESULT:      48.6      0.000      0.000
REMARK  6 active torsions:
REMARK  status: ('A' for Active; 'I' for Inactive)
REMARK    1  A    between atoms: C_6  and  N_1 
REMARK    2  A    between atoms: C_13  and  C_6 
REMARK    3  A    between atoms: C_8  and  C_9 
REMARK    4  A    between atoms: C_16  and  C_13 
REMARK    5  A    between atoms: O_14  and  C_16 
REMARK    6  A    between atoms: C_15  and  O_14 
ROOT
ATOM      1  C   UNL d   1     -50.067  26.933  34.046  0.00  0.00     0.237 C 
ATOM      2  O   UNL d   1     -50.479  26.756  34.748  0.00  0.00    -0.283 OA
ENDROOT
BRANCH   1   3
ATOM      3  C   UNL d   1     -50.317  26.602  33.326  0.00  0.00     0.117 C 
BRANCH   3   4
ATOM      4  N   UNL d   1     -50.848  25.968  33.321  0.00  0.00    -0.344 N 
ATOM      5  C   UNL d   1     -51.669  26.112  33.323  0.00  0.00     0.086 A 
ATOM      6  C   UNL d   1     -52.198  25.482  33.318  0.00  0.00     0.035 A 
ATOM      7  C   UNL d   1     -52.480  26.260  33.326  0.00  0.00     0.027 C 
ATOM      8  C   UNL d   1     -51.139  26.747  33.328  0.00  0.00     0.027 C 
ATOM      9  C   UNL d   1     -51.917  24.701  33.311  0.00  0.00     0.191 A 
ATOM     10  C   UNL d   1     -51.097  24.557  33.308  0.00  0.00     0.035 A 
ATOM     11  O   UNL d   1     -52.447  24.070  33.306  0.00  0.00    -0.287 OA
ATOM     12  C   UNL d   1     -50.565  25.195  33.313  0.00  0.00     0.086 A 
ATOM     13  C   UNL d   1     -50.036  25.825  33.318  0.00  0.00     0.027 C 
ATOM     14  C   UNL d   1     -50.283  24.421  33.306  0.00  0.00     0.027 C 
ENDBRANCH   3   4
ENDBRANCH   1   3
BRANCH   1  15
ATOM     15  C   UNL d   1     -49.416  27.429  34.058  0.00  0.00     0.166 C 
BRANCH  15  16
ATOM     16  O   UNL d   1     -49.002  27.559  34.765  0.00  0.00    -0.302 OA
BRANCH  16  17
ATOM     17  C   UNL d   1     -48.622  28.291  34.904  0.00  0.00     0.100 A 
ATOM     18  C   UNL d   1     -48.098  28.378  35.535  0.00  0.00     0.025 A 
ATOM     19  C   UNL d   1     -47.727  29.100  35.667  0.00  0.00     0.005 A 
ATOM     20  C   UNL d   1     -47.877  29.742  35.171  0.00  0.00     0.039 A 
ATOM     21  C   UNL d   1     -48.404  29.655  34.536  0.00  0.00     0.005 A 
ATOM     22  C   UNL d   1     -48.776  28.927  34.405  0.00  0.00     0.025 A 
BRANCH  20  23
ATOM     23  C   UNL d   1     -47.502  30.461  35.310  0.00  0.00     0.196 C 
ATOM     24  O   UNL d   1     -47.067  30.583  36.001  0.00  0.00    -0.287 OA
ATOM     25  C   UNL d   1     -47.564  31.067  34.750  0.00  0.00     0.045 C 
ENDBRANCH  20  23
ENDBRANCH  16  17
ENDBRANCH  15  16
ENDBRANCH   1  15
TORSDOF 6
ENDMDL
