MODEL 1
REMARK VINA RESULT:      42.1      0.000      0.000
REMARK  4 active torsions:
REMARK  status: ('A' for Active; 'I' for Inactive)
REMARK       I    between atoms: C_3  and  N_1 
REMARK    1  A    between atoms: C_7  and  C_3 
REMARK    2  A    between atoms: C_8  and  C_4 
REMARK    3  A    between atoms: C_9  and  C_5 
REMARK    4  A    between atoms: O_25  and  C_18 
ROOT
ATOM      1  N   UNL d   1      45.791 -16.429  43.184  0.00  0.00    -0.195 N 
ATOM      2  N   UNL d   1      45.746 -15.597  43.177  0.00  0.00    -0.163 NA
ATOM      3  C   UNL d   1      45.783 -16.907  42.502  0.00  0.00     0.282 C 
ATOM      4  C   UNL d   1      45.842 -16.699  43.956  0.00  0.00     0.088 A 
ATOM      5  C   UNL d   1      45.771 -15.347  43.958  0.00  0.00     0.103 A 
ATOM      6  C   UNL d   1      45.830 -16.027  44.437  0.00  0.00     0.040 A 
ATOM      7  O   UNL d   1      45.730 -16.570  41.756  0.00  0.00    -0.265 OA
ENDROOT
BRANCH   3   8
ATOM      8  C   UNL d   1      45.832 -17.743  42.590  0.00  0.00     0.077 A 
ATOM      9  C   UNL d   1      45.155 -18.191  42.680  0.00  0.00     0.104 A 
ATOM     10  N   UNL d   1      45.203 -19.002  42.766  0.00  0.00    -0.242 NA
ATOM     11  C   UNL d   1      45.953 -19.362  42.761  0.00  0.00     0.099 A 
ATOM     12  C   UNL d   1      46.633 -18.915  42.671  0.00  0.00     0.021 A 
ATOM     13  C   UNL d   1      46.583 -18.104  42.585  0.00  0.00     0.008 A 
ENDBRANCH   3   8
BRANCH   4  14
ATOM     14  C   UNL d   1      45.896 -17.484  44.205  0.00  0.00     0.018 A 
ATOM     15  C   UNL d   1      45.249 -17.847  44.564  0.00  0.00     0.004 A 
ATOM     16  C   UNL d   1      45.302 -18.631  44.814  0.00  0.00     0.024 A 
ATOM     17  C   UNL d   1      46.003 -19.053  44.704  0.00  0.00     0.094 A 
ATOM     18  C   UNL d   1      46.646 -18.688  44.346  0.00  0.00     0.024 A 
ATOM     19  C   UNL d   1      46.593 -17.904  44.097  0.00  0.00     0.004 A 
BRANCH  17  20
ATOM     20  O   UNL d   1      46.056 -19.837  44.954  0.00  0.00    -0.328 OA
ATOM     21  C   UNL d   1      46.641 -20.329  44.644  0.00  0.00     0.181 C 
ENDBRANCH  17  20
ENDBRANCH   4  14
BRANCH   5  22
ATOM     22  C   UNL d   1      45.741 -14.573  44.207  0.00  0.00     0.019 A 
ATOM     23  C   UNL d   1      45.107 -14.103  43.943  0.00  0.00     0.002 A 
ATOM     24  C   UNL d   1      45.074 -13.300  44.200  0.00  0.00     0.007 A 
ATOM     25  C   UNL d   1      45.651 -13.002  44.691  0.00  0.00     0.035 A 
ATOM     26  C   UNL d   1      46.285 -13.472  44.955  0.00  0.00     0.007 A 
ATOM     27 BR   UNL d   1      45.601 -12.214  44.932  0.00  0.00    -0.049 Br
ATOM     28  C   UNL d   1      46.316 -14.279  44.696  0.00  0.00     0.002 A 
ENDBRANCH   5  22
TORSDOF 4
ENDMDL
