MODEL 1
REMARK VINA RESULT:      -2.3      0.000      0.000
REMARK  6 active torsions:
REMARK  status: ('A' for Active; 'I' for Inactive)
REMARK    1  A    between atoms: C_6  and  S_1 
REMARK    2  A    between atoms: N_7  and  S_1 
REMARK    3  A    between atoms: N_2  and  C_3 
REMARK       I    between atoms: C_4  and  N_2 
REMARK    4  A    between atoms: C_3  and  N_11 
REMARK    5  A    between atoms: C_5  and  C_4 
REMARK    6  A    between atoms: N_11  and  C_19 
ROOT
ATOM      1  C   UNL d   1      32.835  21.256 -21.660  0.00  0.00     0.104 A 
ATOM      2  C   UNL d   1      32.970  20.511 -21.324  0.00  0.00     0.014 A 
ATOM      3  C   UNL d   1      32.829  21.358 -22.475  0.00  0.00     0.014 A 
ATOM      4  C   UNL d   1      33.096  19.961 -22.652  0.00  0.00     0.084 A 
ATOM      5  C   UNL d   1      32.960  20.710 -22.979  0.00  0.00     0.020 A 
ATOM      6  C   UNL d   1      33.101  19.857 -21.829  0.00  0.00     0.020 A 
ENDROOT
BRANCH   4   7
ATOM      7  N   UNL d   1      33.227  19.311 -23.166  0.00  0.00    -0.217 NA
BRANCH   7   8
ATOM      8  C   UNL d   1      32.879  18.640 -23.028  0.00  0.00     0.224 C 
ATOM      9  S   UNL d   1      33.199  18.116 -22.546  0.00  0.00    -0.037 SA
BRANCH   8  10
ATOM     10  N   UNL d   1      31.671  18.457 -23.694  0.00  0.00    -0.178 NA
ATOM     11  C   UNL d   1      31.599  17.866 -24.208  0.00  0.00     0.287 C 
ATOM     12  O   UNL d   1      30.905  17.764 -24.588  0.00  0.00    -0.265 OA
BRANCH  11  13
ATOM     13  C   UNL d   1      32.202  17.391 -24.338  0.00  0.00     0.087 A 
ATOM     14  S   UNL d   1      32.428  16.769 -23.913  0.00  0.00    -0.082 SA
ATOM     15  C   UNL d   1      33.059  16.464 -24.256  0.00  0.00     0.036 A 
ATOM     16  C   UNL d   1      33.228  16.877 -24.876  0.00  0.00     0.008 A 
ATOM     17  C   UNL d   1      32.710  17.452 -24.942  0.00  0.00     0.012 A 
ENDBRANCH  11  13
ENDBRANCH   8  10
ENDBRANCH   7   8
ENDBRANCH   4   7
BRANCH   1  18
ATOM     18  S   UNL d   1      32.702  21.913 -21.168  0.00  0.00     0.271 S 
ATOM     19  O   UNL d   1      33.233  22.368 -21.602  0.00  0.00    -0.200 OA
ATOM     20  O   UNL d   1      32.158  21.460 -20.715  0.00  0.00    -0.200 OA
BRANCH  18  21
ATOM     21  N   UNL d   1      32.547  22.575 -20.644  0.00  0.00    -0.226 N 
ATOM     22  C   UNL d   1      32.145  23.260 -20.914  0.00  0.00     0.111 C 
ATOM     23  C   UNL d   1      32.809  22.515 -19.853  0.00  0.00     0.111 C 
ENDBRANCH  18  21
ENDBRANCH   1  18
TORSDOF 6
ENDMDL
MODEL 2
REMARK VINA RESULT:      -1.1      1.112      1.479
REMARK  6 active torsions:
REMARK  status: ('A' for Active; 'I' for Inactive)
REMARK    1  A    between atoms: C_6  and  S_1 
REMARK    2  A    between atoms: N_7  and  S_1 
REMARK    3  A    between atoms: N_2  and  C_3 
REMARK       I    between atoms: C_4  and  N_2 
REMARK    4  A    between atoms: C_3  and  N_11 
REMARK    5  A    between atoms: C_5  and  C_4 
REMARK    6  A    between atoms: N_11  and  C_19 
ROOT
ATOM      1  C   UNL d   1      32.902  20.343 -22.157  0.00  0.00     0.104 A 
ATOM      2  C   UNL d   1      32.555  20.434 -22.904  0.00  0.00     0.014 A 
ATOM      3  C   UNL d   1      33.241  19.630 -21.933  0.00  0.00     0.014 A 
ATOM      4  C   UNL d   1      32.897  19.065 -23.204  0.00  0.00     0.084 A 
ATOM      5  C   UNL d   1      33.241  18.984 -22.455  0.00  0.00     0.020 A 
ATOM      6  C   UNL d   1      32.554  19.785 -23.431  0.00  0.00     0.020 A 
ENDROOT
BRANCH   4   7
ATOM      7  N   UNL d   1      32.900  18.408 -23.726  0.00  0.00    -0.217 NA
BRANCH   7   8
ATOM      8  C   UNL d   1      32.405  17.832 -23.617  0.00  0.00     0.224 C 
ATOM      9  S   UNL d   1      32.567  17.255 -23.118  0.00  0.00    -0.037 SA
BRANCH   8  10
ATOM     10  N   UNL d   1      31.236  17.913 -24.369  0.00  0.00    -0.178 NA
ATOM     11  C   UNL d   1      30.885  17.252 -24.609  0.00  0.00     0.287 C 
ATOM     12  O   UNL d   1      30.215  17.302 -25.039  0.00  0.00    -0.265 OA
BRANCH  11  13
ATOM     13  C   UNL d   1      31.193  16.561 -24.425  0.00  0.00     0.087 A 
ATOM     14  S   UNL d   1      31.767  16.173 -24.797  0.00  0.00    -0.082 SA
ATOM     15  C   UNL d   1      31.890  15.505 -24.412  0.00  0.00     0.036 A 
ATOM     16  C   UNL d   1      31.413  15.470 -23.818  0.00  0.00     0.008 A 
ATOM     17  C   UNL d   1      30.976  16.112 -23.810  0.00  0.00     0.012 A 
ENDBRANCH  11  13
ENDBRANCH   8  10
ENDBRANCH   7   8
ENDBRANCH   4   7
BRANCH   1  18
ATOM     18  S   UNL d   1      32.909  20.982 -21.625  0.00  0.00     0.271 S 
ATOM     19  O   UNL d   1      33.241  21.476 -22.193  0.00  0.00    -0.200 OA
ATOM     20  O   UNL d   1      32.569  20.489 -21.035  0.00  0.00    -0.200 OA
BRANCH  18  21
ATOM     21  N   UNL d   1      32.904  21.624 -21.055  0.00  0.00    -0.226 N 
ATOM     22  C   UNL d   1      32.708  21.491 -20.250  0.00  0.00     0.111 C 
ATOM     23  C   UNL d   1      33.101  22.388 -21.328  0.00  0.00     0.111 C 
ENDBRANCH  18  21
ENDBRANCH   1  18
TORSDOF 6
ENDMDL
