MODEL 1
REMARK VINA RESULT:       8.3      0.000      0.000
REMARK  8 active torsions:
REMARK  status: ('A' for Active; 'I' for Inactive)
REMARK    1  A    between atoms: C_9  and  S_1 
REMARK    2  A    between atoms: N_10  and  S_1 
REMARK    3  A    between atoms: C_17  and  C_3 
REMARK    4  A    between atoms: C_4  and  N_14 
REMARK    5  A    between atoms: C_8  and  C_16 
REMARK       I    between atoms: N_11  and  C_8 
REMARK    6  A    between atoms: C_27  and  N_10 
REMARK    7  A    between atoms: C_28  and  N_10 
REMARK    8  A    between atoms: N_14  and  N_11 
ROOT
ATOM      1  N   UNL d   1      57.419   0.579  31.451  0.00  0.00     0.049 NA
ENDROOT
BRANCH   1   2
ATOM      2  C   UNL d   1      57.217   0.595  32.300  0.00  0.00     0.768 A 
ATOM      3  N   UNL d   1      56.429   0.587  32.532  0.00  0.00    -0.058 NA
ATOM      4  C   UNL d   1      56.246   0.603  33.326  0.00  0.00     0.101 A 
ATOM      5  C   UNL d   1      56.831   0.626  33.912  0.00  0.00     0.037 A 
ATOM      6  C   UNL d   1      57.625   0.633  33.650  0.00  0.00     0.101 A 
ATOM      7  C   UNL d   1      56.654   0.641  34.699  0.00  0.00     0.010 A 
ATOM      8  N   UNL d   1      57.828   0.619  32.862  0.00  0.00    -0.058 NA
ATOM      9  C   UNL d   1      58.242   0.657  34.206  0.00  0.00     0.020 A 
ATOM     10  C   UNL d   1      58.065   0.672  34.993  0.00  0.00     0.008 A 
ATOM     11  C   UNL d   1      57.240   0.664  35.261  0.00  0.00     0.035 A 
ATOM     12 BR   UNL d   1      57.038   0.680  36.086  0.00  0.00    -0.049 Br
BRANCH   4  13
ATOM     13  C   UNL d   1      55.458   0.596  33.594  0.00  0.00     0.018 A 
ATOM     14  C   UNL d   1      55.280   0.637  34.381  0.00  0.00     0.002 A 
ATOM     15  C   UNL d   1      54.486   0.629  34.643  0.00  0.00     0.000 A 
ATOM     16  C   UNL d   1      53.870   0.577  34.058  0.00  0.00     0.000 A 
ATOM     17  C   UNL d   1      54.085   0.536  33.266  0.00  0.00     0.000 A 
ATOM     18  C   UNL d   1      54.842   0.544  33.034  0.00  0.00     0.002 A 
ENDBRANCH   4  13
ENDBRANCH   1   2
BRANCH   1  19
ATOM     19  N   UNL d   1      56.824   0.678  30.882  0.00  0.00    -0.090 NA
ATOM     20  C   UNL d   1      56.898   0.359  30.138  0.00  0.00     0.297 C 
ATOM     21  O   UNL d   1      56.330   0.449  29.583  0.00  0.00    -0.264 OA
BRANCH  20  22
ATOM     22  C   UNL d   1      57.566  -0.063  29.950  0.00  0.00     0.059 A 
ATOM     23  C   UNL d   1      57.616  -0.852  30.193  0.00  0.00     0.006 A 
ATOM     24  C   UNL d   1      58.289  -1.274  30.002  0.00  0.00     0.013 A 
ATOM     25  C   UNL d   1      58.886  -0.913  29.583  0.00  0.00     0.104 A 
ATOM     26  C   UNL d   1      58.847  -0.109  29.329  0.00  0.00     0.013 A 
ATOM     27  C   UNL d   1      58.159   0.308  29.529  0.00  0.00     0.006 A 
BRANCH  25  28
ATOM     28  S   UNL d   1      59.582  -1.353  29.387  0.00  0.00     0.271 S 
ATOM     29  O   UNL d   1      59.974  -0.661  29.153  0.00  0.00    -0.200 OA
ATOM     30  O   UNL d   1      59.225  -2.074  29.611  0.00  0.00    -0.200 OA
BRANCH  28  31
ATOM     31  N   UNL d   1      60.283  -1.793  29.188  0.00  0.00    -0.229 N 
BRANCH  31  32
ATOM     32  C   UNL d   1      60.944  -1.776  29.672  0.00  0.00     0.092 C 
ATOM     33  C   UNL d   1      61.130  -1.116  30.100  0.00  0.00     0.021 C 
ENDBRANCH  31  32
BRANCH  31  34
ATOM     34  C   UNL d   1      60.313  -2.248  28.500  0.00  0.00     0.092 C 
ATOM     35  C   UNL d   1      60.790  -2.920  28.471  0.00  0.00     0.021 C 
ENDBRANCH  31  34
ENDBRANCH  28  31
ENDBRANCH  25  28
ENDBRANCH  20  22
ENDBRANCH   1  19
TORSDOF 8
ENDMDL
MODEL 2
REMARK VINA RESULT:      10.2      2.564      5.838
REMARK  8 active torsions:
REMARK  status: ('A' for Active; 'I' for Inactive)
REMARK    1  A    between atoms: C_9  and  S_1 
REMARK    2  A    between atoms: N_10  and  S_1 
REMARK    3  A    between atoms: C_17  and  C_3 
REMARK    4  A    between atoms: C_4  and  N_14 
REMARK    5  A    between atoms: C_8  and  C_16 
REMARK       I    between atoms: N_11  and  C_8 
REMARK    6  A    between atoms: C_27  and  N_10 
REMARK    7  A    between atoms: C_28  and  N_10 
REMARK    8  A    between atoms: N_14  and  N_11 
ROOT
ATOM      1  N   UNL d   1      57.454  -0.192  30.989  0.00  0.00     0.049 NA
ENDROOT
BRANCH   1   2
ATOM      2  C   UNL d   1      58.084  -0.553  30.505  0.00  0.00     0.768 A 
ATOM      3  N   UNL d   1      58.012  -1.333  30.259  0.00  0.00    -0.058 NA
ATOM      4  C   UNL d   1      58.603  -1.666  29.807  0.00  0.00     0.101 A 
ATOM      5  C   UNL d   1      59.279  -1.241  29.585  0.00  0.00     0.037 A 
ATOM      6  C   UNL d   1      59.328  -0.448  29.848  0.00  0.00     0.101 A 
ATOM      7  C   UNL d   1      59.866  -1.567  29.137  0.00  0.00     0.010 A 
ATOM      8  N   UNL d   1      58.748  -0.099  30.299  0.00  0.00    -0.058 NA
ATOM      9  C   UNL d   1      59.989   0.012  29.646  0.00  0.00     0.020 A 
ATOM     10  C   UNL d   1      60.577  -0.314  29.198  0.00  0.00     0.008 A 
ATOM     11  C   UNL d   1      60.522  -1.137  28.928  0.00  0.00     0.035 A 
ATOM     12 BR   UNL d   1      61.133  -1.492  28.456  0.00  0.00    -0.049 Br
BRANCH   4  13
ATOM     13  C   UNL d   1      58.562  -2.454  29.542  0.00  0.00     0.018 A 
ATOM     14  C   UNL d   1      58.919  -3.055  29.946  0.00  0.00     0.002 A 
ATOM     15  C   UNL d   1      58.873  -3.844  29.673  0.00  0.00     0.000 A 
ATOM     16  C   UNL d   1      58.439  -3.997  28.958  0.00  0.00     0.000 A 
ATOM     17  C   UNL d   1      58.086  -3.363  28.570  0.00  0.00     0.000 A 
ATOM     18  C   UNL d   1      58.139  -2.621  28.842  0.00  0.00     0.002 A 
ENDBRANCH   4  13
ENDBRANCH   1   2
BRANCH   1  19
ATOM     19  N   UNL d   1      56.765   0.094  30.627  0.00  0.00    -0.090 NA
ATOM     20  C   UNL d   1      56.147   0.381  31.070  0.00  0.00     0.297 C 
ATOM     21  O   UNL d   1      55.479   0.659  30.729  0.00  0.00    -0.264 OA
BRANCH  20  22
ATOM     22  C   UNL d   1      56.205   0.387  31.880  0.00  0.00     0.059 A 
ATOM     23  C   UNL d   1      56.899   0.677  32.224  0.00  0.00     0.006 A 
ATOM     24  C   UNL d   1      56.955   0.681  33.039  0.00  0.00     0.013 A 
ATOM     25  C   UNL d   1      56.334   0.406  33.486  0.00  0.00     0.104 A 
ATOM     26  C   UNL d   1      55.620   0.108  33.148  0.00  0.00     0.013 A 
ATOM     27  C   UNL d   1      55.577   0.108  32.320  0.00  0.00     0.006 A 
BRANCH  25  28
ATOM     28  S   UNL d   1      56.395   0.412  34.330  0.00  0.00     0.271 S 
ATOM     29  O   UNL d   1      55.575   0.321  34.408  0.00  0.00    -0.200 OA
ATOM     30  O   UNL d   1      57.224   0.504  34.300  0.00  0.00    -0.200 OA
BRANCH  28  31
ATOM     31  N   UNL d   1      56.453   0.418  35.180  0.00  0.00    -0.229 N 
BRANCH  31  32
ATOM     32  C   UNL d   1      57.179   0.475  35.554  0.00  0.00     0.092 C 
ATOM     33  C   UNL d   1      57.335   0.055  36.226  0.00  0.00     0.021 C 
ENDBRANCH  31  32
BRANCH  31  34
ATOM     34  C   UNL d   1      55.774   0.367  35.647  0.00  0.00     0.092 C 
ATOM     35  C   UNL d   1      55.719  -0.212  36.232  0.00  0.00     0.021 C 
ENDBRANCH  31  34
ENDBRANCH  28  31
ENDBRANCH  25  28
ENDBRANCH  20  22
ENDBRANCH   1  19
TORSDOF 8
ENDMDL
