MODEL 1
REMARK VINA RESULT:     -11.5      0.000      0.000
REMARK  4 active torsions:
REMARK  status: ('A' for Active; 'I' for Inactive)
REMARK    1  A    between atoms: S_2  and  N_1 
REMARK    2  A    between atoms: N_6  and  S_2 
REMARK    3  A    between atoms: C_10  and  C_3 
REMARK    4  A    between atoms: C_11  and  C_10 
ROOT
ATOM      1  N   UNL d   1      53.290  32.343  53.573  0.00  0.00    -0.201 N 
ATOM      2  C   UNL d   1      52.651  32.695  53.160  0.00  0.00     0.158 A 
ATOM      3  N   UNL d   1      52.233  32.088  52.780  0.00  0.00    -0.226 NA
ATOM      4  C   UNL d   1      53.254  31.532  53.440  0.00  0.00     0.095 A 
ATOM      5  C   UNL d   1      52.605  31.374  52.953  0.00  0.00     0.100 A 
ATOM      6  C   UNL d   1      53.736  30.919  53.705  0.00  0.00     0.020 A 
ATOM      7  C   UNL d   1      52.443  30.595  52.734  0.00  0.00     0.021 A 
ATOM      8  C   UNL d   1      53.574  30.141  53.486  0.00  0.00     0.002 A 
ATOM      9  C   UNL d   1      52.924  29.977  52.998  0.00  0.00     0.002 A 
ENDROOT
BRANCH   1  10
ATOM     10  S   UNL d   1      53.845  32.736  54.023  0.00  0.00     0.338 S 
ATOM     11  O   UNL d   1      53.399  32.604  54.702  0.00  0.00    -0.181 OA
ATOM     12  O   UNL d   1      54.294  32.869  53.345  0.00  0.00    -0.181 OA
BRANCH  10  13
ATOM     13  N   UNL d   1      54.412  33.135  54.467  0.00  0.00    -0.216 N 
ATOM     14  C   UNL d   1      54.297  33.249  55.276  0.00  0.00     0.093 A 
ATOM     15  C   UNL d   1      54.861  33.646  55.717  0.00  0.00     0.020 A 
ATOM     16  C   UNL d   1      55.541  33.932  55.365  0.00  0.00     0.003 A 
ATOM     17  C   UNL d   1      55.664  33.822  54.556  0.00  0.00     0.020 A 
ATOM     18  C   UNL d   1      55.093  33.419  54.104  0.00  0.00     0.093 A 
ENDBRANCH  10  13
ENDBRANCH   1  10
BRANCH   2  19
ATOM     19  C   UNL d   1      52.474  33.503  53.139  0.00  0.00     0.038 C 
BRANCH  19  20
ATOM     20  C   UNL d   1      51.751  33.751  52.834  0.00  0.00     0.003 A 
ATOM     21  C   UNL d   1      51.708  34.003  52.047  0.00  0.00     0.000 A 
ATOM     22  C   UNL d   1      50.986  34.251  51.741  0.00  0.00     0.000 A 
ATOM     23  C   UNL d   1      50.314  34.250  52.207  0.00  0.00     0.000 A 
ATOM     24  C   UNL d   1      50.359  33.996  52.997  0.00  0.00     0.000 A 
ATOM     25  C   UNL d   1      51.082  33.747  53.306  0.00  0.00     0.000 A 
ENDBRANCH  19  20
ENDBRANCH   2  19
TORSDOF 4
ENDMDL
MODEL 2
REMARK VINA RESULT:     -10.6      0.878      3.486
REMARK  4 active torsions:
REMARK  status: ('A' for Active; 'I' for Inactive)
REMARK    1  A    between atoms: S_2  and  N_1 
REMARK    2  A    between atoms: N_6  and  S_2 
REMARK    3  A    between atoms: C_10  and  C_3 
REMARK    4  A    between atoms: C_11  and  C_10 
ROOT
ATOM      1  N   UNL d   1      52.794  32.408  53.347  0.00  0.00    -0.201 N 
ATOM      2  C   UNL d   1      53.473  32.650  53.774  0.00  0.00     0.158 A 
ATOM      3  N   UNL d   1      53.925  31.973  53.931  0.00  0.00    -0.226 NA
ATOM      4  C   UNL d   1      52.839  31.593  53.251  0.00  0.00     0.095 A 
ATOM      5  C   UNL d   1      53.533  31.324  53.609  0.00  0.00     0.100 A 
ATOM      6  C   UNL d   1      52.330  31.063  52.878  0.00  0.00     0.020 A 
ATOM      7  C   UNL d   1      53.714  30.519  53.592  0.00  0.00     0.021 A 
ATOM      8  C   UNL d   1      52.510  30.259  52.861  0.00  0.00     0.002 A 
ATOM      9  C   UNL d   1      53.205  29.983  53.219  0.00  0.00     0.002 A 
ENDROOT
BRANCH   1  10
ATOM     10  S   UNL d   1      52.197  32.895  53.077  0.00  0.00     0.338 S 
ATOM     11  O   UNL d   1      52.582  32.981  52.355  0.00  0.00    -0.181 OA
ATOM     12  O   UNL d   1      51.809  32.811  53.800  0.00  0.00    -0.181 OA
BRANCH  10  13
ATOM     13  N   UNL d   1      51.589  33.386  52.817  0.00  0.00    -0.216 N 
ATOM     14  C   UNL d   1      50.903  33.466  53.269  0.00  0.00     0.093 A 
ATOM     15  C   UNL d   1      50.299  33.954  53.010  0.00  0.00     0.020 A 
ATOM     16  C   UNL d   1      50.366  34.365  52.306  0.00  0.00     0.003 A 
ATOM     17  C   UNL d   1      51.049  34.290  51.848  0.00  0.00     0.020 A 
ATOM     18  C   UNL d   1      51.666  33.795  52.108  0.00  0.00     0.093 A 
ENDBRANCH  10  13
ENDBRANCH   1  10
BRANCH   2  19
ATOM     19  C   UNL d   1      53.655  33.426  53.995  0.00  0.00     0.038 C 
BRANCH  19  20
ATOM     20  C   UNL d   1      54.297  33.565  54.491  0.00  0.00     0.003 A 
ATOM     21  C   UNL d   1      55.039  33.723  54.162  0.00  0.00     0.000 A 
ATOM     22  C   UNL d   1      55.680  33.862  54.657  0.00  0.00     0.000 A 
ATOM     23  C   UNL d   1      55.589  33.846  55.469  0.00  0.00     0.000 A 
ATOM     24  C   UNL d   1      54.843  33.688  55.800  0.00  0.00     0.000 A 
ATOM     25  C   UNL d   1      54.198  33.548  55.304  0.00  0.00     0.000 A 
ENDBRANCH  19  20
ENDBRANCH   2  19
TORSDOF 4
ENDMDL
MODEL 3
REMARK VINA RESULT:     -10.3      1.029      3.908
REMARK  4 active torsions:
REMARK  status: ('A' for Active; 'I' for Inactive)
REMARK    1  A    between atoms: S_2  and  N_1 
REMARK    2  A    between atoms: N_6  and  S_2 
REMARK    3  A    between atoms: C_10  and  C_3 
REMARK    4  A    between atoms: C_11  and  C_10 
ROOT
ATOM      1  N   UNL d   1      52.932  33.055  53.674  0.00  0.00    -0.201 N 
ATOM      2  C   UNL d   1      53.180  32.257  53.606  0.00  0.00     0.158 A 
ATOM      3  N   UNL d   1      53.848  32.160  54.089  0.00  0.00    -0.226 NA
ATOM      4  C   UNL d   1      53.447  33.431  54.193  0.00  0.00     0.095 A 
ATOM      5  C   UNL d   1      54.010  32.883  54.449  0.00  0.00     0.100 A 
ATOM      6  C   UNL d   1      53.470  34.209  54.463  0.00  0.00     0.020 A 
ATOM      7  C   UNL d   1      54.597  33.120  54.978  0.00  0.00     0.021 A 
ATOM      8  C   UNL d   1      54.056  34.447  54.992  0.00  0.00     0.002 A 
ATOM      9  C   UNL d   1      54.623  33.900  55.252  0.00  0.00     0.002 A 
ENDROOT
BRANCH   1  10
ATOM     10  S   UNL d   1      52.295  33.394  53.293  0.00  0.00     0.338 S 
ATOM     11  O   UNL d   1      52.758  33.536  52.627  0.00  0.00    -0.181 OA
ATOM     12  O   UNL d   1      51.829  33.253  53.957  0.00  0.00    -0.181 OA
BRANCH  10  13
ATOM     13  N   UNL d   1      51.645  33.733  52.919  0.00  0.00    -0.216 N 
ATOM     14  C   UNL d   1      50.918  33.768  53.308  0.00  0.00     0.093 A 
ATOM     15  C   UNL d   1      50.271  34.105  52.935  0.00  0.00     0.020 A 
ATOM     16  C   UNL d   1      50.337  34.410  52.180  0.00  0.00     0.003 A 
ATOM     17  C   UNL d   1      51.060  34.379  51.783  0.00  0.00     0.020 A 
ATOM     18  C   UNL d   1      51.720  34.037  52.158  0.00  0.00     0.093 A 
ENDBRANCH  10  13
ENDBRANCH   1  10
BRANCH   2  19
ATOM     19  C   UNL d   1      52.821  31.676  53.140  0.00  0.00     0.038 C 
BRANCH  19  20
ATOM     20  C   UNL d   1      52.992  30.884  53.278  0.00  0.00     0.003 A 
ATOM     21  C   UNL d   1      52.470  30.427  53.728  0.00  0.00     0.000 A 
ATOM     22  C   UNL d   1      52.641  29.635  53.866  0.00  0.00     0.000 A 
ATOM     23  C   UNL d   1      53.321  29.297  53.563  0.00  0.00     0.000 A 
ATOM     24  C   UNL d   1      53.846  29.756  53.111  0.00  0.00     0.000 A 
ATOM     25  C   UNL d   1      53.676  30.552  52.971  0.00  0.00     0.000 A 
ENDBRANCH  19  20
ENDBRANCH   2  19
TORSDOF 4
ENDMDL
MODEL 4
REMARK VINA RESULT:      -9.7      0.892      2.910
REMARK  4 active torsions:
REMARK  status: ('A' for Active; 'I' for Inactive)
REMARK    1  A    between atoms: S_2  and  N_1 
REMARK    2  A    between atoms: N_6  and  S_2 
REMARK    3  A    between atoms: C_10  and  C_3 
REMARK    4  A    between atoms: C_11  and  C_10 
ROOT
ATOM      1  N   UNL d   1      53.242  32.601  53.860  0.00  0.00    -0.201 N 
ATOM      2  C   UNL d   1      52.664  33.119  53.542  0.00  0.00     0.158 A 
ATOM      3  N   UNL d   1      52.850  33.887  53.793  0.00  0.00    -0.226 NA
ATOM      4  C   UNL d   1      53.769  33.057  54.296  0.00  0.00     0.095 A 
ATOM      5  C   UNL d   1      53.530  33.846  54.256  0.00  0.00     0.100 A 
ATOM      6  C   UNL d   1      54.439  32.845  54.726  0.00  0.00     0.020 A 
ATOM      7  C   UNL d   1      53.969  34.424  54.650  0.00  0.00     0.021 A 
ATOM      8  C   UNL d   1      54.877  33.421  55.120  0.00  0.00     0.002 A 
ATOM      9  C   UNL d   1      54.642  34.216  55.083  0.00  0.00     0.002 A 
ENDROOT
BRANCH   1  10
ATOM     10  S   UNL d   1      53.273  31.793  53.753  0.00  0.00     0.338 S 
ATOM     11  O   UNL d   1      53.729  31.891  53.075  0.00  0.00    -0.181 OA
ATOM     12  O   UNL d   1      52.816  31.691  54.432  0.00  0.00    -0.181 OA
BRANCH  10  13
ATOM     13  N   UNL d   1      53.296  30.976  53.657  0.00  0.00    -0.216 N 
ATOM     14  C   UNL d   1      53.332  30.652  52.899  0.00  0.00     0.093 A 
ATOM     15  C   UNL d   1      53.356  29.839  52.802  0.00  0.00     0.020 A 
ATOM     16  C   UNL d   1      53.344  29.341  53.451  0.00  0.00     0.003 A 
ATOM     17  C   UNL d   1      53.308  29.657  54.213  0.00  0.00     0.020 A 
ATOM     18  C   UNL d   1      53.284  30.482  54.315  0.00  0.00     0.093 A 
ENDBRANCH  10  13
ENDBRANCH   1  10
BRANCH   2  19
ATOM     19  C   UNL d   1      52.025  32.897  53.066  0.00  0.00     0.038 C 
BRANCH  19  20
ATOM     20  C   UNL d   1      51.467  33.462  52.849  0.00  0.00     0.003 A 
ATOM     21  C   UNL d   1      50.803  33.582  53.328  0.00  0.00     0.000 A 
ATOM     22  C   UNL d   1      50.246  34.146  53.112  0.00  0.00     0.000 A 
ATOM     23  C   UNL d   1      50.342  34.588  52.431  0.00  0.00     0.000 A 
ATOM     24  C   UNL d   1      51.010  34.466  51.950  0.00  0.00     0.000 A 
ATOM     25  C   UNL d   1      51.571  33.900  52.165  0.00  0.00     0.000 A 
ENDBRANCH  19  20
ENDBRANCH   2  19
TORSDOF 4
ENDMDL
MODEL 5
REMARK VINA RESULT:      -9.4      0.578      2.953
REMARK  4 active torsions:
REMARK  status: ('A' for Active; 'I' for Inactive)
REMARK    1  A    between atoms: S_2  and  N_1 
REMARK    2  A    between atoms: N_6  and  S_2 
REMARK    3  A    between atoms: C_10  and  C_3 
REMARK    4  A    between atoms: C_11  and  C_10 
ROOT
ATOM      1  N   UNL d   1      53.156  32.895  53.560  0.00  0.00    -0.201 N 
ATOM      2  C   UNL d   1      53.049  32.109  53.288  0.00  0.00     0.158 A 
ATOM      3  N   UNL d   1      52.343  32.088  52.853  0.00  0.00    -0.226 NA
ATOM      4  C   UNL d   1      52.520  33.339  53.289  0.00  0.00     0.095 A 
ATOM      5  C   UNL d   1      52.020  32.846  52.854  0.00  0.00     0.100 A 
ATOM      6  C   UNL d   1      52.337  34.137  53.386  0.00  0.00     0.020 A 
ATOM      7  C   UNL d   1      51.334  33.157  52.518  0.00  0.00     0.021 A 
ATOM      8  C   UNL d   1      51.652  34.448  53.050  0.00  0.00     0.002 A 
ATOM      9  C   UNL d   1      51.146  33.957  52.613  0.00  0.00     0.002 A 
ENDROOT
BRANCH   1  10
ATOM     10  S   UNL d   1      53.779  33.166  54.011  0.00  0.00     0.338 S 
ATOM     11  O   UNL d   1      54.239  33.260  53.335  0.00  0.00    -0.181 OA
ATOM     12  O   UNL d   1      53.322  33.072  54.690  0.00  0.00    -0.181 OA
BRANCH  10  13
ATOM     13  N   UNL d   1      54.401  33.437  54.477  0.00  0.00    -0.216 N 
ATOM     14  C   UNL d   1      54.316  33.473  55.297  0.00  0.00     0.093 A 
ATOM     15  C   UNL d   1      54.935  33.743  55.761  0.00  0.00     0.020 A 
ATOM     16  C   UNL d   1      55.639  33.979  55.420  0.00  0.00     0.003 A 
ATOM     17  C   UNL d   1      55.733  33.947  54.600  0.00  0.00     0.020 A 
ATOM     18  C   UNL d   1      55.107  33.673  54.126  0.00  0.00     0.093 A 
ENDBRANCH  10  13
ENDBRANCH   1  10
BRANCH   2  19
ATOM     19  C   UNL d   1      53.558  31.473  53.432  0.00  0.00     0.038 C 
BRANCH  19  20
ATOM     20  C   UNL d   1      53.266  30.705  53.395  0.00  0.00     0.003 A 
ATOM     21  C   UNL d   1      53.158  30.277  54.095  0.00  0.00     0.000 A 
ATOM     22  C   UNL d   1      52.866  29.510  54.060  0.00  0.00     0.000 A 
ATOM     23  C   UNL d   1      52.682  29.167  53.341  0.00  0.00     0.000 A 
ATOM     24  C   UNL d   1      52.791  29.597  52.637  0.00  0.00     0.000 A 
ATOM     25  C   UNL d   1      53.084  30.368  52.671  0.00  0.00     0.000 A 
ENDBRANCH  19  20
ENDBRANCH   2  19
TORSDOF 4
ENDMDL
MODEL 6
REMARK VINA RESULT:      -9.0      1.011      3.859
REMARK  4 active torsions:
REMARK  status: ('A' for Active; 'I' for Inactive)
REMARK    1  A    between atoms: S_2  and  N_1 
REMARK    2  A    between atoms: N_6  and  S_2 
REMARK    3  A    between atoms: C_10  and  C_3 
REMARK    4  A    between atoms: C_11  and  C_10 
ROOT
ATOM      1  N   UNL d   1      52.750  32.588  53.291  0.00  0.00    -0.201 N 
ATOM      2  C   UNL d   1      53.370  33.012  53.665  0.00  0.00     0.158 A 
ATOM      3  N   UNL d   1      53.167  33.816  53.653  0.00  0.00    -0.226 NA
ATOM      4  C   UNL d   1      52.183  33.135  53.057  0.00  0.00     0.095 A 
ATOM      5  C   UNL d   1      52.436  33.889  53.278  0.00  0.00     0.100 A 
ATOM      6  C   UNL d   1      51.464  33.034  52.668  0.00  0.00     0.020 A 
ATOM      7  C   UNL d   1      51.964  34.543  53.106  0.00  0.00     0.021 A 
ATOM      8  C   UNL d   1      50.991  33.687  52.496  0.00  0.00     0.002 A 
ATOM      9  C   UNL d   1      51.241  34.447  52.716  0.00  0.00     0.002 A 
ENDROOT
BRANCH   1  10
ATOM     10  S   UNL d   1      52.720  31.780  53.181  0.00  0.00     0.338 S 
ATOM     11  O   UNL d   1      53.100  31.857  52.455  0.00  0.00    -0.181 OA
ATOM     12  O   UNL d   1      52.341  31.701  53.908  0.00  0.00    -0.181 OA
BRANCH  10  13
ATOM     13  N   UNL d   1      52.684  30.964  53.081  0.00  0.00    -0.216 N 
ATOM     14  C   UNL d   1      52.282  30.500  53.632  0.00  0.00     0.093 A 
ATOM     15  C   UNL d   1      52.245  29.687  53.533  0.00  0.00     0.020 A 
ATOM     16  C   UNL d   1      52.605  29.329  52.892  0.00  0.00     0.003 A 
ATOM     17  C   UNL d   1      53.010  29.786  52.337  0.00  0.00     0.020 A 
ATOM     18  C   UNL d   1      53.049  30.611  52.434  0.00  0.00     0.093 A 
ENDBRANCH  10  13
ENDBRANCH   1  10
BRANCH   2  19
ATOM     19  C   UNL d   1      54.057  32.683  53.987  0.00  0.00     0.038 C 
BRANCH  19  20
ATOM     20  C   UNL d   1      54.531  33.139  54.480  0.00  0.00     0.003 A 
ATOM     21  C   UNL d   1      55.177  33.546  54.161  0.00  0.00     0.000 A 
ATOM     22  C   UNL d   1      55.651  34.002  54.653  0.00  0.00     0.000 A 
ATOM     23  C   UNL d   1      55.491  34.056  55.453  0.00  0.00     0.000 A 
ATOM     24  C   UNL d   1      54.842  33.647  55.773  0.00  0.00     0.000 A 
ATOM     25  C   UNL d   1      54.364  33.188  55.281  0.00  0.00     0.000 A 
ENDBRANCH  19  20
ENDBRANCH   2  19
TORSDOF 4
ENDMDL
