MODEL 1
REMARK VINA RESULT:      17.0      0.000      0.000
REMARK  2 active torsions:
REMARK  status: ('A' for Active; 'I' for Inactive)
REMARK    1  A    between atoms: S_2  and  C_1 
REMARK    2  A    between atoms: N_3  and  S_2 
ROOT
ATOM      1  C   UNL d   1      13.429  12.634  -3.283  0.00  0.00     0.125 A 
ATOM      2  C   UNL d   1      13.578  13.326  -3.761  0.00  0.00    -0.009 A 
ATOM      3  C   UNL d   1      13.161  11.946  -3.327  0.00  0.00     0.031 A 
ATOM      4  C   UNL d   1      13.423  13.004  -3.911  0.00  0.00    -0.009 A 
ATOM      5  C   UNL d   1      13.164  12.833  -4.757  0.00  0.00    -0.007 A 
ATOM      6  C   UNL d   1      12.919  11.781  -4.108  0.00  0.00     0.045 A 
ATOM      7  C   UNL d   1      13.378  13.202  -4.428  0.00  0.00    -0.007 A 
ATOM      8  C   UNL d   1      12.904  12.165  -4.800  0.00  0.00    -0.022 A 
ATOM      9  C   UNL d   1      13.025  12.310  -4.507  0.00  0.00    -0.022 A 
ATOM     10  C   UNL d   1      13.308  13.527  -5.258  0.00  0.00    -0.001 A 
ENDROOT
BRANCH   1  11
ATOM     11  S   UNL d   1      13.486  12.199  -2.331  0.00  0.00     0.142 S 
ATOM     12  O   UNL d   1      12.769  11.779  -2.257  0.00  0.00    -0.233 OA
BRANCH  11  13
ATOM     13  N   UNL d   1      14.020  12.195  -1.736  0.00  0.00    -0.251 N 
ATOM     14  C   UNL d   1      14.760  12.516  -1.856  0.00  0.00     0.108 A 
ATOM     15  C   UNL d   1      15.322  12.504  -1.211  0.00  0.00     0.100 A 
ATOM     16  N   UNL d   1      15.117  12.183  -0.508  0.00  0.00    -0.299 N 
ATOM     17  C   UNL d   1      14.354  11.862  -0.415  0.00  0.00     0.100 A 
ATOM     18  C   UNL d   1      15.807  12.273  -0.017  0.00  0.00     0.100 C 
ATOM     19  C   UNL d   1      13.814  11.870  -1.028  0.00  0.00     0.108 A 
ENDBRANCH  11  13
ENDBRANCH   1  11
TORSDOF 2
ENDMDL
