MODEL 1
REMARK VINA RESULT:      20.3      0.000      0.000
REMARK  3 active torsions:
REMARK  status: ('A' for Active; 'I' for Inactive)
REMARK    1  A    between atoms: C_5  and  C_1 
REMARK    2  A    between atoms: C_8  and  N_2 
REMARK    3  A    between atoms: C_10  and  C_8 
ROOT
ATOM      1  C   UNL d   1      13.576  11.944  -3.710  0.00  0.00     0.166 A 
ATOM      2  N   UNL d   1      13.680  11.835  -2.066  0.00  0.00    -0.302 N 
ATOM      3  C   UNL d   1      14.312  11.981  -3.338  0.00  0.00     0.058 A 
ATOM      4  C   UNL d   1      12.892  11.852  -3.260  0.00  0.00     0.058 A 
ATOM      5  C   UNL d   1      12.943  11.798  -2.437  0.00  0.00     0.083 A 
ATOM      6  C   UNL d   1      14.364  11.927  -2.517  0.00  0.00     0.083 A 
ATOM      7  O   UNL d   1      12.770  11.899  -4.062  0.00  0.00    -0.290 OA
ENDROOT
BRANCH   1   8
ATOM      8  C   UNL d   1      13.524  11.998  -4.531  0.00  0.00     0.036 A 
ATOM      9  C   UNL d   1      14.183  12.267  -4.973  0.00  0.00     0.003 A 
ATOM     10  C   UNL d   1      14.120  12.317  -5.790  0.00  0.00     0.000 A 
ATOM     11  C   UNL d   1      13.417  12.105  -6.176  0.00  0.00     0.000 A 
ATOM     12  C   UNL d   1      12.774  11.842  -5.747  0.00  0.00     0.000 A 
ATOM     13  C   UNL d   1      12.821  11.786  -4.917  0.00  0.00     0.003 A 
ENDBRANCH   1   8
BRANCH   2  14
ATOM     14  C   UNL d   1      13.730  11.781  -1.245  0.00  0.00     0.080 C 
BRANCH  14  15
ATOM     15  C   UNL d   1      14.289  12.230  -0.836  0.00  0.00     0.018 A 
ATOM     16  C   UNL d   1      14.069  12.943  -0.485  0.00  0.00     0.002 A 
ATOM     17  C   UNL d   1      14.628  13.391  -0.076  0.00  0.00     0.000 A 
ATOM     18  C   UNL d   1      15.406  13.132  -0.017  0.00  0.00     0.000 A 
ATOM     19  C   UNL d   1      15.627  12.418  -0.368  0.00  0.00     0.000 A 
ATOM     20  C   UNL d   1      15.069  11.966  -0.779  0.00  0.00     0.002 A 
ENDBRANCH  14  15
ENDBRANCH   2  14
TORSDOF 3
ENDMDL
