MODEL 1
REMARK VINA RESULT:      -6.6      0.000      0.000
REMARK  9 active torsions:
REMARK  status: ('A' for Active; 'I' for Inactive)
REMARK    1  A    between atoms: P_3  and  C_1 
REMARK    2  A    between atoms: O_13  and  P_3 
REMARK    3  A    between atoms: O_14  and  P_3 
REMARK    4  A    between atoms: N_8  and  C_4 
REMARK    5  A    between atoms: C_15  and  N_8 
REMARK    6  A    between atoms: C_25  and  O_13 
REMARK    7  A    between atoms: C_26  and  O_14 
REMARK    8  A    between atoms: O_23  and  C_16 
REMARK    9  A    between atoms: O_24  and  C_17 
ROOT
ATOM      1  C   UNL d   1      52.205  33.737  53.089  0.00  0.00     0.174 A 
ATOM      2  C   UNL d   1      52.665  33.065  52.921  0.00  0.00     0.100 A 
ATOM      3  C   UNL d   1      53.354  32.918  53.353  0.00  0.00     0.095 A 
ATOM      4  N   UNL d   1      52.438  34.256  53.688  0.00  0.00    -0.237 NA
ATOM      5  C   UNL d   1      53.584  33.436  53.949  0.00  0.00     0.038 A 
ATOM      6  C   UNL d   1      53.124  34.108  54.118  0.00  0.00     0.083 A 
ATOM      7  C   UNL d   1      54.267  33.288  54.376  0.00  0.00     0.027 A 
ATOM      8 CL   UNL d   1      52.430  32.545  52.319  0.00  0.00    -0.079 Cl
ATOM      9  C   UNL d   1      53.354  34.626  54.714  0.00  0.00     0.021 A 
ATOM     10  C   UNL d   1      54.505  33.809  54.981  0.00  0.00     0.094 A 
ATOM     11  C   UNL d   1      54.039  34.479  55.143  0.00  0.00     0.026 A 
ENDROOT
BRANCH   3  12
ATOM     12  N   UNL d   1      53.813  32.249  53.185  0.00  0.00    -0.245 NA
BRANCH  12  13
ATOM     13  C   UNL d   1      53.552  31.493  53.410  0.00  0.00     0.082 A 
ATOM     14  C   UNL d   1      53.240  30.986  52.842  0.00  0.00     0.021 A 
ATOM     15  C   UNL d   1      52.976  30.226  53.057  0.00  0.00     0.026 A 
ATOM     16  C   UNL d   1      53.029  29.986  53.849  0.00  0.00     0.094 A 
ATOM     17  C   UNL d   1      53.345  30.505  54.420  0.00  0.00     0.026 A 
ATOM     18  C   UNL d   1      53.604  31.255  54.197  0.00  0.00     0.021 A 
BRANCH  16  19
ATOM     19  O   UNL d   1      52.767  29.233  54.066  0.00  0.00    -0.328 OA
ATOM     20  C   UNL d   1      53.196  28.795  54.628  0.00  0.00     0.181 C 
ENDBRANCH  16  19
ENDBRANCH  12  13
ENDBRANCH   3  12
BRANCH   1  21
ATOM     21  P   UNL d   1      51.511  33.887  52.655  0.00  0.00     0.393 P 
ATOM     22  O   UNL d   1      51.968  34.223  52.055  0.00  0.00    -0.251 OA
BRANCH  21  23
ATOM     23  O   UNL d   1      50.807  34.023  52.247  0.00  0.00    -0.263 OA
BRANCH  23  24
ATOM     24  C   UNL d   1      50.823  34.315  51.476  0.00  0.00     0.126 C 
ATOM     25  C   UNL d   1      50.127  34.367  51.036  0.00  0.00     0.029 C 
ENDBRANCH  23  24
ENDBRANCH  21  23
BRANCH  21  26
ATOM     26  O   UNL d   1      50.895  33.596  53.135  0.00  0.00    -0.263 OA
BRANCH  26  27
ATOM     27  C   UNL d   1      50.261  34.082  53.342  0.00  0.00     0.126 C 
ATOM     28  C   UNL d   1      49.745  33.857  53.944  0.00  0.00     0.029 C 
ENDBRANCH  26  27
ENDBRANCH  21  26
ENDBRANCH   1  21
BRANCH  10  29
ATOM     29  O   UNL d   1      55.191  33.661  55.410  0.00  0.00    -0.328 OA
ATOM     30  C   UNL d   1      55.885  34.063  55.225  0.00  0.00     0.181 C 
ENDBRANCH  10  29
TORSDOF 9
ENDMDL
MODEL 2
REMARK VINA RESULT:      -5.8      1.232      4.232
REMARK  9 active torsions:
REMARK  status: ('A' for Active; 'I' for Inactive)
REMARK    1  A    between atoms: P_3  and  C_1 
REMARK    2  A    between atoms: O_13  and  P_3 
REMARK    3  A    between atoms: O_14  and  P_3 
REMARK    4  A    between atoms: N_8  and  C_4 
REMARK    5  A    between atoms: C_15  and  N_8 
REMARK    6  A    between atoms: C_25  and  O_13 
REMARK    7  A    between atoms: C_26  and  O_14 
REMARK    8  A    between atoms: O_23  and  C_16 
REMARK    9  A    between atoms: O_24  and  C_17 
ROOT
ATOM      1  C   UNL d   1      53.926  32.786  54.078  0.00  0.00     0.174 A 
ATOM      2  C   UNL d   1      53.424  32.976  53.442  0.00  0.00     0.100 A 
ATOM      3  C   UNL d   1      52.998  32.381  53.061  0.00  0.00     0.095 A 
ATOM      4  N   UNL d   1      53.997  32.001  54.325  0.00  0.00    -0.237 NA
ATOM      5  C   UNL d   1      53.069  31.600  53.309  0.00  0.00     0.038 A 
ATOM      6  C   UNL d   1      53.571  31.409  53.944  0.00  0.00     0.083 A 
ATOM      7  C   UNL d   1      52.645  31.011  52.928  0.00  0.00     0.027 A 
ATOM      8 CL   UNL d   1      53.354  33.765  53.195  0.00  0.00    -0.079 Cl
ATOM      9  C   UNL d   1      53.643  30.628  54.192  0.00  0.00     0.021 A 
ATOM     10  C   UNL d   1      52.714  30.219  53.175  0.00  0.00     0.094 A 
ATOM     11  C   UNL d   1      53.218  30.036  53.811  0.00  0.00     0.026 A 
ENDROOT
BRANCH   3  12
ATOM     12  N   UNL d   1      52.497  32.571  52.427  0.00  0.00    -0.245 NA
BRANCH  12  13
ATOM     13  C   UNL d   1      51.850  33.078  52.541  0.00  0.00     0.082 A 
ATOM     14  C   UNL d   1      51.826  33.800  52.149  0.00  0.00     0.021 A 
ATOM     15  C   UNL d   1      51.181  34.316  52.256  0.00  0.00     0.026 A 
ATOM     16  C   UNL d   1      50.563  34.094  52.762  0.00  0.00     0.094 A 
ATOM     17  C   UNL d   1      50.593  33.360  53.157  0.00  0.00     0.026 A 
ATOM     18  C   UNL d   1      51.236  32.857  53.044  0.00  0.00     0.021 A 
BRANCH  16  19
ATOM     19  O   UNL d   1      49.921  34.603  52.871  0.00  0.00    -0.328 OA
ATOM     20  C   UNL d   1      49.388  34.732  52.246  0.00  0.00     0.181 C 
ENDBRANCH  16  19
ENDBRANCH  12  13
ENDBRANCH   3  12
BRANCH   1  21
ATOM     21  P   UNL d   1      54.356  33.384  54.463  0.00  0.00     0.393 P 
ATOM     22  O   UNL d   1      54.998  33.234  53.966  0.00  0.00    -0.251 OA
BRANCH  21  23
ATOM     23  O   UNL d   1      54.759  33.983  54.864  0.00  0.00    -0.263 OA
BRANCH  23  24
ATOM     24  C   UNL d   1      55.570  33.920  54.999  0.00  0.00     0.126 C 
ATOM     25  C   UNL d   1      55.938  34.406  55.553  0.00  0.00     0.029 C 
ENDBRANCH  23  24
ENDBRANCH  21  23
BRANCH  21  26
ATOM     26  O   UNL d   1      53.835  33.678  55.044  0.00  0.00    -0.263 OA
BRANCH  26  27
ATOM     27  C   UNL d   1      53.749  34.491  55.155  0.00  0.00     0.126 C 
ATOM     28  C   UNL d   1      53.139  34.784  55.626  0.00  0.00     0.029 C 
ENDBRANCH  26  27
ENDBRANCH  21  26
ENDBRANCH   1  21
BRANCH  10  29
ATOM     29  O   UNL d   1      52.289  29.627  52.793  0.00  0.00    -0.328 OA
ATOM     30  C   UNL d   1      52.156  28.909  53.172  0.00  0.00     0.181 C 
ENDBRANCH  10  29
TORSDOF 9
ENDMDL
MODEL 3
REMARK VINA RESULT:      -5.8      1.066      3.119
REMARK  9 active torsions:
REMARK  status: ('A' for Active; 'I' for Inactive)
REMARK    1  A    between atoms: P_3  and  C_1 
REMARK    2  A    between atoms: O_13  and  P_3 
REMARK    3  A    between atoms: O_14  and  P_3 
REMARK    4  A    between atoms: N_8  and  C_4 
REMARK    5  A    between atoms: C_15  and  N_8 
REMARK    6  A    between atoms: C_25  and  O_13 
REMARK    7  A    between atoms: C_26  and  O_14 
REMARK    8  A    between atoms: O_23  and  C_16 
REMARK    9  A    between atoms: O_24  and  C_17 
ROOT
ATOM      1  C   UNL d   1      51.245  33.442  52.938  0.00  0.00     0.174 A 
ATOM      2  C   UNL d   1      52.047  33.655  52.874  0.00  0.00     0.100 A 
ATOM      3  C   UNL d   1      52.633  33.075  52.919  0.00  0.00     0.095 A 
ATOM      4  N   UNL d   1      51.037  32.650  53.047  0.00  0.00    -0.237 NA
ATOM      5  C   UNL d   1      52.424  32.286  53.027  0.00  0.00     0.038 A 
ATOM      6  C   UNL d   1      51.622  32.073  53.091  0.00  0.00     0.083 A 
ATOM      7  C   UNL d   1      53.007  31.713  53.071  0.00  0.00     0.027 A 
ATOM      8 CL   UNL d   1      52.254  34.451  52.765  0.00  0.00    -0.079 Cl
ATOM      9  C   UNL d   1      51.413  31.285  53.199  0.00  0.00     0.021 A 
ATOM     10  C   UNL d   1      52.801  30.914  53.181  0.00  0.00     0.094 A 
ATOM     11  C   UNL d   1      51.998  30.708  53.244  0.00  0.00     0.026 A 
ENDROOT
BRANCH   3  12
ATOM     12  N   UNL d   1      53.431  33.287  52.855  0.00  0.00    -0.245 NA
BRANCH  12  13
ATOM     13  C   UNL d   1      53.873  33.469  53.534  0.00  0.00     0.082 A 
ATOM     14  C   UNL d   1      54.616  33.130  53.636  0.00  0.00     0.021 A 
ATOM     15  C   UNL d   1      55.068  33.306  54.314  0.00  0.00     0.026 A 
ATOM     16  C   UNL d   1      54.761  33.825  54.884  0.00  0.00     0.094 A 
ATOM     17  C   UNL d   1      54.008  34.164  54.774  0.00  0.00     0.026 A 
ATOM     18  C   UNL d   1      53.569  33.984  54.100  0.00  0.00     0.021 A 
BRANCH  16  19
ATOM     19  O   UNL d   1      55.206  34.001  55.557  0.00  0.00    -0.328 OA
ATOM     20  C   UNL d   1      55.032  33.621  56.276  0.00  0.00     0.181 C 
ENDBRANCH  16  19
ENDBRANCH  12  13
ENDBRANCH   3  12
BRANCH   1  21
ATOM     21  P   UNL d   1      50.653  34.025  52.893  0.00  0.00     0.393 P 
ATOM     22  O   UNL d   1      50.572  33.996  53.714  0.00  0.00    -0.251 OA
BRANCH  21  23
ATOM     23  O   UNL d   1      50.070  34.604  52.818  0.00  0.00    -0.263 OA
BRANCH  23  24
ATOM     24  C   UNL d   1      49.743  34.954  53.489  0.00  0.00     0.126 C 
ATOM     25  C   UNL d   1      49.114  35.482  53.418  0.00  0.00     0.029 C 
ENDBRANCH  23  24
ENDBRANCH  21  23
BRANCH  21  26
ATOM     26  O   UNL d   1      50.588  34.197  52.080  0.00  0.00    -0.263 OA
BRANCH  26  27
ATOM     27  C   UNL d   1      49.856  34.153  51.702  0.00  0.00     0.126 C 
ATOM     28  C   UNL d   1      49.801  34.270  50.887  0.00  0.00     0.029 C 
ENDBRANCH  26  27
ENDBRANCH  21  26
ENDBRANCH   1  21
BRANCH  10  29
ATOM     29  O   UNL d   1      53.386  30.337  53.225  0.00  0.00    -0.328 OA
ATOM     30  C   UNL d   1      53.278  29.681  53.709  0.00  0.00     0.181 C 
ENDBRANCH  10  29
TORSDOF 9
ENDMDL
MODEL 4
REMARK VINA RESULT:      -5.4      1.190      3.387
REMARK  9 active torsions:
REMARK  status: ('A' for Active; 'I' for Inactive)
REMARK    1  A    between atoms: P_3  and  C_1 
REMARK    2  A    between atoms: O_13  and  P_3 
REMARK    3  A    between atoms: O_14  and  P_3 
REMARK    4  A    between atoms: N_8  and  C_4 
REMARK    5  A    between atoms: C_15  and  N_8 
REMARK    6  A    between atoms: C_25  and  O_13 
REMARK    7  A    between atoms: C_26  and  O_14 
REMARK    8  A    between atoms: O_23  and  C_16 
REMARK    9  A    between atoms: O_24  and  C_17 
ROOT
ATOM      1  C   UNL d   1      53.488  33.471  53.884  0.00  0.00     0.174 A 
ATOM      2  C   UNL d   1      53.383  32.810  53.391  0.00  0.00     0.100 A 
ATOM      3  C   UNL d   1      52.690  32.734  52.947  0.00  0.00     0.095 A 
ATOM      4  N   UNL d   1      52.901  34.050  53.929  0.00  0.00    -0.237 NA
ATOM      5  C   UNL d   1      52.106  33.311  52.992  0.00  0.00     0.038 A 
ATOM      6  C   UNL d   1      52.212  33.973  53.486  0.00  0.00     0.083 A 
ATOM      7  C   UNL d   1      51.421  33.233  52.550  0.00  0.00     0.027 A 
ATOM      8 CL   UNL d   1      53.974  32.230  53.347  0.00  0.00    -0.079 Cl
ATOM      9  C   UNL d   1      51.628  34.550  53.531  0.00  0.00     0.021 A 
ATOM     10  C   UNL d   1      50.826  33.814  52.592  0.00  0.00     0.094 A 
ATOM     11  C   UNL d   1      50.939  34.473  53.088  0.00  0.00     0.026 A 
ENDROOT
BRANCH   3  12
ATOM     12  N   UNL d   1      52.585  32.075  52.455  0.00  0.00    -0.245 NA
BRANCH  12  13
ATOM     13  C   UNL d   1      52.605  31.308  52.771  0.00  0.00     0.082 A 
ATOM     14  C   UNL d   1      53.224  30.803  52.571  0.00  0.00     0.021 A 
ATOM     15  C   UNL d   1      53.254  30.031  52.882  0.00  0.00     0.026 A 
ATOM     16  C   UNL d   1      52.655  29.776  53.396  0.00  0.00     0.094 A 
ATOM     17  C   UNL d   1      52.031  30.292  53.594  0.00  0.00     0.026 A 
ATOM     18  C   UNL d   1      52.010  31.054  53.281  0.00  0.00     0.021 A 
BRANCH  16  19
ATOM     19  O   UNL d   1      52.681  29.011  53.706  0.00  0.00    -0.328 OA
ATOM     20  C   UNL d   1      53.117  28.864  54.400  0.00  0.00     0.181 C 
ENDBRANCH  16  19
ENDBRANCH  12  13
ENDBRANCH   3  12
BRANCH   1  21
ATOM     21  P   UNL d   1      54.185  33.550  54.333  0.00  0.00     0.393 P 
ATOM     22  O   UNL d   1      54.589  33.782  53.651  0.00  0.00    -0.251 OA
BRANCH  21  23
ATOM     23  O   UNL d   1      54.860  33.619  54.802  0.00  0.00    -0.263 OA
BRANCH  23  24
ATOM     24  C   UNL d   1      55.414  34.210  54.648  0.00  0.00     0.126 C 
ATOM     25  C   UNL d   1      55.939  34.452  55.237  0.00  0.00     0.029 C 
ENDBRANCH  23  24
ENDBRANCH  21  23
BRANCH  21  26
ATOM     26  O   UNL d   1      53.961  33.343  55.109  0.00  0.00    -0.263 OA
BRANCH  26  27
ATOM     27  C   UNL d   1      54.385  32.773  55.528  0.00  0.00     0.126 C 
ATOM     28  C   UNL d   1      54.038  32.381  56.164  0.00  0.00     0.029 C 
ENDBRANCH  26  27
ENDBRANCH  21  26
ENDBRANCH   1  21
BRANCH  10  29
ATOM     29  O   UNL d   1      50.138  33.737  52.149  0.00  0.00    -0.328 OA
ATOM     30  C   UNL d   1      49.684  34.401  51.977  0.00  0.00     0.181 C 
ENDBRANCH  10  29
TORSDOF 9
ENDMDL
MODEL 5
REMARK VINA RESULT:      -5.3      1.477      3.932
REMARK  9 active torsions:
REMARK  status: ('A' for Active; 'I' for Inactive)
REMARK    1  A    between atoms: P_3  and  C_1 
REMARK    2  A    between atoms: O_13  and  P_3 
REMARK    3  A    between atoms: O_14  and  P_3 
REMARK    4  A    between atoms: N_8  and  C_4 
REMARK    5  A    between atoms: C_15  and  N_8 
REMARK    6  A    between atoms: C_25  and  O_13 
REMARK    7  A    between atoms: C_26  and  O_14 
REMARK    8  A    between atoms: O_23  and  C_16 
REMARK    9  A    between atoms: O_24  and  C_17 
ROOT
ATOM      1  C   UNL d   1      52.753  32.468  53.442  0.00  0.00     0.174 A 
ATOM      2  C   UNL d   1      52.429  32.970  52.864  0.00  0.00     0.100 A 
ATOM      3  C   UNL d   1      52.458  33.789  52.966  0.00  0.00     0.095 A 
ATOM      4  N   UNL d   1      53.102  32.789  54.118  0.00  0.00    -0.237 NA
ATOM      5  C   UNL d   1      52.807  34.108  53.640  0.00  0.00     0.038 A 
ATOM      6  C   UNL d   1      53.130  33.605  54.219  0.00  0.00     0.083 A 
ATOM      7  C   UNL d   1      52.833  34.920  53.738  0.00  0.00     0.027 A 
ATOM      8 CL   UNL d   1      52.079  32.645  52.186  0.00  0.00    -0.079 Cl
ATOM      9  C   UNL d   1      53.479  33.924  54.892  0.00  0.00     0.021 A 
ATOM     10  C   UNL d   1      53.185  35.249  54.418  0.00  0.00     0.094 A 
ATOM     11  C   UNL d   1      53.507  34.740  54.993  0.00  0.00     0.026 A 
ENDROOT
BRANCH   3  12
ATOM     12  N   UNL d   1      52.136  34.290  52.389  0.00  0.00    -0.245 NA
BRANCH  12  13
ATOM     13  C   UNL d   1      51.314  34.331  52.281  0.00  0.00     0.082 A 
ATOM     14  C   UNL d   1      50.994  34.179  51.539  0.00  0.00     0.021 A 
ATOM     15  C   UNL d   1      50.170  34.218  51.420  0.00  0.00     0.026 A 
ATOM     16  C   UNL d   1      49.676  34.412  52.057  0.00  0.00     0.094 A 
ATOM     17  C   UNL d   1      50.006  34.565  52.807  0.00  0.00     0.026 A 
ATOM     18  C   UNL d   1      50.823  34.524  52.914  0.00  0.00     0.021 A 
BRANCH  16  19
ATOM     19  O   UNL d   1      48.859  34.451  51.943  0.00  0.00    -0.328 OA
ATOM     20  C   UNL d   1      48.557  34.798  51.250  0.00  0.00     0.181 C 
ENDBRANCH  16  19
ENDBRANCH  12  13
ENDBRANCH   3  12
BRANCH   1  21
ATOM     21  P   UNL d   1      52.725  31.642  53.341  0.00  0.00     0.393 P 
ATOM     22  O   UNL d   1      51.971  31.634  53.678  0.00  0.00    -0.251 OA
BRANCH  21  23
ATOM     23  O   UNL d   1      52.725  30.825  53.229  0.00  0.00    -0.263 OA
BRANCH  23  24
ATOM     24  C   UNL d   1      52.057  30.379  53.416  0.00  0.00     0.126 C 
ATOM     25  C   UNL d   1      52.081  29.556  53.377  0.00  0.00     0.029 C 
ENDBRANCH  23  24
ENDBRANCH  21  23
BRANCH  21  26
ATOM     26  O   UNL d   1      53.454  31.448  52.988  0.00  0.00    -0.263 OA
BRANCH  26  27
ATOM     27  C   UNL d   1      53.944  30.877  53.327  0.00  0.00     0.126 C 
ATOM     28  C   UNL d   1      54.697  30.740  53.021  0.00  0.00     0.029 C 
ENDBRANCH  26  27
ENDBRANCH  21  26
ENDBRANCH   1  21
BRANCH  10  29
ATOM     29  O   UNL d   1      53.213  36.065  54.518  0.00  0.00    -0.328 OA
ATOM     30  C   UNL d   1      52.827  36.413  55.156  0.00  0.00     0.181 C 
ENDBRANCH  10  29
TORSDOF 9
ENDMDL
MODEL 6
REMARK VINA RESULT:      -4.8      1.308      4.239
REMARK  9 active torsions:
REMARK  status: ('A' for Active; 'I' for Inactive)
REMARK    1  A    between atoms: P_3  and  C_1 
REMARK    2  A    between atoms: O_13  and  P_3 
REMARK    3  A    between atoms: O_14  and  P_3 
REMARK    4  A    between atoms: N_8  and  C_4 
REMARK    5  A    between atoms: C_15  and  N_8 
REMARK    6  A    between atoms: C_25  and  O_13 
REMARK    7  A    between atoms: C_26  and  O_14 
REMARK    8  A    between atoms: O_23  and  C_16 
REMARK    9  A    between atoms: O_24  and  C_17 
ROOT
ATOM      1  C   UNL d   1      52.714  31.069  53.509  0.00  0.00     0.174 A 
ATOM      2  C   UNL d   1      53.306  31.636  53.363  0.00  0.00     0.100 A 
ATOM      3  C   UNL d   1      53.094  32.408  53.161  0.00  0.00     0.095 A 
ATOM      4  N   UNL d   1      51.918  31.280  53.451  0.00  0.00    -0.237 NA
ATOM      5  C   UNL d   1      52.301  32.617  53.104  0.00  0.00     0.038 A 
ATOM      6  C   UNL d   1      51.710  32.050  53.250  0.00  0.00     0.083 A 
ATOM      7  C   UNL d   1      52.095  33.384  52.904  0.00  0.00     0.027 A 
ATOM      8 CL   UNL d   1      54.105  31.422  53.421  0.00  0.00    -0.079 Cl
ATOM      9  C   UNL d   1      50.916  32.258  53.193  0.00  0.00     0.021 A 
ATOM     10  C   UNL d   1      51.293  33.600  52.845  0.00  0.00     0.094 A 
ATOM     11  C   UNL d   1      50.707  33.028  52.992  0.00  0.00     0.026 A 
ENDROOT
BRANCH   3  12
ATOM     12  N   UNL d   1      53.683  32.973  53.016  0.00  0.00    -0.245 NA
BRANCH  12  13
ATOM     13  C   UNL d   1      54.142  33.272  53.640  0.00  0.00     0.082 A 
ATOM     14  C   UNL d   1      54.956  33.153  53.638  0.00  0.00     0.021 A 
ATOM     15  C   UNL d   1      55.425  33.449  54.260  0.00  0.00     0.026 A 
ATOM     16  C   UNL d   1      55.064  33.864  54.880  0.00  0.00     0.094 A 
ATOM     17  C   UNL d   1      54.238  33.981  54.876  0.00  0.00     0.026 A 
ATOM     18  C   UNL d   1      53.783  33.684  54.257  0.00  0.00     0.021 A 
BRANCH  16  19
ATOM     19  O   UNL d   1      55.526  34.158  55.498  0.00  0.00    -0.328 OA
ATOM     20  C   UNL d   1      55.315  33.992  56.286  0.00  0.00     0.181 C 
ENDBRANCH  16  19
ENDBRANCH  12  13
ENDBRANCH   3  12
BRANCH   1  21
ATOM     21  P   UNL d   1      52.925  30.290  53.712  0.00  0.00     0.393 P 
ATOM     22  O   UNL d   1      52.926  30.506  54.509  0.00  0.00    -0.251 OA
BRANCH  21  23
ATOM     23  O   UNL d   1      53.133  29.510  53.885  0.00  0.00    -0.263 OA
BRANCH  23  24
ATOM     24  C   UNL d   1      53.267  29.278  54.665  0.00  0.00     0.126 C 
ATOM     25  C   UNL d   1      53.565  28.528  54.830  0.00  0.00     0.029 C 
ENDBRANCH  23  24
ENDBRANCH  21  23
BRANCH  21  26
ATOM     26  O   UNL d   1      52.976  29.887  52.984  0.00  0.00    -0.263 OA
BRANCH  26  27
ATOM     27  C   UNL d   1      52.499  29.231  52.835  0.00  0.00     0.126 C 
ATOM     28  C   UNL d   1      52.456  28.912  52.076  0.00  0.00     0.029 C 
ENDBRANCH  26  27
ENDBRANCH  21  26
ENDBRANCH   1  21
BRANCH  10  29
ATOM     29  O   UNL d   1      51.085  34.370  52.644  0.00  0.00    -0.328 OA
ATOM     30  C   UNL d   1      50.291  34.575  52.573  0.00  0.00     0.181 C 
ENDBRANCH  10  29
TORSDOF 9
ENDMDL
