MODEL 1
REMARK VINA RESULT:      30.3      0.000      0.000
REMARK  2 active torsions:
REMARK  status: ('A' for Active; 'I' for Inactive)
REMARK    1  A    between atoms: C_9  and  C_2 
REMARK    2  A    between atoms: C_12  and  C_7 
ROOT
ATOM      1  N   UNL d   1      14.577  13.185  -1.168  0.00  0.00    -0.186 N 
ATOM      2  C   UNL d   1      14.918  13.796  -0.720  0.00  0.00     0.187 A 
ATOM      3  N   UNL d   1      14.227  13.185  -1.907  0.00  0.00    -0.162 NA
ATOM      4  C   UNL d   1      14.639  12.485  -0.731  0.00  0.00     0.217 A 
ATOM      5  N   UNL d   1      15.184  13.468  -0.014  0.00  0.00    -0.127 NA
ATOM      6  N   UNL d   1      15.012  12.659  -0.021  0.00  0.00    -0.120 NA
ATOM      7  C   UNL d   1      13.928  12.482  -2.228  0.00  0.00     0.108 A 
ATOM      8  S   UNL d   1      14.343  11.782  -1.044  0.00  0.00    -0.045 SA
ATOM      9  C   UNL d   1      13.987  11.779  -1.794  0.00  0.00     0.059 A 
ENDROOT
BRANCH   2  10
ATOM     10  C   UNL d   1      14.974  14.592  -0.952  0.00  0.00     0.038 A 
ATOM     11  C   UNL d   1      15.333  15.140  -0.449  0.00  0.00     0.003 A 
ATOM     12  C   UNL d   1      15.392  15.923  -0.670  0.00  0.00     0.000 A 
ATOM     13  C   UNL d   1      15.749  16.462  -0.168  0.00  0.00     0.000 C 
ATOM     14  C   UNL d   1      15.088  16.157  -1.401  0.00  0.00     0.000 A 
ATOM     15  C   UNL d   1      14.730  15.613  -1.904  0.00  0.00     0.000 A 
ATOM     16  C   UNL d   1      14.674  14.829  -1.675  0.00  0.00     0.003 A 
ENDBRANCH   2  10
BRANCH   7  17
ATOM     17  C   UNL d   1      13.574  12.478  -2.971  0.00  0.00     0.020 A 
ATOM     18  C   UNL d   1      13.574  13.164  -3.433  0.00  0.00     0.002 A 
ATOM     19  C   UNL d   1      13.217  13.152  -4.177  0.00  0.00     0.000 A 
ATOM     20  C   UNL d   1      12.865  12.468  -4.461  0.00  0.00     0.000 A 
ATOM     21  C   UNL d   1      12.865  11.781  -3.998  0.00  0.00     0.000 A 
ATOM     22  C   UNL d   1      13.222  11.786  -3.247  0.00  0.00     0.002 A 
ENDBRANCH   7  17
TORSDOF 2
ENDMDL
