MODEL 1
REMARK VINA RESULT:      41.9      0.000      0.000
REMARK  8 active torsions:
REMARK  status: ('A' for Active; 'I' for Inactive)
REMARK    1  A    between atoms: C_4  and  N_1 
REMARK    2  A    between atoms: C_10  and  C_2 
REMARK    3  A    between atoms: N_14  and  C_4 
REMARK    4  A    between atoms: O_17  and  C_8 
REMARK    5  A    between atoms: O_15  and  C_10 
REMARK    6  A    between atoms: O_18  and  C_11 
REMARK    7  A    between atoms: C_16  and  O_15 
REMARK    8  A    between atoms: C_25  and  C_19 
ROOT
ATOM      1  N   UNL d   1      13.867  12.317  -1.385  0.00  0.00    -0.280 N 
ATOM      2  C   UNL d   1      14.124  12.876  -1.934  0.00  0.00     0.091 A 
ATOM      3  C   UNL d   1      13.786  12.899  -2.677  0.00  0.00     0.020 A 
ATOM      4  C   UNL d   1      13.190  12.365  -2.880  0.00  0.00     0.005 A 
ATOM      5  C   UNL d   1      14.042  13.457  -3.223  0.00  0.00     0.028 A 
ATOM      6  C   UNL d   1      13.272  11.783  -1.587  0.00  0.00     0.082 A 
ATOM      7  C   UNL d   1      13.704  13.484  -3.975  0.00  0.00     0.116 A 
ATOM      8  C   UNL d   1      12.851  12.390  -3.629  0.00  0.00     0.026 A 
ATOM      9  C   UNL d   1      13.108  12.950  -4.178  0.00  0.00     0.116 A 
ATOM     10  C   UNL d   1      12.932  11.809  -2.340  0.00  0.00     0.019 A 
ENDROOT
BRANCH   2  11
ATOM     11  C   UNL d   1      14.719  13.410  -1.731  0.00  0.00     0.140 C 
BRANCH  11  12
ATOM     12  O   UNL d   1      14.660  13.850  -1.035  0.00  0.00    -0.304 OA
BRANCH  12  13
ATOM     13  C   UNL d   1      14.821  14.659  -1.043  0.00  0.00     0.100 A 
ATOM     14  C   UNL d   1      14.966  15.043  -1.758  0.00  0.00     0.025 A 
ATOM     15  C   UNL d   1      15.126  15.852  -1.766  0.00  0.00     0.002 A 
ATOM     16  C   UNL d   1      15.143  16.277  -1.058  0.00  0.00     0.000 A 
ATOM     17  C   UNL d   1      14.998  15.892  -0.343  0.00  0.00     0.002 A 
ATOM     18  C   UNL d   1      14.837  15.082  -0.335  0.00  0.00     0.025 A 
BRANCH  16  19
ATOM     19  C   UNL d   1      15.303  17.086  -1.066  0.00  0.00     0.000 C 
ATOM     20  C   UNL d   1      15.367  17.487  -1.781  0.00  0.00     0.000 C 
ENDBRANCH  16  19
ENDBRANCH  12  13
ENDBRANCH  11  12
ENDBRANCH   2  11
BRANCH   1  21
ATOM     21  C   UNL d   1      14.206  12.286  -0.624  0.00  0.00     0.206 C 
ATOM     22  S   UNL d   1      13.898  12.765  -0.016  0.00  0.00    -0.038 SA
BRANCH  21  23
ATOM     23  N   UNL d   1      14.838  11.789  -0.477  0.00  0.00    -0.215 NA
ATOM     24  C   UNL d   1      15.498  12.065  -0.065  0.00  0.00     0.122 C 
ENDBRANCH  21  23
ENDBRANCH   1  21
BRANCH   7  25
ATOM     25  O   UNL d   1      13.960  14.046  -4.529  0.00  0.00    -0.326 OA
ATOM     26  C   UNL d   1      13.752  14.848  -4.446  0.00  0.00     0.181 C 
ENDBRANCH   7  25
BRANCH   9  27
ATOM     27  O   UNL d   1      12.769  12.979  -4.935  0.00  0.00    -0.326 OA
ATOM     28  C   UNL d   1      12.861  12.341  -5.463  0.00  0.00     0.181 C 
ENDBRANCH   9  27
TORSDOF 8
ENDMDL
MODEL 2
REMARK VINA RESULT:      42.2      1.823      3.449
REMARK  8 active torsions:
REMARK  status: ('A' for Active; 'I' for Inactive)
REMARK    1  A    between atoms: C_4  and  N_1 
REMARK    2  A    between atoms: C_10  and  C_2 
REMARK    3  A    between atoms: N_14  and  C_4 
REMARK    4  A    between atoms: O_17  and  C_8 
REMARK    5  A    between atoms: O_15  and  C_10 
REMARK    6  A    between atoms: O_18  and  C_11 
REMARK    7  A    between atoms: C_16  and  O_15 
REMARK    8  A    between atoms: C_25  and  C_19 
ROOT
ATOM      1  N   UNL d   1      13.370  12.781  -4.013  0.00  0.00    -0.280 N 
ATOM      2  C   UNL d   1      13.866  13.215  -3.517  0.00  0.00     0.091 A 
ATOM      3  C   UNL d   1      14.043  12.931  -2.772  0.00  0.00     0.020 A 
ATOM      4  C   UNL d   1      13.728  12.213  -2.515  0.00  0.00     0.005 A 
ATOM      5  C   UNL d   1      14.537  13.364  -2.278  0.00  0.00     0.028 A 
ATOM      6  C   UNL d   1      13.055  12.064  -3.756  0.00  0.00     0.082 A 
ATOM      7  C   UNL d   1      14.718  13.081  -1.525  0.00  0.00     0.116 A 
ATOM      8  C   UNL d   1      13.907  11.928  -1.764  0.00  0.00     0.026 A 
ATOM      9  C   UNL d   1      14.403  12.363  -1.268  0.00  0.00     0.116 A 
ATOM     10  C   UNL d   1      13.236  11.779  -3.002  0.00  0.00     0.019 A 
ENDROOT
BRANCH   2  11
ATOM     11  C   UNL d   1      14.181  13.933  -3.774  0.00  0.00     0.140 C 
BRANCH  11  12
ATOM     12  O   UNL d   1      13.903  14.643  -3.457  0.00  0.00    -0.304 OA
BRANCH  12  13
ATOM     13  C   UNL d   1      14.261  15.356  -3.666  0.00  0.00     0.100 A 
ATOM     14  C   UNL d   1      14.548  15.861  -3.079  0.00  0.00     0.025 A 
ATOM     15  C   UNL d   1      14.906  16.574  -3.288  0.00  0.00     0.002 A 
ATOM     16  C   UNL d   1      14.977  16.783  -4.084  0.00  0.00     0.000 A 
ATOM     17  C   UNL d   1      14.690  16.278  -4.670  0.00  0.00     0.002 A 
ATOM     18  C   UNL d   1      14.332  15.564  -4.461  0.00  0.00     0.025 A 
BRANCH  16  19
ATOM     19  C   UNL d   1      15.335  17.496  -4.293  0.00  0.00     0.000 C 
ATOM     20  C   UNL d   1      15.915  17.511  -4.875  0.00  0.00     0.000 C 
ENDBRANCH  16  19
ENDBRANCH  12  13
ENDBRANCH  11  12
ENDBRANCH   2  11
BRANCH   1  21
ATOM     21  C   UNL d   1      13.184  13.064  -4.775  0.00  0.00     0.206 C 
ATOM     22  S   UNL d   1      13.423  13.830  -5.000  0.00  0.00    -0.038 SA
BRANCH  21  23
ATOM     23  N   UNL d   1      12.770  12.591  -5.297  0.00  0.00    -0.215 NA
ATOM     24  C   UNL d   1      13.170  12.166  -5.880  0.00  0.00     0.122 C 
ENDBRANCH  21  23
ENDBRANCH   1  21
BRANCH   7  25
ATOM     25  O   UNL d   1      15.217  13.515  -1.024  0.00  0.00    -0.326 OA
ATOM     26  C   UNL d   1      14.987  13.684  -0.241  0.00  0.00     0.181 C 
ENDBRANCH   7  25
BRANCH   9  27
ATOM     27  O   UNL d   1      14.587  12.079  -0.510  0.00  0.00    -0.326 OA
ATOM     28  C   UNL d   1      13.987  11.780  -0.014  0.00  0.00     0.181 C 
ENDBRANCH   9  27
TORSDOF 8
ENDMDL
