MODEL 1
REMARK VINA RESULT:      -7.3      0.000      0.000
REMARK  4 active torsions:
REMARK  status: ('A' for Active; 'I' for Inactive)
REMARK    1  A    between atoms: N_2  and  S_1 
REMARK    2  A    between atoms: C_3  and  S_1 
REMARK    3  A    between atoms: O_15  and  C_7 
REMARK    4  A    between atoms: C_18  and  O_15 
ROOT
ATOM      1  C   UNL d   1     -47.973  13.041  23.076  0.00  0.00     0.106 A 
ATOM      2  C   UNL d   1     -47.184  13.206  22.903  0.00  0.00     0.040 A 
ATOM      3  C   UNL d   1     -46.599  12.671  23.109  0.00  0.00     0.128 A 
ATOM      4  C   UNL d   1     -46.798  11.967  23.490  0.00  0.00     0.163 A 
ATOM      5  C   UNL d   1     -48.173  12.337  23.457  0.00  0.00     0.015 A 
ATOM      6  C   UNL d   1     -47.587  11.803  23.663  0.00  0.00     0.032 A 
ATOM      7  F   UNL d   1     -46.207  11.427  23.698  0.00  0.00    -0.202 F 
ENDROOT
BRANCH   1   8
ATOM      8  S   UNL d   1     -48.564  13.581  22.868  0.00  0.00     0.272 S 
ATOM      9  O   UNL d   1     -48.635  13.219  22.128  0.00  0.00    -0.200 OA
ATOM     10  O   UNL d   1     -48.494  13.943  23.607  0.00  0.00    -0.200 OA
BRANCH   8  11
ATOM     11  N   UNL d   1     -49.155  14.120  22.660  0.00  0.00    -0.225 N 
ATOM     12  C   UNL d   1     -49.097  14.909  22.897  0.00  0.00     0.118 A 
ATOM     13  C   UNL d   1     -49.687  15.448  22.690  0.00  0.00     0.142 A 
ATOM     14  O   UNL d   1     -50.336  15.200  22.244  0.00  0.00    -0.300 OA
ATOM     15  C   UNL d   1     -50.394  14.412  22.007  0.00  0.00     0.142 A 
ATOM     16  C   UNL d   1     -49.804  13.872  22.215  0.00  0.00     0.118 A 
ENDBRANCH   8  11
ENDBRANCH   1   8
BRANCH   3  17
ATOM     17  O   UNL d   1     -45.803  12.841  22.932  0.00  0.00    -0.303 OA
BRANCH  17  18
ATOM     18  C   UNL d   1     -45.595  13.124  22.185  0.00  0.00     0.123 C 
ATOM     19  C   UNL d   1     -44.797  13.224  21.987  0.00  0.00     0.029 C 
ENDBRANCH  17  18
ENDBRANCH   3  17
TORSDOF 4
ENDMDL
MODEL 2
REMARK VINA RESULT:      -7.2      1.716      3.862
REMARK  4 active torsions:
REMARK  status: ('A' for Active; 'I' for Inactive)
REMARK    1  A    between atoms: N_2  and  S_1 
REMARK    2  A    between atoms: C_3  and  S_1 
REMARK    3  A    between atoms: O_15  and  C_7 
REMARK    4  A    between atoms: C_18  and  O_15 
ROOT
ATOM      1  C   UNL d   1     -48.949  13.163  22.405  0.00  0.00     0.106 A 
ATOM      2  C   UNL d   1     -49.239  13.890  22.665  0.00  0.00     0.040 A 
ATOM      3  C   UNL d   1     -49.938  14.187  22.358  0.00  0.00     0.128 A 
ATOM      4  C   UNL d   1     -50.353  13.758  21.789  0.00  0.00     0.163 A 
ATOM      5  C   UNL d   1     -49.365  12.734  21.836  0.00  0.00     0.015 A 
ATOM      6  C   UNL d   1     -50.064  13.031  21.529  0.00  0.00     0.032 A 
ATOM      7  F   UNL d   1     -51.059  14.058  21.479  0.00  0.00    -0.202 F 
ENDROOT
BRANCH   1   8
ATOM      8  S   UNL d   1     -48.243  12.863  22.715  0.00  0.00     0.272 S 
ATOM      9  O   UNL d   1     -47.822  13.217  22.098  0.00  0.00    -0.200 OA
ATOM     10  O   UNL d   1     -48.664  12.510  23.332  0.00  0.00    -0.200 OA
BRANCH   8  11
ATOM     11  N   UNL d   1     -47.538  12.564  23.025  0.00  0.00    -0.225 N 
ATOM     12  C   UNL d   1     -46.843  13.005  22.971  0.00  0.00     0.118 A 
ATOM     13  C   UNL d   1     -46.138  12.706  23.281  0.00  0.00     0.142 A 
ATOM     14  O   UNL d   1     -46.127  11.966  23.644  0.00  0.00    -0.300 OA
ATOM     15  C   UNL d   1     -46.822  11.525  23.698  0.00  0.00     0.142 A 
ATOM     16  C   UNL d   1     -47.527  11.824  23.388  0.00  0.00     0.118 A 
ENDBRANCH   8  11
ENDBRANCH   1   8
BRANCH   3  17
ATOM     17  O   UNL d   1     -50.226  14.922  22.623  0.00  0.00    -0.303 OA
BRANCH  17  18
ATOM     18  C   UNL d   1     -50.022  15.203  23.371  0.00  0.00     0.123 C 
ATOM     19  C   UNL d   1     -50.333  15.920  23.644  0.00  0.00     0.029 C 
ENDBRANCH  17  18
ENDBRANCH   3  17
TORSDOF 4
ENDMDL
MODEL 3
REMARK VINA RESULT:      -7.0      1.284      1.799
REMARK  4 active torsions:
REMARK  status: ('A' for Active; 'I' for Inactive)
REMARK    1  A    between atoms: N_2  and  S_1 
REMARK    2  A    between atoms: C_3  and  S_1 
REMARK    3  A    between atoms: O_15  and  C_7 
REMARK    4  A    between atoms: C_18  and  O_15 
ROOT
ATOM      1  C   UNL d   1     -47.855  13.521  22.696  0.00  0.00     0.106 A 
ATOM      2  C   UNL d   1     -47.379  12.904  22.968  0.00  0.00     0.040 A 
ATOM      3  C   UNL d   1     -46.584  13.035  23.116  0.00  0.00     0.128 A 
ATOM      4  C   UNL d   1     -46.259  13.784  22.994  0.00  0.00     0.163 A 
ATOM      5  C   UNL d   1     -47.530  14.269  22.574  0.00  0.00     0.015 A 
ATOM      6  C   UNL d   1     -46.735  14.400  22.722  0.00  0.00     0.032 A 
ATOM      7  F   UNL d   1     -45.456  13.916  23.144  0.00  0.00    -0.202 F 
ENDROOT
BRANCH   1   8
ATOM      8  S   UNL d   1     -48.658  13.388  22.546  0.00  0.00     0.272 S 
ATOM      9  O   UNL d   1     -48.474  13.144  21.778  0.00  0.00    -0.200 OA
ATOM     10  O   UNL d   1     -48.841  13.632  23.314  0.00  0.00    -0.200 OA
BRANCH   8  11
ATOM     11  N   UNL d   1     -49.459  13.256  22.397  0.00  0.00    -0.225 N 
ATOM     12  C   UNL d   1     -49.890  12.739  22.874  0.00  0.00     0.118 A 
ATOM     13  C   UNL d   1     -50.691  12.607  22.725  0.00  0.00     0.142 A 
ATOM     14  O   UNL d   1     -51.064  12.992  22.097  0.00  0.00    -0.300 OA
ATOM     15  C   UNL d   1     -50.634  13.510  21.620  0.00  0.00     0.142 A 
ATOM     16  C   UNL d   1     -49.832  13.642  21.769  0.00  0.00     0.118 A 
ENDBRANCH   8  11
ENDBRANCH   1   8
BRANCH   3  17
ATOM     17  O   UNL d   1     -46.107  12.411  23.390  0.00  0.00    -0.303 OA
BRANCH  17  18
ATOM     18  C   UNL d   1     -46.416  11.649  23.453  0.00  0.00     0.123 C 
ATOM     19  C   UNL d   1     -45.931  11.023  23.696  0.00  0.00     0.029 C 
ENDBRANCH  17  18
ENDBRANCH   3  17
TORSDOF 4
ENDMDL
MODEL 4
REMARK VINA RESULT:      -7.0      1.703      3.550
REMARK  4 active torsions:
REMARK  status: ('A' for Active; 'I' for Inactive)
REMARK    1  A    between atoms: N_2  and  S_1 
REMARK    2  A    between atoms: C_3  and  S_1 
REMARK    3  A    between atoms: O_15  and  C_7 
REMARK    4  A    between atoms: C_18  and  O_15 
ROOT
ATOM      1  C   UNL d   1     -48.485  12.436  23.041  0.00  0.00     0.106 A 
ATOM      2  C   UNL d   1     -49.113  12.716  22.585  0.00  0.00     0.040 A 
ATOM      3  C   UNL d   1     -49.864  12.404  22.685  0.00  0.00     0.128 A 
ATOM      4  C   UNL d   1     -49.993  11.810  23.242  0.00  0.00     0.163 A 
ATOM      5  C   UNL d   1     -48.614  11.842  23.598  0.00  0.00     0.015 A 
ATOM      6  C   UNL d   1     -49.365  11.530  23.698  0.00  0.00     0.032 A 
ATOM      7  F   UNL d   1     -50.751  11.495  23.343  0.00  0.00    -0.202 F 
ENDROOT
BRANCH   1   8
ATOM      8  S   UNL d   1     -47.727  12.751  22.940  0.00  0.00     0.272 S 
ATOM      9  O   UNL d   1     -47.601  12.243  22.300  0.00  0.00    -0.200 OA
ATOM     10  O   UNL d   1     -47.853  13.259  23.579  0.00  0.00    -0.200 OA
BRANCH   8  11
ATOM     11  N   UNL d   1     -46.970  13.066  22.839  0.00  0.00    -0.225 N 
ATOM     12  C   UNL d   1     -46.329  12.565  22.697  0.00  0.00     0.118 A 
ATOM     13  C   UNL d   1     -45.572  12.880  22.596  0.00  0.00     0.142 A 
ATOM     14  O   UNL d   1     -45.454  13.696  22.636  0.00  0.00    -0.300 OA
ATOM     15  C   UNL d   1     -46.095  14.196  22.778  0.00  0.00     0.142 A 
ATOM     16  C   UNL d   1     -46.852  13.882  22.879  0.00  0.00     0.118 A 
ENDBRANCH   8  11
ENDBRANCH   1   8
BRANCH   3  17
ATOM     17  O   UNL d   1     -50.494  12.690  22.223  0.00  0.00    -0.303 OA
BRANCH  17  18
ATOM     18  C   UNL d   1     -50.607  13.501  22.130  0.00  0.00     0.123 C 
ATOM     19  C   UNL d   1     -51.064  13.788  21.501  0.00  0.00     0.029 C 
ENDBRANCH  17  18
ENDBRANCH   3  17
TORSDOF 4
ENDMDL
MODEL 5
REMARK VINA RESULT:      -5.5      1.926      4.164
REMARK  4 active torsions:
REMARK  status: ('A' for Active; 'I' for Inactive)
REMARK    1  A    between atoms: N_2  and  S_1 
REMARK    2  A    between atoms: C_3  and  S_1 
REMARK    3  A    between atoms: O_15  and  C_7 
REMARK    4  A    between atoms: C_18  and  O_15 
ROOT
ATOM      1  C   UNL d   1     -47.171  12.946  22.939  0.00  0.00     0.106 A 
ATOM      2  C   UNL d   1     -47.901  12.781  23.287  0.00  0.00     0.040 A 
ATOM      3  C   UNL d   1     -48.530  13.295  23.184  0.00  0.00     0.128 A 
ATOM      4  C   UNL d   1     -48.435  13.979  22.733  0.00  0.00     0.163 A 
ATOM      5  C   UNL d   1     -47.076  13.629  22.488  0.00  0.00     0.015 A 
ATOM      6  C   UNL d   1     -47.705  14.144  22.385  0.00  0.00     0.032 A 
ATOM      7  F   UNL d   1     -49.070  14.498  22.629  0.00  0.00    -0.202 F 
ENDROOT
BRANCH   1   8
ATOM      8  S   UNL d   1     -46.536  12.426  23.043  0.00  0.00     0.272 S 
ATOM      9  O   UNL d   1     -46.285  12.865  23.698  0.00  0.00    -0.200 OA
ATOM     10  O   UNL d   1     -46.787  11.988  22.389  0.00  0.00    -0.200 OA
BRANCH   8  11
ATOM     11  N   UNL d   1     -45.902  11.908  23.147  0.00  0.00    -0.225 N 
ATOM     12  C   UNL d   1     -45.170  12.075  22.804  0.00  0.00     0.118 A 
ATOM     13  C   UNL d   1     -44.536  11.556  22.908  0.00  0.00     0.142 A 
ATOM     14  O   UNL d   1     -44.632  10.869  23.355  0.00  0.00    -0.300 OA
ATOM     15  C   UNL d   1     -45.363  10.702  23.698  0.00  0.00     0.142 A 
ATOM     16  C   UNL d   1     -45.998  11.221  23.594  0.00  0.00     0.118 A 
ENDBRANCH   8  11
ENDBRANCH   1   8
BRANCH   3  17
ATOM     17  O   UNL d   1     -49.265  13.125  23.537  0.00  0.00    -0.303 OA
BRANCH  17  18
ATOM     18  C   UNL d   1     -49.668  12.432  23.343  0.00  0.00     0.123 C 
ATOM     19  C   UNL d   1     -50.430  12.299  23.637  0.00  0.00     0.029 C 
ENDBRANCH  17  18
ENDBRANCH   3  17
TORSDOF 4
ENDMDL
MODEL 6
REMARK VINA RESULT:      -5.4      8.473      9.388
REMARK  4 active torsions:
REMARK  status: ('A' for Active; 'I' for Inactive)
REMARK    1  A    between atoms: N_2  and  S_1 
REMARK    2  A    between atoms: C_3  and  S_1 
REMARK    3  A    between atoms: O_15  and  C_7 
REMARK    4  A    between atoms: C_18  and  O_15 
ROOT
ATOM      1  C   UNL d   1     -39.827  14.712  18.832  0.00  0.00     0.106 A 
ATOM      2  C   UNL d   1     -40.389  14.950  18.277  0.00  0.00     0.040 A 
ATOM      3  C   UNL d   1     -40.362  14.653  17.514  0.00  0.00     0.128 A 
ATOM      4  C   UNL d   1     -39.774  14.116  17.300  0.00  0.00     0.163 A 
ATOM      5  C   UNL d   1     -39.238  14.175  18.618  0.00  0.00     0.015 A 
ATOM      6  C   UNL d   1     -39.212  13.878  17.855  0.00  0.00     0.032 A 
ATOM      7  F   UNL d   1     -39.747  13.816  16.530  0.00  0.00    -0.202 F 
ENDROOT
BRANCH   1   8
ATOM      8  S   UNL d   1     -39.853  15.012  19.602  0.00  0.00     0.272 S 
ATOM      9  O   UNL d   1     -40.220  14.317  19.860  0.00  0.00    -0.200 OA
ATOM     10  O   UNL d   1     -39.487  15.706  19.344  0.00  0.00    -0.200 OA
BRANCH   8  11
ATOM     11  N   UNL d   1     -39.880  15.312  20.371  0.00  0.00    -0.225 N 
ATOM     12  C   UNL d   1     -39.203  15.302  20.843  0.00  0.00     0.118 A 
ATOM     13  C   UNL d   1     -39.229  15.602  21.612  0.00  0.00     0.142 A 
ATOM     14  O   UNL d   1     -39.933  15.911  21.912  0.00  0.00    -0.300 OA
ATOM     15  C   UNL d   1     -40.610  15.921  21.440  0.00  0.00     0.142 A 
ATOM     16  C   UNL d   1     -40.584  15.621  20.671  0.00  0.00     0.118 A 
ENDBRANCH   8  11
ENDBRANCH   1   8
BRANCH   3  17
ATOM     17  O   UNL d   1     -40.931  14.895  16.956  0.00  0.00    -0.303 OA
BRANCH  17  18
ATOM     18  C   UNL d   1     -41.136  15.691  16.892  0.00  0.00     0.123 C 
ATOM     19  C   UNL d   1     -41.784  15.917  16.427  0.00  0.00     0.029 C 
ENDBRANCH  17  18
ENDBRANCH   3  17
TORSDOF 4
ENDMDL
MODEL 7
REMARK VINA RESULT:      -5.4      8.283      9.527
REMARK  4 active torsions:
REMARK  status: ('A' for Active; 'I' for Inactive)
REMARK    1  A    between atoms: N_2  and  S_1 
REMARK    2  A    between atoms: C_3  and  S_1 
REMARK    3  A    between atoms: O_15  and  C_7 
REMARK    4  A    between atoms: C_18  and  O_15 
ROOT
ATOM      1  C   UNL d   1     -40.094  14.790  19.234  0.00  0.00     0.106 A 
ATOM      2  C   UNL d   1     -39.962  14.415  19.956  0.00  0.00     0.040 A 
ATOM      3  C   UNL d   1     -40.310  14.705  20.639  0.00  0.00     0.128 A 
ATOM      4  C   UNL d   1     -40.793  15.373  20.604  0.00  0.00     0.163 A 
ATOM      5  C   UNL d   1     -40.577  15.458  19.199  0.00  0.00     0.015 A 
ATOM      6  C   UNL d   1     -40.925  15.748  19.881  0.00  0.00     0.032 A 
ATOM      7  F   UNL d   1     -41.144  15.667  21.292  0.00  0.00    -0.202 F 
ENDROOT
BRANCH   1   8
ATOM      8  S   UNL d   1     -39.743  14.496  18.545  0.00  0.00     0.272 S 
ATOM      9  O   UNL d   1     -40.365  13.959  18.456  0.00  0.00    -0.200 OA
ATOM     10  O   UNL d   1     -39.121  15.033  18.633  0.00  0.00    -0.200 OA
BRANCH   8  11
ATOM     11  N   UNL d   1     -39.392  14.203  17.857  0.00  0.00    -0.225 N 
ATOM     12  C   UNL d   1     -39.414  14.645  17.160  0.00  0.00     0.118 A 
ATOM     13  C   UNL d   1     -39.063  14.352  16.472  0.00  0.00     0.142 A 
ATOM     14  O   UNL d   1     -38.690  13.616  16.479  0.00  0.00    -0.300 OA
ATOM     15  C   UNL d   1     -38.668  13.174  17.176  0.00  0.00     0.142 A 
ATOM     16  C   UNL d   1     -39.019  13.467  17.864  0.00  0.00     0.118 A 
ENDBRANCH   8  11
ENDBRANCH   1   8
BRANCH   3  17
ATOM     17  O   UNL d   1     -40.175  14.324  21.366  0.00  0.00    -0.303 OA
BRANCH  17  18
ATOM     18  C   UNL d   1     -39.408  14.119  21.591  0.00  0.00     0.123 C 
ATOM     19  C   UNL d   1     -39.280  13.693  22.289  0.00  0.00     0.029 C 
ENDBRANCH  17  18
ENDBRANCH   3  17
TORSDOF 4
ENDMDL
