MODEL 1
REMARK VINA RESULT:     -10.6      0.000      0.000
REMARK  1 active torsions:
REMARK  status: ('A' for Active; 'I' for Inactive)
REMARK    1  A    between atoms: C_7  and  N_1 
ROOT
ATOM      1  N   UNL d   1      52.404  33.493  53.447  0.00  0.00    -0.259 N 
ATOM      2  C   UNL d   1      52.816  34.037  53.934  0.00  0.00     0.267 A 
ATOM      3  C   UNL d   1      52.664  32.712  53.373  0.00  0.00     0.150 A 
ATOM      4  N   UNL d   1      53.342  32.461  53.787  0.00  0.00    -0.228 NA
ATOM      5  C   UNL d   1      53.489  33.779  54.342  0.00  0.00     0.074 A 
ATOM      6  C   UNL d   1      53.752  32.989  54.267  0.00  0.00     0.088 A 
ATOM      7  O   UNL d   1      52.551  34.813  54.003  0.00  0.00    -0.267 OA
ATOM      8  C   UNL d   1      52.256  32.179  52.893  0.00  0.00     0.041 C 
ATOM      9  C   UNL d   1      53.895  34.311  54.820  0.00  0.00     0.006 A 
ATOM     10  C   UNL d   1      54.426  32.750  54.681  0.00  0.00     0.019 A 
ATOM     11  C   UNL d   1      54.567  34.059  55.228  0.00  0.00     0.000 A 
ATOM     12  C   UNL d   1      54.831  33.282  55.159  0.00  0.00     0.002 A 
ENDROOT
BRANCH   1  13
ATOM     13  C   UNL d   1      51.735  33.738  53.039  0.00  0.00     0.068 A 
ATOM     14  C   UNL d   1      51.807  34.071  52.282  0.00  0.00     0.020 A 
ATOM     15  C   UNL d   1      51.130  34.316  51.877  0.00  0.00     0.031 A 
ATOM     16  C   UNL d   1      50.385  34.232  52.217  0.00  0.00     0.140 A 
ATOM     17  C   UNL d   1      50.319  33.899  52.970  0.00  0.00     0.031 A 
ATOM     18  F   UNL d   1      49.715  34.477  51.809  0.00  0.00    -0.204 F 
ATOM     19  C   UNL d   1      50.993  33.655  53.377  0.00  0.00     0.020 A 
ENDBRANCH   1  13
TORSDOF 1
ENDMDL
MODEL 2
REMARK VINA RESULT:     -10.3      1.858      2.867
REMARK  1 active torsions:
REMARK  status: ('A' for Active; 'I' for Inactive)
REMARK    1  A    between atoms: C_7  and  N_1 
ROOT
ATOM      1  N   UNL d   1      53.396  32.973  53.839  0.00  0.00    -0.259 N 
ATOM      2  C   UNL d   1      52.782  32.495  53.528  0.00  0.00     0.267 A 
ATOM      3  C   UNL d   1      54.142  32.653  53.995  0.00  0.00     0.150 A 
ATOM      4  N   UNL d   1      54.286  31.846  53.842  0.00  0.00    -0.228 NA
ATOM      5  C   UNL d   1      52.933  31.695  53.378  0.00  0.00     0.074 A 
ATOM      6  C   UNL d   1      53.688  31.371  53.536  0.00  0.00     0.088 A 
ATOM      7  O   UNL d   1      52.042  32.821  53.375  0.00  0.00    -0.267 OA
ATOM      8  C   UNL d   1      54.745  33.126  54.302  0.00  0.00     0.041 C 
ATOM      9  C   UNL d   1      52.332  31.225  53.072  0.00  0.00     0.006 A 
ATOM     10  C   UNL d   1      53.820  30.570  53.380  0.00  0.00     0.019 A 
ATOM     11  C   UNL d   1      52.478  30.426  52.922  0.00  0.00     0.000 A 
ATOM     12  C   UNL d   1      53.220  30.100  53.075  0.00  0.00     0.002 A 
ENDROOT
BRANCH   1  13
ATOM     13  C   UNL d   1      53.256  33.768  53.991  0.00  0.00     0.068 A 
ATOM     14  C   UNL d   1      53.208  34.310  53.365  0.00  0.00     0.020 A 
ATOM     15  C   UNL d   1      53.067  35.108  53.525  0.00  0.00     0.031 A 
ATOM     16  C   UNL d   1      52.975  35.370  54.300  0.00  0.00     0.140 A 
ATOM     17  C   UNL d   1      53.024  34.826  54.919  0.00  0.00     0.031 A 
ATOM     18  F   UNL d   1      52.835  36.165  54.452  0.00  0.00    -0.204 F 
ATOM     19  C   UNL d   1      53.164  34.029  54.763  0.00  0.00     0.020 A 
ENDBRANCH   1  13
TORSDOF 1
ENDMDL
MODEL 3
REMARK VINA RESULT:     -10.0      0.845      1.537
REMARK  1 active torsions:
REMARK  status: ('A' for Active; 'I' for Inactive)
REMARK    1  A    between atoms: C_7  and  N_1 
ROOT
ATOM      1  N   UNL d   1      52.384  34.036  53.583  0.00  0.00    -0.259 N 
ATOM      2  C   UNL d   1      52.710  33.278  53.732  0.00  0.00     0.267 A 
ATOM      3  C   UNL d   1      52.709  34.711  53.932  0.00  0.00     0.150 A 
ATOM      4  N   UNL d   1      53.367  34.639  54.439  0.00  0.00    -0.228 NA
ATOM      5  C   UNL d   1      53.364  33.215  54.236  0.00  0.00     0.074 A 
ATOM      6  C   UNL d   1      53.692  33.898  54.590  0.00  0.00     0.088 A 
ATOM      7  O   UNL d   1      52.382  32.611  53.380  0.00  0.00    -0.267 OA
ATOM      8  C   UNL d   1      52.386  35.456  53.784  0.00  0.00     0.041 C 
ATOM      9  C   UNL d   1      53.685  32.472  54.384  0.00  0.00     0.006 A 
ATOM     10  C   UNL d   1      54.345  33.815  55.091  0.00  0.00     0.019 A 
ATOM     11  C   UNL d   1      54.337  32.405  54.886  0.00  0.00     0.000 A 
ATOM     12  C   UNL d   1      54.665  33.074  55.238  0.00  0.00     0.002 A 
ENDROOT
BRANCH   1  13
ATOM     13  C   UNL d   1      51.736  34.109  53.084  0.00  0.00     0.068 A 
ATOM     14  C   UNL d   1      50.967  34.090  53.395  0.00  0.00     0.020 A 
ATOM     15  C   UNL d   1      50.319  34.165  52.887  0.00  0.00     0.031 A 
ATOM     16  C   UNL d   1      50.430  34.258  52.077  0.00  0.00     0.140 A 
ATOM     17  C   UNL d   1      51.198  34.276  51.774  0.00  0.00     0.031 A 
ATOM     18  F   UNL d   1      49.782  34.332  51.578  0.00  0.00    -0.204 F 
ATOM     19  C   UNL d   1      51.846  34.202  52.277  0.00  0.00     0.020 A 
ENDBRANCH   1  13
TORSDOF 1
ENDMDL
MODEL 4
REMARK VINA RESULT:      -9.9      2.241      3.593
REMARK  1 active torsions:
REMARK  status: ('A' for Active; 'I' for Inactive)
REMARK    1  A    between atoms: C_7  and  N_1 
ROOT
ATOM      1  N   UNL d   1      53.013  32.124  53.413  0.00  0.00    -0.259 N 
ATOM      2  C   UNL d   1      52.252  32.444  53.273  0.00  0.00     0.267 A 
ATOM      3  C   UNL d   1      53.676  32.616  53.463  0.00  0.00     0.150 A 
ATOM      4  N   UNL d   1      53.586  33.440  53.373  0.00  0.00    -0.228 NA
ATOM      5  C   UNL d   1      52.172  33.264  53.184  0.00  0.00     0.074 A 
ATOM      6  C   UNL d   1      52.842  33.761  53.235  0.00  0.00     0.088 A 
ATOM      7  O   UNL d   1      51.597  31.948  53.224  0.00  0.00    -0.267 OA
ATOM      8  C   UNL d   1      54.424  32.298  53.602  0.00  0.00     0.041 C 
ATOM      9  C   UNL d   1      51.425  33.580  53.046  0.00  0.00     0.006 A 
ATOM     10  C   UNL d   1      52.742  34.577  53.143  0.00  0.00     0.019 A 
ATOM     11  C   UNL d   1      51.341  34.396  52.957  0.00  0.00     0.000 A 
ATOM     12  C   UNL d   1      51.996  34.893  53.006  0.00  0.00     0.002 A 
ENDROOT
BRANCH   1  13
ATOM     13  C   UNL d   1      53.103  31.312  53.503  0.00  0.00     0.068 A 
ATOM     14  C   UNL d   1      53.213  30.986  54.258  0.00  0.00     0.020 A 
ATOM     15  C   UNL d   1      53.303  30.169  54.340  0.00  0.00     0.031 A 
ATOM     16  C   UNL d   1      53.285  29.677  53.681  0.00  0.00     0.140 A 
ATOM     17  C   UNL d   1      53.176  30.007  52.932  0.00  0.00     0.031 A 
ATOM     18  F   UNL d   1      53.376  28.865  53.770  0.00  0.00    -0.204 F 
ATOM     19  C   UNL d   1      53.086  30.822  52.846  0.00  0.00     0.020 A 
ENDBRANCH   1  13
TORSDOF 1
ENDMDL
MODEL 5
REMARK VINA RESULT:      -9.7      1.812      3.595
REMARK  1 active torsions:
REMARK  status: ('A' for Active; 'I' for Inactive)
REMARK    1  A    between atoms: C_7  and  N_1 
ROOT
ATOM      1  N   UNL d   1      53.087  33.392  53.836  0.00  0.00    -0.259 N 
ATOM      2  C   UNL d   1      52.572  34.048  53.761  0.00  0.00     0.267 A 
ATOM      3  C   UNL d   1      52.913  32.673  53.465  0.00  0.00     0.150 A 
ATOM      4  N   UNL d   1      52.217  32.600  53.012  0.00  0.00    -0.228 NA
ATOM      5  C   UNL d   1      51.882  33.967  53.309  0.00  0.00     0.074 A 
ATOM      6  C   UNL d   1      51.706  33.240  52.935  0.00  0.00     0.088 A 
ATOM      7  O   UNL d   1      52.752  34.760  54.133  0.00  0.00    -0.267 OA
ATOM      8  C   UNL d   1      53.423  32.029  53.540  0.00  0.00     0.041 C 
ATOM      9  C   UNL d   1      51.375  34.610  53.235  0.00  0.00     0.006 A 
ATOM     10  C   UNL d   1      51.013  33.178  52.488  0.00  0.00     0.019 A 
ATOM     11  C   UNL d   1      50.686  34.533  52.786  0.00  0.00     0.000 A 
ATOM     12  C   UNL d   1      50.506  33.820  52.414  0.00  0.00     0.002 A 
ENDROOT
BRANCH   1  13
ATOM     13  C   UNL d   1      53.774  33.462  54.282  0.00  0.00     0.068 A 
ATOM     14  C   UNL d   1      54.488  33.676  53.917  0.00  0.00     0.020 A 
ATOM     15  C   UNL d   1      55.174  33.744  54.371  0.00  0.00     0.031 A 
ATOM     16  C   UNL d   1      55.156  33.603  55.182  0.00  0.00     0.140 A 
ATOM     17  C   UNL d   1      54.443  33.390  55.539  0.00  0.00     0.031 A 
ATOM     18  F   UNL d   1      55.843  33.673  55.628  0.00  0.00    -0.204 F 
ATOM     19  C   UNL d   1      53.756  33.321  55.089  0.00  0.00     0.020 A 
ENDBRANCH   1  13
TORSDOF 1
ENDMDL
