MODEL 1
REMARK VINA RESULT:       4.4      0.000      0.000
REMARK  5 active torsions:
REMARK  status: ('A' for Active; 'I' for Inactive)
REMARK    1  A    between atoms: N_5  and  S_1 
REMARK    2  A    between atoms: C_9  and  S_1 
REMARK    3  A    between atoms: C_2  and  N_4 
REMARK    4  A    between atoms: C_7  and  C_3 
REMARK       I    between atoms: N_4  and  C_6 
REMARK    5  A    between atoms: C_6  and  C_14 
ROOT
ATOM      1  C   UNL d   1     -41.877-122.600 -51.205  0.00  0.00     0.104 A 
ATOM      2  C   UNL d   1     -41.830-122.039 -52.756  0.00  0.00     0.058 A 
ATOM      3  C   UNL d   1     -42.578-122.412 -51.601  0.00  0.00     0.013 A 
ATOM      4  C   UNL d   1     -41.157-122.506 -51.587  0.00  0.00     0.013 A 
ATOM      5  C   UNL d   1     -42.549-122.133 -52.373  0.00  0.00     0.005 A 
ATOM      6  C   UNL d   1     -41.128-122.227 -52.359  0.00  0.00     0.005 A 
ENDROOT
BRANCH   2   7
ATOM      7  C   UNL d   1     -41.803-121.757 -53.536  0.00  0.00     0.280 C 
ATOM      8  N   UNL d   1     -41.875-122.281 -54.167  0.00  0.00    -0.201 NA
ATOM      9  O   UNL d   1     -41.706-120.960 -53.664  0.00  0.00    -0.265 OA
BRANCH   8  10
ATOM     10  C   UNL d   1     -41.848-121.996 -54.937  0.00  0.00     0.119 A 
ATOM     11  C   UNL d   1     -41.955-122.444 -55.624  0.00  0.00     0.084 A 
ATOM     12  C   UNL d   1     -41.882-121.934 -56.277  0.00  0.00     0.014 A 
ATOM     13  C   UNL d   1     -41.730-121.176 -55.985  0.00  0.00     0.037 A 
ATOM     14  S   UNL d   1     -41.710-121.221 -55.164  0.00  0.00    -0.067 SA
BRANCH  11  15
ATOM     15  C   UNL d   1     -42.108-123.252 -55.664  0.00  0.00     0.299 C 
ATOM     16  O   UNL d   1     -42.183-123.687 -54.963  0.00  0.00    -0.264 OA
ATOM     17  N   UNL d   1     -42.186-123.626 -56.395  0.00  0.00    -0.102 N 
ENDBRANCH  11  15
ENDBRANCH   8  10
ENDBRANCH   2   7
BRANCH   1  18
ATOM     18  S   UNL d   1     -41.906-122.880 -50.432  0.00  0.00     0.271 S 
ATOM     19  O   UNL d   1     -41.929-122.101 -50.150  0.00  0.00    -0.200 OA
ATOM     20  O   UNL d   1     -41.882-123.652 -50.710  0.00  0.00    -0.200 OA
BRANCH  18  21
ATOM     21  N   UNL d   1     -41.934-123.161 -49.657  0.00  0.00    -0.229 N 
ATOM     22  C   UNL d   1     -42.633-123.478 -49.358  0.00  0.00     0.092 A 
ATOM     23  C   UNL d   1     -42.661-123.760 -48.579  0.00  0.00     0.020 A 
ATOM     24  C   UNL d   1     -41.992-123.723 -48.108  0.00  0.00     0.003 A 
ATOM     25  C   UNL d   1     -41.288-123.405 -48.404  0.00  0.00     0.020 A 
ATOM     26  C   UNL d   1     -41.258-123.125 -49.175  0.00  0.00     0.092 A 
ENDBRANCH  18  21
ENDBRANCH   1  18
TORSDOF 5
ENDMDL
