MODEL 1
REMARK VINA RESULT:      -3.1      0.000      0.000
REMARK  4 active torsions:
REMARK  status: ('A' for Active; 'I' for Inactive)
REMARK    1  A    between atoms: C_3  and  N_1 
REMARK       I    between atoms: C_4  and  N_1 
REMARK    2  A    between atoms: C_9  and  C_4 
REMARK    3  A    between atoms: C_5  and  C_10 
REMARK    4  A    between atoms: C_10  and  C_9 
ROOT
ATOM      1  N   UNL d   1     -41.123-121.708 -52.117  0.00  0.00    -0.189 NA
ATOM      2  C   UNL d   1     -41.426-121.813 -51.342  0.00  0.00     0.281 C 
ATOM      3  O   UNL d   1     -41.211-121.301 -50.748  0.00  0.00    -0.265 OA
ENDROOT
BRANCH   1   4
ATOM      4  C   UNL d   1     -41.357-122.247 -52.717  0.00  0.00     0.166 A 
ATOM      5  N   UNL d   1     -41.832-121.996 -53.346  0.00  0.00    -0.225 NA
ATOM      6  C   UNL d   1     -42.069-122.502 -53.935  0.00  0.00     0.107 A 
ATOM      7  C   UNL d   1     -41.842-123.272 -53.918  0.00  0.00     0.054 A 
ATOM      8  C   UNL d   1     -41.362-123.575 -53.305  0.00  0.00     0.011 A 
ATOM      9 BR   UNL d   1     -42.114-123.772 -54.561  0.00  0.00    -0.048 Br
ATOM     10  C   UNL d   1     -41.123-123.074 -52.714  0.00  0.00     0.039 A 
ENDBRANCH   1   4
BRANCH   2  11
ATOM     11  C   UNL d   1     -41.958-122.450 -51.165  0.00  0.00     0.069 C 
BRANCH  11  12
ATOM     12  C   UNL d   1     -42.432-122.389 -50.510  0.00  0.00     0.075 C 
BRANCH  12  13
ATOM     13  C   UNL d   1     -42.764-123.071 -50.182  0.00  0.00     0.211 C 
ATOM     14  O   UNL d   1     -42.296-123.565 -49.693  0.00  0.00    -0.644 OA
ATOM     15  O   UNL d   1     -43.528-123.255 -50.333  0.00  0.00    -0.644 OA
ENDBRANCH  12  13
ENDBRANCH  11  12
ENDBRANCH   2  11
TORSDOF 4
ENDMDL
