MODEL 1
REMARK VINA RESULT:      25.5      0.000      0.000
REMARK  1 active torsions:
REMARK  status: ('A' for Active; 'I' for Inactive)
REMARK    1  A    between atoms: C_11  and  C_4 
ROOT
ATOM      1  N   UNL d   1      13.917  13.118  -2.515  0.00  0.00    -0.242 NA
ATOM      2  C   UNL d   1      13.634  13.307  -3.256  0.00  0.00     0.099 A 
ATOM      3  N   UNL d   1      13.197  11.970  -3.453  0.00  0.00    -0.241 NA
ATOM      4  C   UNL d   1      13.838  12.356  -2.247  0.00  0.00     0.101 A 
ATOM      5  C   UNL d   1      13.274  12.732  -3.725  0.00  0.00     0.099 A 
ATOM      6  C   UNL d   1      13.712  14.074  -3.529  0.00  0.00     0.021 A 
ATOM      7  C   UNL d   1      13.426  14.282  -4.290  0.00  0.00     0.002 A 
ATOM      8  C   UNL d   1      13.065  13.707  -4.760  0.00  0.00     0.002 A 
ATOM      9  C   UNL d   1      12.993  12.925  -4.466  0.00  0.00     0.021 A 
ATOM     10  C   UNL d   1      13.478  11.781  -2.716  0.00  0.00     0.118 A 
ATOM     11  C   UNL d   1      13.500  15.063  -4.578  0.00  0.00     0.000 C 
ATOM     12  C   UNL d   1      12.781  13.914  -5.515  0.00  0.00     0.000 C 
ENDROOT
BRANCH   4  13
ATOM     13  C   UNL d   1      14.120  12.166  -1.505  0.00  0.00     0.019 A 
ATOM     14  C   UNL d   1      13.602  12.051  -0.881  0.00  0.00     0.002 A 
ATOM     15  C   UNL d   1      13.884  11.853  -0.103  0.00  0.00     0.000 A 
ATOM     16  C   UNL d   1      14.705  11.783  -0.014  0.00  0.00     0.000 A 
ATOM     17  C   UNL d   1      15.224  11.899  -0.639  0.00  0.00     0.000 A 
ATOM     18  C   UNL d   1      14.943  12.088  -1.379  0.00  0.00     0.002 A 
ENDBRANCH   4  13
TORSDOF 1
ENDMDL
