MODEL 1
REMARK VINA RESULT:       4.6      0.000      0.000
REMARK  6 active torsions:
REMARK  status: ('A' for Active; 'I' for Inactive)
REMARK    1  A    between atoms: C_12  and  C_3 
REMARK    2  A    between atoms: O_11  and  C_5 
REMARK    3  A    between atoms: O_16  and  C_10 
REMARK    4  A    between atoms: C_13  and  O_11 
REMARK    5  A    between atoms: C_15  and  O_16 
REMARK    6  A    between atoms: O_24  and  C_21 
ROOT
ATOM      1  C   UNL d   1     -41.828-122.470 -51.225  0.00  0.00     0.201 A 
ATOM      2  C   UNL d   1     -41.687-122.493 -52.039  0.00  0.00     0.085 A 
ATOM      3  C   UNL d   1     -41.622-123.102 -50.752  0.00  0.00     0.064 A 
ATOM      4  C   UNL d   1     -41.334-123.163 -52.368  0.00  0.00     0.107 A 
ATOM      5  C   UNL d   1     -41.890-121.864 -52.523  0.00  0.00     0.110 A 
ATOM      6  C   UNL d   1     -41.269-123.771 -51.082  0.00  0.00     0.126 A 
ATOM      7  O   UNL d   1     -41.124-123.805 -51.892  0.00  0.00    -0.305 OA
ATOM      8  C   UNL d   1     -41.189-123.196 -53.179  0.00  0.00     0.050 A 
ATOM      9  C   UNL d   1     -41.748-121.894 -53.322  0.00  0.00     0.050 A 
ATOM     10  C   UNL d   1     -41.396-122.564 -53.651  0.00  0.00     0.107 A 
ATOM     11  O   UNL d   1     -42.181-121.801 -50.896  0.00  0.00    -0.286 OA
ENDROOT
BRANCH   3  12
ATOM     12  C   UNL d   1     -41.767-123.072 -49.935  0.00  0.00     0.005 A 
ATOM     13  C   UNL d   1     -41.306-122.594 -49.450  0.00  0.00     0.002 A 
ATOM     14  C   UNL d   1     -41.449-122.565 -48.642  0.00  0.00     0.024 A 
ATOM     15  C   UNL d   1     -42.061-123.020 -48.316  0.00  0.00     0.094 A 
ATOM     16  C   UNL d   1     -42.522-123.498 -48.798  0.00  0.00     0.024 A 
ATOM     17  C   UNL d   1     -42.375-123.525 -49.611  0.00  0.00     0.002 A 
BRANCH  15  18
ATOM     18  O   UNL d   1     -42.207-122.993 -47.503  0.00  0.00    -0.328 OA
ATOM     19  C   UNL d   1     -41.816-123.516 -46.989  0.00  0.00     0.181 C 
ENDBRANCH  15  18
ENDBRANCH   3  12
BRANCH   5  20
ATOM     20  O   UNL d   1     -42.243-121.195 -52.194  0.00  0.00    -0.273 OA
BRANCH  20  21
ATOM     21  C   UNL d   1     -41.997-120.444 -52.424  0.00  0.00     0.300 C 
ATOM     22  O   UNL d   1     -42.554-119.874 -52.639  0.00  0.00    -0.259 OA
ATOM     23  C   UNL d   1     -41.194-120.262 -52.438  0.00  0.00     0.074 C 
ENDBRANCH  20  21
ENDBRANCH   5  20
BRANCH  10  24
ATOM     24  O   UNL d   1     -41.250-122.594 -54.469  0.00  0.00    -0.273 OA
BRANCH  24  25
ATOM     25  C   UNL d   1     -41.828-122.337 -54.997  0.00  0.00     0.300 C 
ATOM     26  O   UNL d   1     -41.687-121.683 -55.477  0.00  0.00    -0.259 OA
ATOM     27  C   UNL d   1     -42.553-122.731 -55.052  0.00  0.00     0.074 C 
ENDBRANCH  24  25
ENDBRANCH  10  24
TORSDOF 6
ENDMDL
