MODEL 1
REMARK VINA RESULT:      -9.3      0.000      0.000
REMARK  3 active torsions:
REMARK  status: ('A' for Active; 'I' for Inactive)
REMARK    1  A    between atoms: C_7  and  C_1 
REMARK    2  A    between atoms: C_9  and  C_6 
REMARK    3  A    between atoms: O_13  and  C_7 
ROOT
ATOM      1  C   UNL d   1      53.091  32.602  53.638  0.00  0.00     0.097 A 
ATOM      2  C   UNL d   1      52.599  32.093  53.221  0.00  0.00     0.073 A 
ATOM      3  C   UNL d   1      53.469  31.003  53.525  0.00  0.00     0.206 A 
ATOM      4  N   UNL d   1      52.783  31.294  53.160  0.00  0.00    -0.280 N 
ATOM      5  N   UNL d   1      53.961  31.512  53.943  0.00  0.00    -0.218 NA
ATOM      6  C   UNL d   1      53.777  32.323  54.005  0.00  0.00     0.090 A 
ATOM      7  S   UNL d   1      53.655  30.201  53.465  0.00  0.00    -0.038 SA
ATOM      8  C   UNL d   1      51.905  32.392  52.854  0.00  0.00     0.019 C 
ATOM      9  C   UNL d   1      52.289  30.782  52.740  0.00  0.00     0.101 C 
ENDROOT
BRANCH   6  10
ATOM     10  C   UNL d   1      54.274  32.838  54.428  0.00  0.00     0.018 A 
ATOM     11  C   UNL d   1      54.902  33.206  54.040  0.00  0.00     0.002 A 
ATOM     12  C   UNL d   1      55.394  33.716  54.458  0.00  0.00     0.000 A 
ATOM     13  C   UNL d   1      55.257  33.857  55.264  0.00  0.00     0.000 A 
ATOM     14  C   UNL d   1      54.628  33.485  55.640  0.00  0.00     0.000 A 
ATOM     15  C   UNL d   1      54.136  32.976  55.222  0.00  0.00     0.002 A 
ENDBRANCH   6  10
BRANCH   1  16
ATOM     16  C   UNL d   1      52.899  33.422  53.698  0.00  0.00     0.299 C 
ATOM     17  O   UNL d   1      52.531  33.715  54.383  0.00  0.00    -0.259 OA
BRANCH  16  18
ATOM     18  O   UNL d   1      53.084  33.927  53.067  0.00  0.00    -0.296 OA
ATOM     19  C   UNL d   1      52.651  34.613  52.937  0.00  0.00     0.185 C 
ENDBRANCH  16  18
ENDBRANCH   1  16
TORSDOF 3
ENDMDL
MODEL 2
REMARK VINA RESULT:      -9.1      1.138      2.827
REMARK  3 active torsions:
REMARK  status: ('A' for Active; 'I' for Inactive)
REMARK    1  A    between atoms: C_7  and  C_1 
REMARK    2  A    between atoms: C_9  and  C_6 
REMARK    3  A    between atoms: O_13  and  C_7 
ROOT
ATOM      1  C   UNL d   1      53.002  32.997  53.553  0.00  0.00     0.097 A 
ATOM      2  C   UNL d   1      53.587  32.456  53.755  0.00  0.00     0.073 A 
ATOM      3  C   UNL d   1      52.863  31.424  53.087  0.00  0.00     0.206 A 
ATOM      4  N   UNL d   1      53.523  31.669  53.525  0.00  0.00    -0.280 N 
ATOM      5  N   UNL d   1      52.278  31.965  52.885  0.00  0.00    -0.218 NA
ATOM      6  C   UNL d   1      52.341  32.763  53.117  0.00  0.00     0.090 A 
ATOM      7  S   UNL d   1      52.797  30.634  52.855  0.00  0.00    -0.038 SA
ATOM      8  C   UNL d   1      54.254  32.710  54.199  0.00  0.00     0.019 C 
ATOM      9  C   UNL d   1      54.111  31.126  53.728  0.00  0.00     0.101 C 
ENDROOT
BRANCH   6  10
ATOM     10  C   UNL d   1      51.749  33.310  52.913  0.00  0.00     0.018 A 
ATOM     11  C   UNL d   1      51.079  33.382  53.390  0.00  0.00     0.002 A 
ATOM     12  C   UNL d   1      50.494  33.923  53.188  0.00  0.00     0.000 A 
ATOM     13  C   UNL d   1      50.579  34.393  52.510  0.00  0.00     0.000 A 
ATOM     14  C   UNL d   1      51.250  34.314  52.043  0.00  0.00     0.000 A 
ATOM     15  C   UNL d   1      51.835  33.773  52.245  0.00  0.00     0.002 A 
ENDBRANCH   6  10
BRANCH   1  16
ATOM     16  C   UNL d   1      53.071  33.804  53.791  0.00  0.00     0.299 C 
ATOM     17  O   UNL d   1      53.336  34.377  53.251  0.00  0.00    -0.259 OA
BRANCH  16  18
ATOM     18  O   UNL d   1      52.871  34.014  54.569  0.00  0.00    -0.296 OA
ATOM     19  C   UNL d   1      53.224  34.661  54.933  0.00  0.00     0.185 C 
ENDBRANCH  16  18
ENDBRANCH   1  16
TORSDOF 3
ENDMDL
MODEL 3
REMARK VINA RESULT:      -9.0      1.824      3.375
REMARK  3 active torsions:
REMARK  status: ('A' for Active; 'I' for Inactive)
REMARK    1  A    between atoms: C_7  and  C_1 
REMARK    2  A    between atoms: C_9  and  C_6 
REMARK    3  A    between atoms: O_13  and  C_7 
ROOT
ATOM      1  C   UNL d   1      53.036  32.985  53.610  0.00  0.00     0.097 A 
ATOM      2  C   UNL d   1      53.714  32.865  54.060  0.00  0.00     0.073 A 
ATOM      3  C   UNL d   1      53.515  34.127  54.696  0.00  0.00     0.206 A 
ATOM      4  N   UNL d   1      53.958  33.431  54.603  0.00  0.00    -0.280 N 
ATOM      5  N   UNL d   1      52.837  34.247  54.246  0.00  0.00    -0.218 NA
ATOM      6  C   UNL d   1      52.588  33.674  53.694  0.00  0.00     0.090 A 
ATOM      7  S   UNL d   1      53.758  34.697  55.242  0.00  0.00    -0.038 SA
ATOM      8  C   UNL d   1      54.159  32.159  53.962  0.00  0.00     0.019 C 
ATOM      9  C   UNL d   1      54.639  33.311  55.055  0.00  0.00     0.101 C 
ENDROOT
BRANCH   6  10
ATOM     10  C   UNL d   1      51.903  33.795  53.240  0.00  0.00     0.018 A 
ATOM     11  C   UNL d   1      51.963  34.161  52.503  0.00  0.00     0.002 A 
ATOM     12  C   UNL d   1      51.285  34.280  52.053  0.00  0.00     0.000 A 
ATOM     13  C   UNL d   1      50.547  34.034  52.340  0.00  0.00     0.000 A 
ATOM     14  C   UNL d   1      50.499  33.671  53.076  0.00  0.00     0.000 A 
ATOM     15  C   UNL d   1      51.177  33.551  53.525  0.00  0.00     0.002 A 
ENDBRANCH   6  10
BRANCH   1  16
ATOM     16  C   UNL d   1      52.789  32.401  53.053  0.00  0.00     0.299 C 
ATOM     17  O   UNL d   1      52.940  32.507  52.242  0.00  0.00    -0.259 OA
BRANCH  16  18
ATOM     18  O   UNL d   1      52.394  31.724  53.325  0.00  0.00    -0.296 OA
ATOM     19  C   UNL d   1      52.479  31.004  52.938  0.00  0.00     0.185 C 
ENDBRANCH  16  18
ENDBRANCH   1  16
TORSDOF 3
ENDMDL
MODEL 4
REMARK VINA RESULT:      -8.2      1.649      2.288
REMARK  3 active torsions:
REMARK  status: ('A' for Active; 'I' for Inactive)
REMARK    1  A    between atoms: C_7  and  C_1 
REMARK    2  A    between atoms: C_9  and  C_6 
REMARK    3  A    between atoms: O_13  and  C_7 
ROOT
ATOM      1  C   UNL d   1      53.110  32.644  53.539  0.00  0.00     0.097 A 
ATOM      2  C   UNL d   1      52.435  32.557  53.078  0.00  0.00     0.073 A 
ATOM      3  C   UNL d   1      52.039  33.888  53.407  0.00  0.00     0.206 A 
ATOM      4  N   UNL d   1      51.897  33.174  53.008  0.00  0.00    -0.280 N 
ATOM      5  N   UNL d   1      52.714  33.975  53.867  0.00  0.00    -0.218 NA
ATOM      6  C   UNL d   1      53.262  33.350  53.940  0.00  0.00     0.090 A 
ATOM      7  S   UNL d   1      51.500  34.509  53.338  0.00  0.00    -0.038 SA
ATOM      8  C   UNL d   1      52.296  31.832  52.677  0.00  0.00     0.019 C 
ATOM      9  C   UNL d   1      51.219  33.086  52.545  0.00  0.00     0.101 C 
ENDROOT
BRANCH   6  10
ATOM     10  C   UNL d   1      53.944  33.438  54.406  0.00  0.00     0.018 A 
ATOM     11  C   UNL d   1      53.910  33.270  55.213  0.00  0.00     0.002 A 
ATOM     12  C   UNL d   1      54.586  33.357  55.674  0.00  0.00     0.000 A 
ATOM     13  C   UNL d   1      55.295  33.612  55.328  0.00  0.00     0.000 A 
ATOM     14  C   UNL d   1      55.317  33.776  54.523  0.00  0.00     0.000 A 
ATOM     15  C   UNL d   1      54.642  33.689  54.062  0.00  0.00     0.002 A 
ENDBRANCH   6  10
BRANCH   1  16
ATOM     16  C   UNL d   1      53.661  32.008  53.609  0.00  0.00     0.299 C 
ATOM     17  O   UNL d   1      54.369  32.019  53.173  0.00  0.00    -0.259 OA
BRANCH  16  18
ATOM     18  O   UNL d   1      53.485  31.375  54.116  0.00  0.00    -0.296 OA
ATOM     19  C   UNL d   1      53.733  30.612  53.937  0.00  0.00     0.185 C 
ENDBRANCH  16  18
ENDBRANCH   1  16
TORSDOF 3
ENDMDL
MODEL 5
REMARK VINA RESULT:      -8.1      1.442      2.886
REMARK  3 active torsions:
REMARK  status: ('A' for Active; 'I' for Inactive)
REMARK    1  A    between atoms: C_7  and  C_1 
REMARK    2  A    between atoms: C_9  and  C_6 
REMARK    3  A    between atoms: O_13  and  C_7 
ROOT
ATOM      1  C   UNL d   1      53.016  32.953  53.714  0.00  0.00     0.097 A 
ATOM      2  C   UNL d   1      53.100  33.734  53.956  0.00  0.00     0.073 A 
ATOM      3  C   UNL d   1      54.244  33.371  54.727  0.00  0.00     0.206 A 
ATOM      4  N   UNL d   1      53.711  33.949  54.462  0.00  0.00    -0.280 N 
ATOM      5  N   UNL d   1      54.160  32.590  54.485  0.00  0.00    -0.218 NA
ATOM      6  C   UNL d   1      53.541  32.370  53.972  0.00  0.00     0.090 A 
ATOM      7  S   UNL d   1      54.859  33.586  55.235  0.00  0.00    -0.038 SA
ATOM      8  C   UNL d   1      52.556  34.314  53.684  0.00  0.00     0.019 C 
ATOM      9  C   UNL d   1      53.795  34.734  54.705  0.00  0.00     0.101 C 
ENDROOT
BRANCH   6  10
ATOM     10  C   UNL d   1      53.456  31.580  53.727  0.00  0.00     0.018 A 
ATOM     11  C   UNL d   1      53.087  31.037  54.227  0.00  0.00     0.002 A 
ATOM     12  C   UNL d   1      53.004  30.256  53.985  0.00  0.00     0.000 A 
ATOM     13  C   UNL d   1      53.288  30.017  53.242  0.00  0.00     0.000 A 
ATOM     14  C   UNL d   1      53.654  30.567  52.753  0.00  0.00     0.000 A 
ATOM     15  C   UNL d   1      53.738  31.348  52.995  0.00  0.00     0.002 A 
ENDBRANCH   6  10
BRANCH   1  16
ATOM     16  C   UNL d   1      52.387  32.735  53.194  0.00  0.00     0.299 C 
ATOM     17  O   UNL d   1      52.531  32.640  52.381  0.00  0.00    -0.259 OA
BRANCH  16  18
ATOM     18  O   UNL d   1      51.627  32.619  53.507  0.00  0.00    -0.296 OA
ATOM     19  C   UNL d   1      50.959  32.810  53.068  0.00  0.00     0.185 C 
ENDBRANCH  16  18
ENDBRANCH   1  16
TORSDOF 3
ENDMDL
MODEL 6
REMARK VINA RESULT:      -7.9      1.573      3.049
REMARK  3 active torsions:
REMARK  status: ('A' for Active; 'I' for Inactive)
REMARK    1  A    between atoms: C_7  and  C_1 
REMARK    2  A    between atoms: C_9  and  C_6 
REMARK    3  A    between atoms: O_13  and  C_7 
ROOT
ATOM      1  C   UNL d   1      53.235  33.082  53.750  0.00  0.00     0.097 A 
ATOM      2  C   UNL d   1      53.015  33.874  53.739  0.00  0.00     0.073 A 
ATOM      3  C   UNL d   1      51.925  33.560  52.873  0.00  0.00     0.206 A 
ATOM      4  N   UNL d   1      52.363  34.119  53.303  0.00  0.00    -0.280 N 
ATOM      5  N   UNL d   1      52.145  32.768  52.884  0.00  0.00    -0.218 NA
ATOM      6  C   UNL d   1      52.807  32.517  53.326  0.00  0.00     0.090 A 
ATOM      7  S   UNL d   1      51.270  33.803  52.435  0.00  0.00    -0.038 SA
ATOM      8  C   UNL d   1      53.462  34.435  54.177  0.00  0.00     0.019 C 
ATOM      9  C   UNL d   1      52.142  34.914  53.292  0.00  0.00     0.101 C 
ENDROOT
BRANCH   6  10
ATOM     10  C   UNL d   1      53.029  31.716  53.337  0.00  0.00     0.018 A 
ATOM     11  C   UNL d   1      52.643  31.194  53.846  0.00  0.00     0.002 A 
ATOM     12  C   UNL d   1      52.863  30.402  53.857  0.00  0.00     0.000 A 
ATOM     13  C   UNL d   1      53.468  30.131  53.359  0.00  0.00     0.000 A 
ATOM     14  C   UNL d   1      53.845  30.661  52.855  0.00  0.00     0.000 A 
ATOM     15  C   UNL d   1      53.626  31.453  52.844  0.00  0.00     0.002 A 
ENDBRANCH   6  10
BRANCH   1  16
ATOM     16  C   UNL d   1      53.906  32.834  54.199  0.00  0.00     0.299 C 
ATOM     17  O   UNL d   1      54.638  32.718  53.825  0.00  0.00    -0.259 OA
BRANCH  16  18
ATOM     18  O   UNL d   1      53.822  32.709  55.015  0.00  0.00    -0.296 OA
ATOM     19  C   UNL d   1      54.434  32.890  55.533  0.00  0.00     0.185 C 
ENDBRANCH  16  18
ENDBRANCH   1  16
TORSDOF 3
ENDMDL
