MODEL 1
REMARK VINA RESULT:      -5.2      0.000      0.000
REMARK  5 active torsions:
REMARK  status: ('A' for Active; 'I' for Inactive)
REMARK    1  A    between atoms: C_5  and  C_1 
REMARK    2  A    between atoms: C_2  and  C_5 
REMARK    3  A    between atoms: C_7  and  C_2 
REMARK    4  A    between atoms: N_4  and  C_11 
REMARK       I    between atoms: N_12  and  C_7 
REMARK    5  A    between atoms: C_17  and  N_12 
ROOT
ATOM      1  C   UNL d   1      58.022  -0.264  29.775  0.00  0.00     0.126 C 
ATOM      2  C   UNL d   1      57.886   0.205  29.119  0.00  0.00     0.106 C 
ATOM      3  N   UNL d   1      57.748   0.682  28.456  0.00  0.00    -0.191 NA
ENDROOT
BRANCH   1   4
ATOM      4  C   UNL d   1      58.271  -1.048  29.677  0.00  0.00     0.017 C 
BRANCH   4   5
ATOM      5  C   UNL d   1      59.043  -1.213  29.438  0.00  0.00     0.020 A 
ATOM      6  C   UNL d   1      59.655  -0.658  29.374  0.00  0.00     0.080 A 
ATOM      7  N   UNL d   1      60.337  -1.061  29.115  0.00  0.00    -0.303 N 
ATOM      8  C   UNL d   1      61.073  -0.727  28.977  0.00  0.00     0.100 C 
ATOM      9  C   UNL d   1      60.140  -1.864  29.022  0.00  0.00     0.064 A 
ATOM     10  C   UNL d   1      59.335  -1.955  29.223  0.00  0.00     0.018 A 
ATOM     11  C   UNL d   1      60.580  -2.520  28.782  0.00  0.00     0.018 A 
ATOM     12  C   UNL d   1      58.986  -2.700  29.181  0.00  0.00     0.002 A 
ATOM     13  C   UNL d   1      59.430  -3.348  28.942  0.00  0.00     0.000 A 
ATOM     14  C   UNL d   1      60.222  -3.262  28.743  0.00  0.00     0.002 A 
ENDBRANCH   4   5
ENDBRANCH   1   4
BRANCH   1  15
ATOM     15  C   UNL d   1      57.912   0.041  30.537  0.00  0.00     0.289 C 
ATOM     16  N   UNL d   1      57.341  -0.295  31.030  0.00  0.00    -0.207 NA
ATOM     17  O   UNL d   1      58.368   0.671  30.796  0.00  0.00    -0.264 OA
BRANCH  16  18
ATOM     18  C   UNL d   1      57.122  -0.100  31.803  0.00  0.00     0.086 A 
ATOM     19  C   UNL d   1      56.422  -0.388  32.116  0.00  0.00     0.043 A 
ATOM     20  C   UNL d   1      56.203  -0.194  32.887  0.00  0.00     0.128 A 
ATOM     21  C   UNL d   1      56.699   0.296  33.343  0.00  0.00     0.024 A 
ATOM     22  C   UNL d   1      57.404   0.583  33.017  0.00  0.00     0.003 A 
ATOM     23  C   UNL d   1      57.610   0.383  32.250  0.00  0.00     0.019 A 
BRANCH  20  24
ATOM     24  N   UNL d   1      55.498  -0.483  33.207  0.00  0.00    -0.114 N 
ATOM     25  O   UNL d   1      54.914   0.047  33.450  0.00  0.00    -0.532 OA
ATOM     26  O   UNL d   1      55.382  -1.301  33.282  0.00  0.00    -0.532 OA
ENDBRANCH  20  24
ENDBRANCH  16  18
ENDBRANCH   1  15
TORSDOF 5
ENDMDL
MODEL 2
REMARK VINA RESULT:      -3.8      1.670      5.072
REMARK  5 active torsions:
REMARK  status: ('A' for Active; 'I' for Inactive)
REMARK    1  A    between atoms: C_5  and  C_1 
REMARK    2  A    between atoms: C_2  and  C_5 
REMARK    3  A    between atoms: C_7  and  C_2 
REMARK    4  A    between atoms: N_4  and  C_11 
REMARK       I    between atoms: N_12  and  C_7 
REMARK    5  A    between atoms: C_17  and  N_12 
ROOT
ATOM      1  C   UNL d   1      57.477   0.349  31.498  0.00  0.00     0.126 C 
ATOM      2  C   UNL d   1      58.089   0.513  32.017  0.00  0.00     0.106 C 
ATOM      3  N   UNL d   1      58.709   0.678  32.540  0.00  0.00    -0.191 NA
ENDROOT
BRANCH   1   4
ATOM      4  C   UNL d   1      56.691   0.429  31.748  0.00  0.00     0.017 C 
BRANCH   4   5
ATOM      5  C   UNL d   1      56.345  -0.148  32.223  0.00  0.00     0.020 A 
ATOM      6  C   UNL d   1      56.461  -0.965  32.149  0.00  0.00     0.080 A 
ATOM      7  N   UNL d   1      56.008  -1.340  32.739  0.00  0.00    -0.303 N 
ATOM      8  C   UNL d   1      55.958  -2.149  32.869  0.00  0.00     0.100 C 
ATOM      9  C   UNL d   1      55.615  -0.750  33.175  0.00  0.00     0.064 A 
ATOM     10  C   UNL d   1      55.826  -0.011  32.852  0.00  0.00     0.018 A 
ATOM     11  C   UNL d   1      55.097  -0.785  33.817  0.00  0.00     0.018 A 
ATOM     12  C   UNL d   1      55.516   0.680  33.177  0.00  0.00     0.002 A 
ATOM     13  C   UNL d   1      55.002   0.637  33.815  0.00  0.00     0.000 A 
ATOM     14  C   UNL d   1      54.792  -0.089  34.136  0.00  0.00     0.002 A 
ENDBRANCH   4   5
ENDBRANCH   1   4
BRANCH   1  15
ATOM     15  C   UNL d   1      57.640   0.102  30.724  0.00  0.00     0.289 C 
ATOM     16  N   UNL d   1      58.223  -0.468  30.594  0.00  0.00    -0.207 NA
ATOM     17  O   UNL d   1      57.225   0.424  30.095  0.00  0.00    -0.264 OA
BRANCH  16  18
ATOM     18  C   UNL d   1      58.492  -0.806  29.890  0.00  0.00     0.086 A 
ATOM     19  C   UNL d   1      58.540  -1.620  29.817  0.00  0.00     0.043 A 
ATOM     20  C   UNL d   1      58.808  -1.958  29.114  0.00  0.00     0.128 A 
ATOM     21  C   UNL d   1      59.028  -1.464  28.480  0.00  0.00     0.024 A 
ATOM     22  C   UNL d   1      58.976  -0.642  28.563  0.00  0.00     0.003 A 
ATOM     23  C   UNL d   1      58.708  -0.319  29.266  0.00  0.00     0.019 A 
BRANCH  20  24
ATOM     24  N   UNL d   1      58.858  -2.779  29.037  0.00  0.00    -0.114 N 
ATOM     25  O   UNL d   1      59.547  -3.168  29.270  0.00  0.00    -0.532 OA
ATOM     26  O   UNL d   1      58.218  -3.205  28.727  0.00  0.00    -0.532 OA
ENDBRANCH  20  24
ENDBRANCH  16  18
ENDBRANCH   1  15
TORSDOF 5
ENDMDL
