MODEL 1
REMARK VINA RESULT:      -2.5      0.000      0.000
REMARK  2 active torsions:
REMARK  status: ('A' for Active; 'I' for Inactive)
REMARK    1  A    between atoms: C_6  and  N_1 
REMARK    2  A    between atoms: C_14  and  C_13 
ROOT
ATOM      1  C   UNL d   1      32.700  21.847 -21.222  0.00  0.00     0.070 A 
ATOM      2  C   UNL d   1      32.502  21.094 -20.950  0.00  0.00     0.018 A 
ATOM      3  C   UNL d   1      33.069  21.937 -21.954  0.00  0.00     0.018 A 
ATOM      4  C   UNL d   1      32.671  20.426 -21.411  0.00  0.00     0.002 A 
ATOM      5  C   UNL d   1      33.241  21.275 -22.419  0.00  0.00     0.002 A 
ATOM      6  C   UNL d   1      33.040  20.516 -22.144  0.00  0.00     0.000 A 
ENDROOT
BRANCH   1   7
ATOM      7  N   UNL d   1      32.528  22.500 -20.758  0.00  0.00    -0.242 N 
ATOM      8  C   UNL d   1      32.779  22.613 -19.981  0.00  0.00     0.267 A 
ATOM      9  C   UNL d   1      32.481  23.341 -19.728  0.00  0.00     0.066 A 
ATOM     10  O   UNL d   1      33.241  22.094 -19.539  0.00  0.00    -0.267 OA
ATOM     11  C   UNL d   1      32.052  23.675 -20.341  0.00  0.00     0.066 A 
ATOM     12  C   UNL d   1      32.080  23.156 -20.979  0.00  0.00     0.267 A 
ATOM     13  O   UNL d   1      31.719  23.275 -21.715  0.00  0.00    -0.267 OA
ENDBRANCH   1   7
BRANCH   6  14
ATOM     14  C   UNL d   1      33.212  19.858 -22.607  0.00  0.00     0.000 C 
ATOM     15  C   UNL d   1      32.869  19.129 -22.419  0.00  0.00     0.000 C 
ENDBRANCH   6  14
TORSDOF 2
ENDMDL
MODEL 2
REMARK VINA RESULT:      -2.4      6.230      6.907
REMARK  2 active torsions:
REMARK  status: ('A' for Active; 'I' for Inactive)
REMARK    1  A    between atoms: C_6  and  N_1 
REMARK    2  A    between atoms: C_14  and  C_13 
ROOT
ATOM      1  C   UNL d   1      30.507  16.132 -23.908  0.00  0.00     0.070 A 
ATOM      2  C   UNL d   1      30.814  15.508 -24.350  0.00  0.00     0.018 A 
ATOM      3  C   UNL d   1      31.013  16.705 -23.597  0.00  0.00     0.018 A 
ATOM      4  C   UNL d   1      31.631  15.453 -24.484  0.00  0.00     0.002 A 
ATOM      5  C   UNL d   1      31.828  16.656 -23.726  0.00  0.00     0.002 A 
ATOM      6  C   UNL d   1      32.137  16.025 -24.172  0.00  0.00     0.000 A 
ENDROOT
BRANCH   1   7
ATOM      7  N   UNL d   1      29.699  16.177 -23.782  0.00  0.00    -0.242 N 
ATOM      8  C   UNL d   1      29.299  15.862 -23.133  0.00  0.00     0.267 A 
ATOM      9  C   UNL d   1      28.497  16.034 -23.230  0.00  0.00     0.066 A 
ATOM     10  O   UNL d   1      29.639  15.453 -22.505  0.00  0.00    -0.267 OA
ATOM     11  C   UNL d   1      28.401  16.449 -23.929  0.00  0.00     0.066 A 
ATOM     12  C   UNL d   1      29.144  16.539 -24.273  0.00  0.00     0.267 A 
ATOM     13  O   UNL d   1      29.303  16.926 -24.987  0.00  0.00    -0.267 OA
ENDBRANCH   1   7
BRANCH   6  14
ATOM     14  C   UNL d   1      32.948  15.979 -24.300  0.00  0.00     0.000 C 
ATOM     15  C   UNL d   1      33.239  16.019 -25.074  0.00  0.00     0.000 C 
ENDBRANCH   6  14
TORSDOF 2
ENDMDL
MODEL 3
REMARK VINA RESULT:      -2.4      1.382      3.576
REMARK  2 active torsions:
REMARK  status: ('A' for Active; 'I' for Inactive)
REMARK    1  A    between atoms: C_6  and  N_1 
REMARK    2  A    between atoms: C_14  and  C_13 
ROOT
ATOM      1  C   UNL d   1      32.684  22.784 -19.749  0.00  0.00     0.070 A 
ATOM      2  C   UNL d   1      33.204  22.447 -19.205  0.00  0.00     0.018 A 
ATOM      3  C   UNL d   1      32.198  23.410 -19.521  0.00  0.00     0.018 A 
ATOM      4  C   UNL d   1      33.241  22.735 -18.428  0.00  0.00     0.002 A 
ATOM      5  C   UNL d   1      32.229  23.702 -18.748  0.00  0.00     0.002 A 
ATOM      6  C   UNL d   1      32.755  23.361 -18.200  0.00  0.00     0.000 A 
ENDROOT
BRANCH   1   7
ATOM      7  N   UNL d   1      32.656  22.491 -20.513  0.00  0.00    -0.242 N 
ATOM      8  C   UNL d   1      32.908  22.894 -21.187  0.00  0.00     0.267 A 
ATOM      9  C   UNL d   1      32.780  22.396 -21.834  0.00  0.00     0.066 A 
ATOM     10  O   UNL d   1      33.228  23.652 -21.210  0.00  0.00    -0.267 OA
ATOM     11  C   UNL d   1      32.453  21.695 -21.565  0.00  0.00     0.066 A 
ATOM     12  C   UNL d   1      32.376  21.752 -20.747  0.00  0.00     0.267 A 
ATOM     13  O   UNL d   1      32.069  21.166 -20.249  0.00  0.00    -0.267 OA
ENDBRANCH   1   7
BRANCH   6  14
ATOM     14  C   UNL d   1      32.784  23.654 -17.432  0.00  0.00     0.000 C 
ATOM     15  C   UNL d   1      33.175  23.217 -16.847  0.00  0.00     0.000 C 
ENDBRANCH   6  14
TORSDOF 2
ENDMDL
MODEL 4
REMARK VINA RESULT:      -2.3      4.154      6.108
REMARK  2 active torsions:
REMARK  status: ('A' for Active; 'I' for Inactive)
REMARK    1  A    between atoms: C_6  and  N_1 
REMARK    2  A    between atoms: C_14  and  C_13 
ROOT
ATOM      1  C   UNL d   1      32.138  17.320 -24.113  0.00  0.00     0.070 A 
ATOM      2  C   UNL d   1      32.429  17.277 -23.343  0.00  0.00     0.018 A 
ATOM      3  C   UNL d   1      32.211  18.021 -24.543  0.00  0.00     0.018 A 
ATOM      4  C   UNL d   1      32.796  17.935 -22.998  0.00  0.00     0.002 A 
ATOM      5  C   UNL d   1      32.576  18.681 -24.204  0.00  0.00     0.002 A 
ATOM      6  C   UNL d   1      32.869  18.636 -23.427  0.00  0.00     0.000 A 
ENDROOT
BRANCH   1   7
ATOM      7  N   UNL d   1      31.777  16.663 -24.444  0.00  0.00    -0.242 N 
ATOM      8  C   UNL d   1      32.163  16.069 -24.865  0.00  0.00     0.267 A 
ATOM      9  C   UNL d   1      31.591  15.519 -25.097  0.00  0.00     0.066 A 
ATOM     10  O   UNL d   1      32.970  16.031 -25.025  0.00  0.00    -0.267 OA
ATOM     11  C   UNL d   1      30.861  15.769 -24.823  0.00  0.00     0.066 A 
ATOM     12  C   UNL d   1      30.974  16.478 -24.419  0.00  0.00     0.267 A 
ATOM     13  O   UNL d   1      30.381  16.924 -24.052  0.00  0.00    -0.267 OA
ENDBRANCH   1   7
BRANCH   6  14
ATOM     14  C   UNL d   1      33.232  19.294 -23.093  0.00  0.00     0.000 C 
ATOM     15  C   UNL d   1      33.182  19.412 -22.275  0.00  0.00     0.000 C 
ENDBRANCH   6  14
TORSDOF 2
ENDMDL
MODEL 5
REMARK VINA RESULT:      -2.1      3.315      4.675
REMARK  2 active torsions:
REMARK  status: ('A' for Active; 'I' for Inactive)
REMARK    1  A    between atoms: C_6  and  N_1 
REMARK    2  A    between atoms: C_14  and  C_13 
ROOT
ATOM      1  C   UNL d   1      32.524  18.054 -23.679  0.00  0.00     0.070 A 
ATOM      2  C   UNL d   1      33.024  17.424 -23.501  0.00  0.00     0.018 A 
ATOM      3  C   UNL d   1      31.750  17.910 -23.924  0.00  0.00     0.018 A 
ATOM      4  C   UNL d   1      32.752  16.643 -23.567  0.00  0.00     0.002 A 
ATOM      5  C   UNL d   1      31.472  17.134 -23.991  0.00  0.00     0.002 A 
ATOM      6  C   UNL d   1      31.978  16.498 -23.811  0.00  0.00     0.000 A 
ENDROOT
BRANCH   1   7
ATOM      7  N   UNL d   1      32.803  18.821 -23.611  0.00  0.00    -0.242 N 
ATOM      8  C   UNL d   1      32.977  19.205 -22.902  0.00  0.00     0.267 A 
ATOM      9  C   UNL d   1      33.241  19.964 -23.090  0.00  0.00     0.066 A 
ATOM     10  O   UNL d   1      32.901  18.886 -22.146  0.00  0.00    -0.267 OA
ATOM     11  C   UNL d   1      33.231  20.052 -23.904  0.00  0.00     0.066 A 
ATOM     12  C   UNL d   1      32.960  19.345 -24.229  0.00  0.00     0.267 A 
ATOM     13  O   UNL d   1      32.864  19.190 -25.037  0.00  0.00    -0.267 OA
ENDBRANCH   1   7
BRANCH   6  14
ATOM     14  C   UNL d   1      31.699  15.728 -23.879  0.00  0.00     0.000 C 
ATOM     15  C   UNL d   1      30.933  15.550 -23.620  0.00  0.00     0.000 C 
ENDBRANCH   6  14
TORSDOF 2
ENDMDL
MODEL 6
REMARK VINA RESULT:      -1.8      1.561      2.456
REMARK  2 active torsions:
REMARK  status: ('A' for Active; 'I' for Inactive)
REMARK    1  A    between atoms: C_6  and  N_1 
REMARK    2  A    between atoms: C_14  and  C_13 
ROOT
ATOM      1  C   UNL d   1      32.696  22.731 -21.688  0.00  0.00     0.070 A 
ATOM      2  C   UNL d   1      32.154  23.320 -21.884  0.00  0.00     0.018 A 
ATOM      3  C   UNL d   1      33.238  22.465 -22.251  0.00  0.00     0.018 A 
ATOM      4  C   UNL d   1      32.150  23.648 -22.646  0.00  0.00     0.002 A 
ATOM      5  C   UNL d   1      33.240  22.788 -23.012  0.00  0.00     0.002 A 
ATOM      6  C   UNL d   1      32.692  23.383 -23.209  0.00  0.00     0.000 A 
ENDROOT
BRANCH   1   7
ATOM      7  N   UNL d   1      32.690  22.414 -20.933  0.00  0.00    -0.242 N 
ATOM      8  C   UNL d   1      32.451  21.649 -20.738  0.00  0.00     0.267 A 
ATOM      9  C   UNL d   1      32.535  21.564 -19.921  0.00  0.00     0.066 A 
ATOM     10  O   UNL d   1      32.179  21.077 -21.263  0.00  0.00    -0.267 OA
ATOM     11  C   UNL d   1      32.822  22.267 -19.613  0.00  0.00     0.066 A 
ATOM     12  C   UNL d   1      32.919  22.794 -20.238  0.00  0.00     0.267 A 
ATOM     13  O   UNL d   1      33.199  23.571 -20.176  0.00  0.00    -0.267 OA
ENDBRANCH   1   7
BRANCH   6  14
ATOM     14  C   UNL d   1      32.696  23.702 -23.967  0.00  0.00     0.000 C 
ATOM     15  C   UNL d   1      33.215  23.395 -24.533  0.00  0.00     0.000 C 
ENDBRANCH   6  14
TORSDOF 2
ENDMDL
