MODEL 1
REMARK VINA RESULT:      64.2      0.000      0.000
REMARK  5 active torsions:
REMARK  status: ('A' for Active; 'I' for Inactive)
REMARK    1  A    between atoms: C_8  and  C_1 
REMARK    2  A    between atoms: N_4  and  C_2 
REMARK       I    between atoms: C_6  and  N_4 
REMARK    3  A    between atoms: C_9  and  C_6 
REMARK    4  A    between atoms: O_20  and  C_15 
REMARK    5  A    between atoms: C_21  and  O_20 
ROOT
ATOM      1  C   UNL d   1      61.359  48.680  51.280  0.00  0.00     0.177 A 
ATOM      2  C   UNL d   1      60.634  49.021  51.479  0.00  0.00     0.114 A 
ATOM      3  O   UNL d   1      61.839  48.666  51.963  0.00  0.00    -0.301 OA
ATOM      4  C   UNL d   1      60.653  49.220  52.279  0.00  0.00     0.043 A 
ATOM      5  C   UNL d   1      61.413  48.996  52.581  0.00  0.00     0.102 A 
ATOM      6  C   UNL d   1      60.101  49.569  52.774  0.00  0.00     0.004 A 
ATOM      7  C   UNL d   1      61.586  49.132  53.370  0.00  0.00     0.025 A 
ATOM      8  C   UNL d   1      60.275  49.707  53.575  0.00  0.00     0.000 A 
ATOM      9  C   UNL d   1      61.007  49.493  53.873  0.00  0.00     0.002 A 
ENDROOT
BRANCH   2  10
ATOM     10  N   UNL d   1      59.993  49.135  50.936  0.00  0.00    -0.206 NA
ATOM     11  C   UNL d   1      59.228  49.255  51.227  0.00  0.00     0.279 C 
ATOM     12  O   UNL d   1      59.074  49.267  52.033  0.00  0.00    -0.265 OA
BRANCH  11  13
ATOM     13  C   UNL d   1      58.603  49.367  50.697  0.00  0.00     0.058 A 
ATOM     14  C   UNL d   1      58.760  49.412  49.904  0.00  0.00     0.007 A 
ATOM     15  C   UNL d   1      58.121  49.526  49.363  0.00  0.00     0.025 A 
ATOM     16  C   UNL d   1      57.356  49.588  49.650  0.00  0.00     0.100 A 
ATOM     17  C   UNL d   1      57.189  49.542  50.467  0.00  0.00     0.025 A 
ATOM     18  C   UNL d   1      57.827  49.428  51.008  0.00  0.00     0.007 A 
BRANCH  16  19
ATOM     19  O   UNL d   1      56.718  49.702  49.110  0.00  0.00    -0.305 OA
BRANCH  19  20
ATOM     20  C   UNL d   1      56.056  49.211  49.144  0.00  0.00     0.123 C 
ATOM     21  C   UNL d   1      56.148  48.408  49.273  0.00  0.00     0.029 C 
ENDBRANCH  19  20
ENDBRANCH  16  19
ENDBRANCH  11  13
ENDBRANCH   2  10
BRANCH   1  22
ATOM     22  C   UNL d   1      61.545  48.410  50.525  0.00  0.00     0.321 C 
ATOM     23  O   UNL d   1      61.719  48.962  49.915  0.00  0.00    -0.261 OA
ATOM     24  N   UNL d   1      61.562  47.590  50.359  0.00  0.00    -0.101 N 
ENDBRANCH   1  22
TORSDOF 5
ENDMDL
