MODEL 1
REMARK VINA RESULT:      21.7      0.000      0.000
REMARK  1 active torsions:
REMARK  status: ('A' for Active; 'I' for Inactive)
REMARK       I    between atoms: C_4  and  N_1 
REMARK    1  A    between atoms: C_7  and  C_4 
ROOT
ATOM      1  N   UNL d   1     -51.343  25.758  33.430  0.00  0.00    -0.175 N 
ATOM      2  N   UNL d   1     -52.030  26.219  33.488  0.00  0.00    -0.057 NA
ATOM      3  N   UNL d   1     -51.807  27.003  33.539  0.00  0.00    -0.129 NA
ATOM      4  C   UNL d   1     -51.315  24.929  33.366  0.00  0.00     0.282 C 
ATOM      5  C   UNL d   1     -50.692  26.263  33.445  0.00  0.00     0.107 A 
ATOM      6  C   UNL d   1     -50.977  27.035  33.513  0.00  0.00     0.122 A 
ATOM      7  O   UNL d   1     -50.589  24.551  33.313  0.00  0.00    -0.265 OA
ATOM      8  C   UNL d   1     -49.882  26.128  33.407  0.00  0.00     0.021 A 
ATOM      9  C   UNL d   1     -50.443  27.677  33.543  0.00  0.00     0.022 A 
ATOM     10  C   UNL d   1     -49.354  26.762  33.436  0.00  0.00     0.002 A 
ATOM     11  C   UNL d   1     -49.631  27.537  33.504  0.00  0.00     0.002 A 
ENDROOT
BRANCH   4  12
ATOM     12  C   UNL d   1     -52.017  24.498  33.358  0.00  0.00     0.058 A 
ATOM     13  C   UNL d   1     -52.743  24.889  33.348  0.00  0.00     0.005 A 
ATOM     14  C   UNL d   1     -53.445  24.458  33.340  0.00  0.00     0.000 A 
ATOM     15  C   UNL d   1     -53.430  23.635  33.342  0.00  0.00     0.000 A 
ATOM     16  C   UNL d   1     -52.705  23.242  33.352  0.00  0.00     0.000 A 
ATOM     17  C   UNL d   1     -54.147  23.206  33.333  0.00  0.00     0.000 C 
ATOM     18  C   UNL d   1     -52.001  23.671  33.361  0.00  0.00     0.005 A 
ENDBRANCH   4  12
TORSDOF 1
ENDMDL
MODEL 2
REMARK VINA RESULT:      21.9      0.985      3.932
REMARK  1 active torsions:
REMARK  status: ('A' for Active; 'I' for Inactive)
REMARK       I    between atoms: C_4  and  N_1 
REMARK    1  A    between atoms: C_7  and  C_4 
ROOT
ATOM      1  N   UNL d   1     -51.999  25.134  33.339  0.00  0.00    -0.175 N 
ATOM      2  N   UNL d   1     -51.301  24.685  33.315  0.00  0.00    -0.057 NA
ATOM      3  N   UNL d   1     -51.506  23.895  33.308  0.00  0.00    -0.129 NA
ATOM      4  C   UNL d   1     -52.045  25.964  33.353  0.00  0.00     0.282 C 
ATOM      5  C   UNL d   1     -52.638  24.614  33.348  0.00  0.00     0.107 A 
ATOM      6  C   UNL d   1     -52.336  23.846  33.329  0.00  0.00     0.122 A 
ATOM      7  O   UNL d   1     -52.780  26.329  33.377  0.00  0.00    -0.265 OA
ATOM      8  C   UNL d   1     -53.452  24.733  33.371  0.00  0.00     0.021 A 
ATOM      9  C   UNL d   1     -52.855  23.192  33.332  0.00  0.00     0.022 A 
ATOM     10  C   UNL d   1     -53.965  24.087  33.374  0.00  0.00     0.002 A 
ATOM     11  C   UNL d   1     -53.671  23.315  33.355  0.00  0.00     0.002 A 
ENDROOT
BRANCH   4  12
ATOM     12  C   UNL d   1     -51.353  26.411  33.342  0.00  0.00     0.058 A 
ATOM     13  C   UNL d   1     -50.619  26.036  33.344  0.00  0.00     0.005 A 
ATOM     14  C   UNL d   1     -49.927  26.482  33.333  0.00  0.00     0.000 A 
ATOM     15  C   UNL d   1     -49.959  27.304  33.320  0.00  0.00     0.000 A 
ATOM     16  C   UNL d   1     -50.693  27.681  33.318  0.00  0.00     0.000 A 
ATOM     17  C   UNL d   1     -49.252  27.749  33.308  0.00  0.00     0.000 C 
ATOM     18  C   UNL d   1     -51.387  27.237  33.329  0.00  0.00     0.005 A 
ENDBRANCH   4  12
TORSDOF 1
ENDMDL
