MODEL 1
REMARK VINA RESULT:      -9.4      0.000      0.000
REMARK  3 active torsions:
REMARK  status: ('A' for Active; 'I' for Inactive)
REMARK    1  A    between atoms: C_8  and  S_1 
REMARK    2  A    between atoms: N_10  and  S_1 
REMARK    3  A    between atoms: C_17  and  N_10 
ROOT
ATOM      1  C   UNL d   1      53.066  32.970  53.797  0.00  0.00     0.043 A 
ATOM      2  C   UNL d   1      53.434  33.382  54.407  0.00  0.00     0.196 A 
ATOM      3  C   UNL d   1      52.468  34.183  53.336  0.00  0.00     0.196 A 
ATOM      4  C   UNL d   1      52.583  33.370  53.261  0.00  0.00     0.042 A 
ATOM      5  C   UNL d   1      53.321  34.196  54.484  0.00  0.00     0.042 A 
ATOM      6  C   UNL d   1      52.838  34.597  53.948  0.00  0.00     0.042 A 
ATOM      7  C   UNL d   1      52.811  31.746  53.112  0.00  0.00     0.105 A 
ATOM      8  C   UNL d   1      53.180  32.158  53.722  0.00  0.00     0.016 A 
ATOM      9  C   UNL d   1      52.214  32.959  52.651  0.00  0.00     0.004 A 
ATOM     10  O   UNL d   1      53.917  32.981  54.943  0.00  0.00    -0.287 OA
ATOM     11  O   UNL d   1      51.986  34.583  52.800  0.00  0.00    -0.287 OA
ATOM     12  C   UNL d   1      52.329  32.147  52.576  0.00  0.00     0.013 A 
ATOM     13  C   UNL d   1      53.689  34.609  55.094  0.00  0.00     0.003 A 
ATOM     14  C   UNL d   1      52.724  35.410  54.023  0.00  0.00     0.003 A 
ATOM     15  C   UNL d   1      53.094  35.828  54.638  0.00  0.00     0.000 A 
ATOM     16  C   UNL d   1      53.577  35.428  55.173  0.00  0.00     0.000 A 
ENDROOT
BRANCH   7  17
ATOM     17  S   UNL d   1      52.928  30.920  53.037  0.00  0.00     0.285 S 
ATOM     18  O   UNL d   1      53.752  31.040  52.968  0.00  0.00    -0.198 OA
ATOM     19  O   UNL d   1      52.106  30.805  53.106  0.00  0.00    -0.198 OA
BRANCH  17  20
ATOM     20  N   UNL d   1      53.046  30.100  52.962  0.00  0.00    -0.158 NA
BRANCH  20  21
ATOM     21  C   UNL d   1      53.153  29.633  53.636  0.00  0.00     0.094 A 
ATOM     22  C   UNL d   1      53.913  29.371  53.836  0.00  0.00     0.020 A 
ATOM     23  C   UNL d   1      54.026  28.901  54.513  0.00  0.00     0.002 A 
ATOM     24  C   UNL d   1      53.379  28.695  54.988  0.00  0.00     0.000 A 
ATOM     25  C   UNL d   1      52.612  28.963  54.782  0.00  0.00     0.002 A 
ATOM     26  C   UNL d   1      52.508  29.428  54.109  0.00  0.00     0.020 A 
ENDBRANCH  20  21
ENDBRANCH  17  20
ENDBRANCH   7  17
TORSDOF 3
ENDMDL
MODEL 2
REMARK VINA RESULT:      -9.0      2.560      4.478
REMARK  3 active torsions:
REMARK  status: ('A' for Active; 'I' for Inactive)
REMARK    1  A    between atoms: C_8  and  S_1 
REMARK    2  A    between atoms: N_10  and  S_1 
REMARK    3  A    between atoms: C_17  and  N_10 
ROOT
ATOM      1  C   UNL d   1      52.411  33.715  53.615  0.00  0.00     0.043 A 
ATOM      2  C   UNL d   1      52.889  33.092  53.863  0.00  0.00     0.196 A 
ATOM      3  C   UNL d   1      53.258  34.640  54.300  0.00  0.00     0.196 A 
ATOM      4  C   UNL d   1      52.595  34.489  53.834  0.00  0.00     0.042 A 
ATOM      5  C   UNL d   1      53.554  33.241  54.331  0.00  0.00     0.042 A 
ATOM      6  C   UNL d   1      53.738  34.015  54.549  0.00  0.00     0.042 A 
ATOM      7  C   UNL d   1      51.272  34.188  52.902  0.00  0.00     0.105 A 
ATOM      8  C   UNL d   1      51.750  33.565  53.150  0.00  0.00     0.016 A 
ATOM      9  C   UNL d   1      52.118  35.113  53.587  0.00  0.00     0.004 A 
ATOM     10  O   UNL d   1      52.705  32.318  53.645  0.00  0.00    -0.287 OA
ATOM     11  O   UNL d   1      53.442  35.414  54.519  0.00  0.00    -0.287 OA
ATOM     12  C   UNL d   1      51.456  34.962  53.121  0.00  0.00     0.013 A 
ATOM     13  C   UNL d   1      54.032  32.618  54.579  0.00  0.00     0.003 A 
ATOM     14  C   UNL d   1      54.400  34.166  55.016  0.00  0.00     0.003 A 
ATOM     15  C   UNL d   1      54.885  33.539  55.267  0.00  0.00     0.000 A 
ATOM     16  C   UNL d   1      54.700  32.765  55.049  0.00  0.00     0.000 A 
ENDROOT
BRANCH   7  17
ATOM     17  S   UNL d   1      50.598  34.034  52.428  0.00  0.00     0.285 S 
ATOM     18  O   UNL d   1      50.190  33.747  53.097  0.00  0.00    -0.198 OA
ATOM     19  O   UNL d   1      51.010  34.320  51.763  0.00  0.00    -0.198 OA
BRANCH  17  20
ATOM     20  N   UNL d   1      49.929  33.880  51.959  0.00  0.00    -0.158 NA
BRANCH  20  21
ATOM     21  C   UNL d   1      49.321  34.438  51.907  0.00  0.00     0.094 A 
ATOM     22  C   UNL d   1      49.001  34.626  51.167  0.00  0.00     0.020 A 
ATOM     23  C   UNL d   1      48.389  35.188  51.108  0.00  0.00     0.002 A 
ATOM     24  C   UNL d   1      48.101  35.559  51.791  0.00  0.00     0.000 A 
ATOM     25  C   UNL d   1      48.429  35.365  52.538  0.00  0.00     0.002 A 
ATOM     26  C   UNL d   1      49.034  34.808  52.587  0.00  0.00     0.020 A 
ENDBRANCH  20  21
ENDBRANCH  17  20
ENDBRANCH   7  17
TORSDOF 3
ENDMDL
MODEL 3
REMARK VINA RESULT:      -8.7      3.668      5.076
REMARK  3 active torsions:
REMARK  status: ('A' for Active; 'I' for Inactive)
REMARK    1  A    between atoms: C_8  and  S_1 
REMARK    2  A    between atoms: N_10  and  S_1 
REMARK    3  A    between atoms: C_17  and  N_10 
ROOT
ATOM      1  C   UNL d   1      49.196  35.085  52.648  0.00  0.00     0.043 A 
ATOM      2  C   UNL d   1      48.795  35.591  53.160  0.00  0.00     0.196 A 
ATOM      3  C   UNL d   1      48.125  35.186  51.708  0.00  0.00     0.196 A 
ATOM      4  C   UNL d   1      48.861  34.883  51.922  0.00  0.00     0.042 A 
ATOM      5  C   UNL d   1      48.058  35.896  52.948  0.00  0.00     0.042 A 
ATOM      6  C   UNL d   1      47.723  35.694  52.221  0.00  0.00     0.042 A 
ATOM      7  C   UNL d   1      50.331  34.277  52.350  0.00  0.00     0.105 A 
ATOM      8  C   UNL d   1      49.930  34.783  52.862  0.00  0.00     0.016 A 
ATOM      9  C   UNL d   1      49.260  34.378  51.410  0.00  0.00     0.004 A 
ATOM     10  O   UNL d   1      49.130  35.793  53.887  0.00  0.00    -0.287 OA
ATOM     11  O   UNL d   1      47.790  34.984  50.982  0.00  0.00    -0.287 OA
ATOM     12  C   UNL d   1      49.996  34.075  51.624  0.00  0.00     0.013 A 
ATOM     13  C   UNL d   1      47.657  36.401  53.460  0.00  0.00     0.003 A 
ATOM     14  C   UNL d   1      46.987  35.997  52.007  0.00  0.00     0.003 A 
ATOM     15  C   UNL d   1      46.581  36.507  52.522  0.00  0.00     0.000 A 
ATOM     16  C   UNL d   1      46.916  36.709  53.248  0.00  0.00     0.000 A 
ENDROOT
BRANCH   7  17
ATOM     17  S   UNL d   1      51.079  33.969  52.569  0.00  0.00     0.285 S 
ATOM     18  O   UNL d   1      50.716  33.493  53.151  0.00  0.00    -0.198 OA
ATOM     19  O   UNL d   1      51.437  34.446  51.987  0.00  0.00    -0.198 OA
BRANCH  17  20
ATOM     20  N   UNL d   1      51.821  33.663  52.787  0.00  0.00    -0.158 NA
BRANCH  20  21
ATOM     21  C   UNL d   1      52.279  34.051  53.355  0.00  0.00     0.094 A 
ATOM     22  C   UNL d   1      52.425  33.684  54.083  0.00  0.00     0.020 A 
ATOM     23  C   UNL d   1      52.885  34.070  54.659  0.00  0.00     0.002 A 
ATOM     24  C   UNL d   1      53.199  34.822  54.504  0.00  0.00     0.000 A 
ATOM     25  C   UNL d   1      53.048  35.188  53.765  0.00  0.00     0.002 A 
ATOM     26  C   UNL d   1      52.591  34.799  53.201  0.00  0.00     0.020 A 
ENDBRANCH  20  21
ENDBRANCH  17  20
ENDBRANCH   7  17
TORSDOF 3
ENDMDL
MODEL 4
REMARK VINA RESULT:      -8.6      2.879      4.280
REMARK  3 active torsions:
REMARK  status: ('A' for Active; 'I' for Inactive)
REMARK    1  A    between atoms: C_8  and  S_1 
REMARK    2  A    between atoms: N_10  and  S_1 
REMARK    3  A    between atoms: C_17  and  N_10 
ROOT
ATOM      1  C   UNL d   1      50.288  34.418  52.223  0.00  0.00     0.043 A 
ATOM      2  C   UNL d   1      49.835  34.404  51.535  0.00  0.00     0.196 A 
ATOM      3  C   UNL d   1      49.230  35.089  52.909  0.00  0.00     0.196 A 
ATOM      4  C   UNL d   1      49.985  34.760  52.910  0.00  0.00     0.042 A 
ATOM      5  C   UNL d   1      49.077  34.733  51.532  0.00  0.00     0.042 A 
ATOM      6  C   UNL d   1      48.775  35.076  52.219  0.00  0.00     0.042 A 
ATOM      7  C   UNL d   1      51.495  34.103  52.912  0.00  0.00     0.105 A 
ATOM      8  C   UNL d   1      51.042  34.090  52.224  0.00  0.00     0.016 A 
ATOM      9  C   UNL d   1      50.437  34.774  53.598  0.00  0.00     0.004 A 
ATOM     10  O   UNL d   1      50.138  34.062  50.849  0.00  0.00    -0.287 OA
ATOM     11  O   UNL d   1      48.927  35.432  53.596  0.00  0.00    -0.287 OA
ATOM     12  C   UNL d   1      51.193  34.446  53.599  0.00  0.00     0.013 A 
ATOM     13  C   UNL d   1      48.625  34.720  50.845  0.00  0.00     0.003 A 
ATOM     14  C   UNL d   1      48.019  35.405  52.219  0.00  0.00     0.003 A 
ATOM     15  C   UNL d   1      47.560  35.392  51.526  0.00  0.00     0.000 A 
ATOM     16  C   UNL d   1      47.863  35.050  50.839  0.00  0.00     0.000 A 
ENDROOT
BRANCH   7  17
ATOM     17  S   UNL d   1      52.264  33.768  52.912  0.00  0.00     0.285 S 
ATOM     18  O   UNL d   1      52.597  34.529  52.823  0.00  0.00    -0.198 OA
ATOM     19  O   UNL d   1      51.926  33.013  53.000  0.00  0.00    -0.198 OA
BRANCH  17  20
ATOM     20  N   UNL d   1      53.027  33.438  52.911  0.00  0.00    -0.158 NA
BRANCH  20  21
ATOM     21  C   UNL d   1      53.406  33.269  53.626  0.00  0.00     0.094 A 
ATOM     22  C   UNL d   1      53.407  32.493  53.915  0.00  0.00     0.020 A 
ATOM     23  C   UNL d   1      53.787  32.316  54.634  0.00  0.00     0.002 A 
ATOM     24  C   UNL d   1      54.164  32.918  55.062  0.00  0.00     0.000 A 
ATOM     25  C   UNL d   1      54.160  33.702  54.765  0.00  0.00     0.002 A 
ATOM     26  C   UNL d   1      53.782  33.868  54.052  0.00  0.00     0.020 A 
ENDBRANCH  20  21
ENDBRANCH  17  20
ENDBRANCH   7  17
TORSDOF 3
ENDMDL
MODEL 5
REMARK VINA RESULT:      -8.5      2.055      4.698
REMARK  3 active torsions:
REMARK  status: ('A' for Active; 'I' for Inactive)
REMARK    1  A    between atoms: C_8  and  S_1 
REMARK    2  A    between atoms: N_10  and  S_1 
REMARK    3  A    between atoms: C_17  and  N_10 
ROOT
ATOM      1  C   UNL d   1      52.504  32.317  53.216  0.00  0.00     0.043 A 
ATOM      2  C   UNL d   1      52.260  31.533  53.153  0.00  0.00     0.196 A 
ATOM      3  C   UNL d   1      53.813  31.881  53.588  0.00  0.00     0.196 A 
ATOM      4  C   UNL d   1      53.281  32.491  53.434  0.00  0.00     0.042 A 
ATOM      5  C   UNL d   1      52.792  30.920  53.307  0.00  0.00     0.042 A 
ATOM      6  C   UNL d   1      53.568  31.094  53.525  0.00  0.00     0.042 A 
ATOM      7  C   UNL d   1      52.218  33.710  53.125  0.00  0.00     0.105 A 
ATOM      8  C   UNL d   1      51.973  32.926  53.062  0.00  0.00     0.016 A 
ATOM      9  C   UNL d   1      53.526  33.274  53.497  0.00  0.00     0.004 A 
ATOM     10  O   UNL d   1      51.483  31.359  52.935  0.00  0.00    -0.287 OA
ATOM     11  O   UNL d   1      54.589  32.055  53.806  0.00  0.00    -0.287 OA
ATOM     12  C   UNL d   1      52.994  33.884  53.343  0.00  0.00     0.013 A 
ATOM     13  C   UNL d   1      52.547  30.136  53.243  0.00  0.00     0.003 A 
ATOM     14  C   UNL d   1      54.100  30.484  53.679  0.00  0.00     0.003 A 
ATOM     15  C   UNL d   1      53.856  29.692  53.616  0.00  0.00     0.000 A 
ATOM     16  C   UNL d   1      53.080  29.518  53.398  0.00  0.00     0.000 A 
ENDROOT
BRANCH   7  17
ATOM     17  S   UNL d   1      51.676  34.330  52.968  0.00  0.00     0.285 S 
ATOM     18  O   UNL d   1      52.000  34.423  52.204  0.00  0.00    -0.198 OA
ATOM     19  O   UNL d   1      51.356  34.233  53.730  0.00  0.00    -0.198 OA
BRANCH  17  20
ATOM     20  N   UNL d   1      51.139  34.945  52.810  0.00  0.00    -0.158 NA
BRANCH  20  21
ATOM     21  C   UNL d   1      50.399  34.776  52.481  0.00  0.00     0.094 A 
ATOM     22  C   UNL d   1      49.716  34.875  52.938  0.00  0.00     0.020 A 
ATOM     23  C   UNL d   1      48.969  34.707  52.612  0.00  0.00     0.002 A 
ATOM     24  C   UNL d   1      48.909  34.439  51.829  0.00  0.00     0.000 A 
ATOM     25  C   UNL d   1      49.604  34.340  51.372  0.00  0.00     0.002 A 
ATOM     26  C   UNL d   1      50.340  34.509  51.702  0.00  0.00     0.020 A 
ENDBRANCH  20  21
ENDBRANCH  17  20
ENDBRANCH   7  17
TORSDOF 3
ENDMDL
MODEL 6
REMARK VINA RESULT:      -7.8      1.398      2.166
REMARK  3 active torsions:
REMARK  status: ('A' for Active; 'I' for Inactive)
REMARK    1  A    between atoms: C_8  and  S_1 
REMARK    2  A    between atoms: N_10  and  S_1 
REMARK    3  A    between atoms: C_17  and  N_10 
ROOT
ATOM      1  C   UNL d   1      51.968  33.140  53.246  0.00  0.00     0.043 A 
ATOM      2  C   UNL d   1      51.163  33.128  53.074  0.00  0.00     0.196 A 
ATOM      3  C   UNL d   1      51.931  34.565  53.336  0.00  0.00     0.196 A 
ATOM      4  C   UNL d   1      52.352  33.858  53.376  0.00  0.00     0.042 A 
ATOM      5  C   UNL d   1      50.739  33.836  53.032  0.00  0.00     0.042 A 
ATOM      6  C   UNL d   1      51.123  34.554  53.163  0.00  0.00     0.042 A 
ATOM      7  C   UNL d   1      53.194  32.445  53.458  0.00  0.00     0.105 A 
ATOM      8  C   UNL d   1      52.389  32.434  53.286  0.00  0.00     0.016 A 
ATOM      9  C   UNL d   1      53.157  33.870  53.548  0.00  0.00     0.004 A 
ATOM     10  O   UNL d   1      50.778  32.410  52.943  0.00  0.00    -0.287 OA
ATOM     11  O   UNL d   1      52.315  35.283  53.466  0.00  0.00    -0.287 OA
ATOM     12  C   UNL d   1      53.578  33.163  53.589  0.00  0.00     0.013 A 
ATOM     13  C   UNL d   1      49.933  33.825  52.860  0.00  0.00     0.003 A 
ATOM     14  C   UNL d   1      50.702  35.261  53.122  0.00  0.00     0.003 A 
ATOM     15  C   UNL d   1      49.889  35.253  52.949  0.00  0.00     0.000 A 
ATOM     16  C   UNL d   1      49.505  34.535  52.818  0.00  0.00     0.000 A 
ENDROOT
BRANCH   7  17
ATOM     17  S   UNL d   1      53.621  31.725  53.500  0.00  0.00     0.285 S 
ATOM     18  O   UNL d   1      53.549  31.632  52.673  0.00  0.00    -0.198 OA
ATOM     19  O   UNL d   1      53.691  31.823  54.324  0.00  0.00    -0.198 OA
BRANCH  17  20
ATOM     20  N   UNL d   1      54.045  31.011  53.539  0.00  0.00    -0.158 NA
BRANCH  20  21
ATOM     21  C   UNL d   1      53.653  30.305  53.718  0.00  0.00     0.094 A 
ATOM     22  C   UNL d   1      53.707  29.990  54.482  0.00  0.00     0.020 A 
ATOM     23  C   UNL d   1      53.314  29.280  54.668  0.00  0.00     0.002 A 
ATOM     24  C   UNL d   1      52.870  28.888  54.088  0.00  0.00     0.000 A 
ATOM     25  C   UNL d   1      52.819  29.212  53.316  0.00  0.00     0.002 A 
ATOM     26  C   UNL d   1      53.211  29.915  53.141  0.00  0.00     0.020 A 
ENDBRANCH  20  21
ENDBRANCH  17  20
ENDBRANCH   7  17
TORSDOF 3
ENDMDL
MODEL 7
REMARK VINA RESULT:      -6.5      9.161      9.818
REMARK  3 active torsions:
REMARK  status: ('A' for Active; 'I' for Inactive)
REMARK    1  A    between atoms: C_8  and  S_1 
REMARK    2  A    between atoms: N_10  and  S_1 
REMARK    3  A    between atoms: C_17  and  N_10 
ROOT
ATOM      1  C   UNL d   1      44.798  29.590  57.565  0.00  0.00     0.043 A 
ATOM      2  C   UNL d   1      44.721  30.317  57.944  0.00  0.00     0.196 A 
ATOM      3  C   UNL d   1      44.606  30.225  56.300  0.00  0.00     0.196 A 
ATOM      4  C   UNL d   1      44.741  29.544  56.743  0.00  0.00     0.042 A 
ATOM      5  C   UNL d   1      44.585  31.001  57.501  0.00  0.00     0.042 A 
ATOM      6  C   UNL d   1      44.528  30.955  56.679  0.00  0.00     0.042 A 
ATOM      7  C   UNL d   1      45.011  28.182  57.629  0.00  0.00     0.105 A 
ATOM      8  C   UNL d   1      44.933  28.909  58.007  0.00  0.00     0.016 A 
ATOM      9  C   UNL d   1      44.818  28.817  56.364  0.00  0.00     0.004 A 
ATOM     10  O   UNL d   1      44.778  30.363  58.765  0.00  0.00    -0.287 OA
ATOM     11  O   UNL d   1      44.549  30.179  55.478  0.00  0.00    -0.287 OA
ATOM     12  C   UNL d   1      44.953  28.136  56.807  0.00  0.00     0.013 A 
ATOM     13  C   UNL d   1      44.507  31.728  57.880  0.00  0.00     0.003 A 
ATOM     14  C   UNL d   1      44.393  31.637  56.236  0.00  0.00     0.003 A 
ATOM     15  C   UNL d   1      44.314  32.372  56.615  0.00  0.00     0.000 A 
ATOM     16  C   UNL d   1      44.371  32.418  57.437  0.00  0.00     0.000 A 
ENDROOT
BRANCH   7  17
ATOM     17  S   UNL d   1      45.148  27.489  58.081  0.00  0.00     0.285 S 
ATOM     18  O   UNL d   1      45.887  27.389  57.705  0.00  0.00    -0.198 OA
ATOM     19  O   UNL d   1      44.410  27.594  58.451  0.00  0.00    -0.198 OA
BRANCH  17  20
ATOM     20  N   UNL d   1      45.286  26.802  58.528  0.00  0.00    -0.158 NA
BRANCH  20  21
ATOM     21  C   UNL d   1      44.964  26.079  58.287  0.00  0.00     0.094 A 
ATOM     22  C   UNL d   1      44.659  25.559  58.855  0.00  0.00     0.020 A 
ATOM     23  C   UNL d   1      44.333  24.830  58.619  0.00  0.00     0.002 A 
ATOM     24  C   UNL d   1      44.314  24.625  57.816  0.00  0.00     0.000 A 
ATOM     25  C   UNL d   1      44.624  25.156  57.246  0.00  0.00     0.002 A 
ATOM     26  C   UNL d   1      44.945  25.875  57.488  0.00  0.00     0.020 A 
ENDBRANCH  20  21
ENDBRANCH  17  20
ENDBRANCH   7  17
TORSDOF 3
ENDMDL
