MODEL 1
REMARK VINA RESULT:      48.0      0.000      0.000
REMARK  6 active torsions:
REMARK  status: ('A' for Active; 'I' for Inactive)
REMARK    1  A    between atoms: C_3  and  N_1 
REMARK    2  A    between atoms: C_2  and  N_5 
REMARK    3  A    between atoms: N_6  and  C_2 
REMARK    4  A    between atoms: N_5  and  N_9 
REMARK    5  A    between atoms: C_13  and  N_6 
REMARK    6  A    between atoms: N_9  and  C_12 
ROOT
ATOM      1  N   UNL d   1      60.288  48.451  50.657  0.00  0.00    -0.276 N 
ATOM      2  H   UNL d   1      59.626  48.022  50.418  0.00  0.00     0.189 HD
ENDROOT
BRANCH   1   3
ATOM      3  C   UNL d   1      60.239  49.286  50.686  0.00  0.00     0.191 C 
ATOM      4  S   UNL d   1      60.751  49.700  51.191  0.00  0.00    -0.039 SA
BRANCH   3   5
ATOM      5  N   UNL d   1      59.699  49.705  50.226  0.00  0.00    -0.331 N 
ATOM      6  H   UNL d   1      59.986  50.142  49.587  0.00  0.00     0.168 HD
BRANCH   5   7
ATOM      7  C   UNL d   1      58.890  49.693  50.394  0.00  0.00     0.058 A 
ATOM      8  C   UNL d   1      58.640  49.706  51.185  0.00  0.00     0.017 A 
ATOM      9  C   UNL d   1      57.843  49.694  51.357  0.00  0.00     0.002 A 
ATOM     10  C   UNL d   1      57.279  49.668  50.755  0.00  0.00     0.000 A 
ATOM     11  C   UNL d   1      57.529  49.655  49.964  0.00  0.00     0.002 A 
ATOM     12  C   UNL d   1      58.337  49.667  49.796  0.00  0.00     0.017 A 
ENDBRANCH   5   7
ENDBRANCH   3   5
ENDBRANCH   1   3
BRANCH   1  13
ATOM     13  N   UNL d   1      60.973  48.059  50.860  0.00  0.00    -0.297 N 
ATOM     14  H   UNL d   1      61.463  48.363  51.473  0.00  0.00     0.187 HD
BRANCH  13  15
ATOM     15  C   UNL d   1      61.206  47.351  50.470  0.00  0.00     0.072 A 
ATOM     16  C   UNL d   1      60.728  46.683  50.543  0.00  0.00     0.020 A 
ATOM     17  C   UNL d   1      60.930  45.980  50.175  0.00  0.00     0.025 A 
ATOM     18  C   UNL d   1      61.626  45.953  49.726  0.00  0.00     0.127 A 
ATOM     19  C   UNL d   1      62.104  46.621  49.654  0.00  0.00     0.025 A 
ATOM     20  C   UNL d   1      61.885  47.317  50.030  0.00  0.00     0.020 A 
BRANCH  18  21
ATOM     21  N   UNL d   1      61.843  45.214  49.337  0.00  0.00    -0.114 N 
ATOM     22  O   UNL d   1      61.396  44.535  49.479  0.00  0.00    -0.532 OA
ATOM     23  O   UNL d   1      62.489  45.213  48.835  0.00  0.00    -0.532 OA
ENDBRANCH  18  21
ENDBRANCH  13  15
ENDBRANCH   1  13
TORSDOF 6
ENDMDL
