MODEL 1
REMARK VINA RESULT:      73.3      0.000      0.000
REMARK  8 active torsions:
REMARK  status: ('A' for Active; 'I' for Inactive)
REMARK    1  A    between atoms: C_11  and  N_1 
REMARK    2  A    between atoms: S_10  and  C_2 
REMARK    3  A    between atoms: N_8  and  C_9 
REMARK    4  A    between atoms: C_18  and  S_10 
REMARK    5  A    between atoms: C_19  and  C_11 
REMARK    6  A    between atoms: C_13  and  C_18 
REMARK    7  A    between atoms: O_20  and  C_13 
REMARK    8  A    between atoms: C_25  and  O_20 
ROOT
ATOM      1  N   UNL d   1      58.336  49.536  51.122  0.00  0.00    -0.253 N 
ATOM      2  C   UNL d   1      57.639  49.609  50.705  0.00  0.00     0.182 A 
ATOM      3  C   UNL d   1      58.326  49.518  51.956  0.00  0.00     0.268 A 
ATOM      4  C   UNL d   1      57.585  49.577  52.361  0.00  0.00     0.076 A 
ATOM      5  N   UNL d   1      56.899  49.668  51.110  0.00  0.00    -0.222 NA
ATOM      6  C   UNL d   1      56.879  49.652  51.933  0.00  0.00     0.088 A 
ATOM      7  C   UNL d   1      57.580  49.558  53.198  0.00  0.00     0.024 A 
ATOM      8  C   UNL d   1      56.855  49.616  53.589  0.00  0.00     0.065 A 
ATOM      9  O   UNL d   1      59.029  49.443  52.383  0.00  0.00    -0.267 OA
ATOM     10  C   UNL d   1      56.167  49.708  52.341  0.00  0.00     0.021 A 
ATOM     11  C   UNL d   1      56.147  49.691  53.166  0.00  0.00     0.019 A 
ENDROOT
BRANCH   1  12
ATOM     12  C   UNL d   1      59.056  49.478  50.727  0.00  0.00     0.085 C 
BRANCH  12  13
ATOM     13  C   UNL d   1      59.726  49.218  51.129  0.00  0.00     0.018 A 
ATOM     14  C   UNL d   1      59.646  48.830  51.846  0.00  0.00     0.002 A 
ATOM     15  C   UNL d   1      60.324  48.572  52.243  0.00  0.00     0.000 A 
ATOM     16  C   UNL d   1      61.067  48.704  51.918  0.00  0.00     0.000 A 
ATOM     17  C   UNL d   1      61.145  49.093  51.200  0.00  0.00     0.000 A 
ATOM     18  C   UNL d   1      60.470  49.350  50.804  0.00  0.00     0.002 A 
ENDBRANCH  12  13
ENDBRANCH   1  12
BRANCH   2  19
ATOM     19  S   UNL d   1      57.648  49.627  49.886  0.00  0.00    -0.044 SA
BRANCH  19  20
ATOM     20  C   UNL d   1      57.564  48.933  49.457  0.00  0.00     0.107 C 
BRANCH  20  21
ATOM     21  C   UNL d   1      56.898  48.448  49.562  0.00  0.00     0.307 C 
ATOM     22  O   UNL d   1      56.178  48.650  49.226  0.00  0.00    -0.258 OA
BRANCH  21  23
ATOM     23  O   UNL d   1      56.965  47.765  50.007  0.00  0.00    -0.271 OA
BRANCH  23  24
ATOM     24  C   UNL d   1      56.754  47.040  49.679  0.00  0.00     0.126 C 
ATOM     25  C   UNL d   1      56.341  47.011  48.959  0.00  0.00     0.029 C 
ENDBRANCH  23  24
ENDBRANCH  21  23
ENDBRANCH  20  21
ENDBRANCH  19  20
ENDBRANCH   2  19
BRANCH   8  26
ATOM     26  N   UNL d   1      56.839  49.599  54.412  0.00  0.00    -0.300 N 
ATOM     27  C   UNL d   1      57.540  49.550  54.838  0.00  0.00     0.107 A 
ATOM     28  C   UNL d   1      57.522  49.533  55.667  0.00  0.00     0.142 A 
ATOM     29  O   UNL d   1      56.801  49.565  56.061  0.00  0.00    -0.300 OA
ATOM     30  C   UNL d   1      56.102  49.615  55.636  0.00  0.00     0.142 A 
ATOM     31  C   UNL d   1      56.117  49.632  54.817  0.00  0.00     0.107 A 
ENDBRANCH   8  26
TORSDOF 8
ENDMDL
