MODEL 1
REMARK VINA RESULT:      40.4      0.000      0.000
REMARK  3 active torsions:
REMARK  status: ('A' for Active; 'I' for Inactive)
REMARK    1  A    between atoms: C_17  and  N_4 
REMARK    2  A    between atoms: C_11  and  C_5 
REMARK       I    between atoms: N_13  and  C_11 
REMARK    3  A    between atoms: C_21  and  N_13 
ROOT
ATOM      1  C   UNL d   1      46.125 -18.189  42.944  0.00  0.00     0.155 A 
ATOM      2  C   UNL d   1      46.121 -17.485  42.517  0.00  0.00     0.091 A 
ATOM      3  N   UNL d   1      46.259 -18.902  42.546  0.00  0.00    -0.210 NA
ATOM      4  N   UNL d   1      45.999 -18.178  43.742  0.00  0.00    -0.275 N 
ATOM      5  C   UNL d   1      45.862 -16.770  43.715  0.00  0.00     0.094 A 
ATOM      6  C   UNL d   1      45.866 -17.469  44.139  0.00  0.00     0.175 A 
ATOM      7  N   UNL d   1      46.384 -18.206  41.305  0.00  0.00    -0.258 N 
ATOM      8  C   UNL d   1      46.388 -18.919  41.737  0.00  0.00     0.152 A 
ATOM      9  C   UNL d   1      46.251 -17.489  41.690  0.00  0.00     0.269 A 
ATOM     10  C   UNL d   1      45.989 -16.770  42.904  0.00  0.00     0.016 A 
ATOM     11  C   UNL d   1      46.518 -19.624  41.353  0.00  0.00     0.035 A 
ATOM     12  N   UNL d   1      45.738 -17.460  44.954  0.00  0.00    -0.128 N 
ATOM     13  C   UNL d   1      46.511 -18.212  40.496  0.00  0.00     0.084 A 
ATOM     14  O   UNL d   1      46.245 -16.784  41.275  0.00  0.00    -0.266 OA
ATOM     15  C   UNL d   1      46.643 -18.929  40.110  0.00  0.00     0.019 A 
ATOM     16  C   UNL d   1      46.647 -19.642  40.543  0.00  0.00     0.005 A 
ATOM     17  C   UNL d   1      46.522 -20.330  41.780  0.00  0.00     0.003 C 
ENDROOT
BRANCH   5  18
ATOM     18  C   UNL d   1      45.730 -16.057  44.104  0.00  0.00     0.282 C 
ATOM     19  N   UNL d   1      45.810 -15.336  43.702  0.00  0.00    -0.208 NA
ATOM     20  O   UNL d   1      45.512 -16.056  44.911  0.00  0.00    -0.265 OA
BRANCH  19  21
ATOM     21  C   UNL d   1      45.676 -14.627  44.100  0.00  0.00     0.085 A 
ATOM     22  C   UNL d   1      44.943 -14.274  44.204  0.00  0.00     0.019 A 
ATOM     23  C   UNL d   1      45.069 -13.575  44.633  0.00  0.00     0.002 A 
ATOM     24  C   UNL d   1      45.878 -13.507  44.786  0.00  0.00     0.002 A 
ATOM     25  C   UNL d   1      46.251 -14.153  44.459  0.00  0.00     0.019 A 
ENDBRANCH  19  21
ENDBRANCH   5  18
BRANCH   4  26
ATOM     26  C   UNL d   1      46.003 -18.884  44.170  0.00  0.00     0.067 A 
ATOM     27  C   UNL d   1      46.647 -19.185  44.591  0.00  0.00     0.018 A 
ATOM     28  C   UNL d   1      46.409 -19.893  44.930  0.00  0.00     0.002 A 
ATOM     29  C   UNL d   1      45.614 -20.041  44.724  0.00  0.00     0.002 A 
ATOM     30  C   UNL d   1      45.371 -19.410  44.253  0.00  0.00     0.018 A 
ENDBRANCH   4  26
TORSDOF 3
ENDMDL
