MODEL 1
REMARK VINA RESULT:      -5.5      0.000      0.000
REMARK  2 active torsions:
REMARK  status: ('A' for Active; 'I' for Inactive)
REMARK    1  A    between atoms: S_2  and  C_1 
REMARK    2  A    between atoms: N_3  and  S_2 
ROOT
ATOM      1  C   UNL d   1     -41.464-122.740 -51.447  0.00  0.00     0.125 A 
ATOM      2  C   UNL d   1     -41.474-123.164 -50.825  0.00  0.00    -0.009 A 
ATOM      3  C   UNL d   1     -41.241-123.452 -50.975  0.00  0.00    -0.009 A 
ATOM      4  C   UNL d   1     -41.866-122.094 -51.397  0.00  0.00     0.031 A 
ATOM      5  C   UNL d   1     -41.542-123.411 -50.313  0.00  0.00    -0.007 A 
ATOM      6  C   UNL d   1     -41.864-123.101 -49.984  0.00  0.00    -0.007 A 
ATOM      7  C   UNL d   1     -42.230-122.030 -50.620  0.00  0.00     0.045 A 
ATOM      8  C   UNL d   1     -41.646-123.818 -49.492  0.00  0.00    -0.001 A 
ATOM      9  C   UNL d   1     -42.254-122.474 -49.936  0.00  0.00    -0.022 A 
ATOM     10  C   UNL d   1     -42.072-122.576 -50.228  0.00  0.00    -0.022 A 
ENDROOT
BRANCH   1  11
ATOM     11  S   UNL d   1     -41.379-122.218 -52.387  0.00  0.00     0.141 S 
ATOM     12  O   UNL d   1     -41.132-121.425 -52.164  0.00  0.00    -0.233 OA
BRANCH  11  13
ATOM     13  N   UNL d   1     -41.497-122.419 -53.223  0.00  0.00    -0.254 N 
ATOM     14  C   UNL d   1     -41.126-123.108 -53.471  0.00  0.00     0.089 A 
ATOM     15  C   UNL d   1     -41.129-123.449 -54.226  0.00  0.00     0.020 A 
ATOM     16  C   UNL d   1     -41.500-123.183 -54.901  0.00  0.00     0.002 A 
ATOM     17  C   UNL d   1     -41.965-122.510 -55.008  0.00  0.00     0.002 A 
ATOM     18  C   UNL d   1     -42.177-121.928 -54.455  0.00  0.00     0.020 A 
ATOM     19  C   UNL d   1     -41.966-121.893 -53.662  0.00  0.00     0.089 A 
ENDBRANCH  11  13
ENDBRANCH   1  11
TORSDOF 2
ENDMDL
MODEL 2
REMARK VINA RESULT:      -4.5      0.834      1.407
REMARK  2 active torsions:
REMARK  status: ('A' for Active; 'I' for Inactive)
REMARK    1  A    between atoms: S_2  and  C_1 
REMARK    2  A    between atoms: N_3  and  S_2 
ROOT
ATOM      1  C   UNL d   1     -42.014-122.763 -50.627  0.00  0.00     0.125 A 
ATOM      2  C   UNL d   1     -42.413-123.038 -50.052  0.00  0.00    -0.009 A 
ATOM      3  C   UNL d   1     -42.752-123.077 -50.259  0.00  0.00    -0.009 A 
ATOM      4  C   UNL d   1     -41.288-122.601 -50.462  0.00  0.00     0.031 A 
ATOM      5  C   UNL d   1     -42.628-123.237 -49.560  0.00  0.00    -0.007 A 
ATOM      6  C   UNL d   1     -42.242-123.238 -49.160  0.00  0.00    -0.007 A 
ATOM      7  C   UNL d   1     -41.123-122.785 -49.638  0.00  0.00     0.045 A 
ATOM      8  C   UNL d   1     -42.983-123.559 -48.771  0.00  0.00    -0.001 A 
ATOM      9  C   UNL d   1     -41.537-123.081 -49.000  0.00  0.00    -0.022 A 
ATOM     10  C   UNL d   1     -41.686-123.034 -49.323  0.00  0.00    -0.022 A 
ENDROOT
BRANCH   1  11
ATOM     11  S   UNL d   1     -41.545-122.379 -51.519  0.00  0.00     0.141 S 
ATOM     12  O   UNL d   1     -41.122-121.680 -51.249  0.00  0.00    -0.233 OA
BRANCH  11  13
ATOM     13  N   UNL d   1     -41.514-122.610 -52.355  0.00  0.00    -0.254 N 
ATOM     14  C   UNL d   1     -41.781-122.041 -52.884  0.00  0.00     0.089 A 
ATOM     15  C   UNL d   1     -41.823-122.089 -53.709  0.00  0.00     0.020 A 
ATOM     16  C   UNL d   1     -41.610-122.709 -54.194  0.00  0.00     0.002 A 
ATOM     17  C   UNL d   1     -41.300-123.444 -53.989  0.00  0.00     0.002 A 
ATOM     18  C   UNL d   1     -41.123-123.747 -53.236  0.00  0.00     0.020 A 
ATOM     19  C   UNL d   1     -41.220-123.370 -52.512  0.00  0.00     0.089 A 
ENDBRANCH  11  13
ENDBRANCH   1  11
TORSDOF 2
ENDMDL
