MODEL 1
REMARK VINA RESULT:      43.0      0.000      0.000
REMARK  3 active torsions:
REMARK  status: ('A' for Active; 'I' for Inactive)
REMARK    1  A    between atoms: C_3  and  C_1 
REMARK    2  A    between atoms: N_4  and  C_3 
REMARK    3  A    between atoms: C_8  and  C_3 
ROOT
ATOM      1  C   UNL d   1      14.380  13.622  -1.626  0.00  0.00     0.069 C 
ENDROOT
BRANCH   1   2
ATOM      2  C   UNL d   1      13.995  13.498  -2.349  0.00  0.00     0.057 A 
ATOM      3  C   UNL d   1      13.967  12.740  -2.675  0.00  0.00     0.214 A 
ATOM      4  C   UNL d   1      13.583  12.630  -3.390  0.00  0.00     0.120 A 
ATOM      5  O   UNL d   1      14.319  12.095  -2.289  0.00  0.00    -0.285 OA
ATOM      6  N   UNL d   1      13.546  11.878  -3.730  0.00  0.00    -0.241 NA
ATOM      7  C   UNL d   1      13.230  13.275  -3.777  0.00  0.00     0.021 A 
ATOM      8  C   UNL d   1      13.157  11.780  -4.452  0.00  0.00     0.099 A 
ATOM      9  C   UNL d   1      12.818  12.399  -4.822  0.00  0.00     0.021 A 
ATOM     10  C   UNL d   1      12.845  13.160  -4.497  0.00  0.00     0.003 A 
ATOM     11  C   UNL d   1      13.266  14.021  -3.442  0.00  0.00     0.002 A 
ATOM     12  C   UNL d   1      13.657  14.117  -2.720  0.00  0.00     0.005 A 
ENDBRANCH   1   2
BRANCH   1  13
ATOM     13  N   UNL d   1      14.658  14.367  -1.428  0.00  0.00    -0.301 N 
ATOM     14  C   UNL d   1      14.696  14.586  -0.637  0.00  0.00     0.100 A 
ATOM     15  C   UNL d   1      14.978  15.341  -0.433  0.00  0.00     0.100 A 
ATOM     16  N   UNL d   1      15.214  15.860  -1.010  0.00  0.00    -0.299 N 
ATOM     17  C   UNL d   1      15.176  15.642  -1.804  0.00  0.00     0.100 A 
ATOM     18  C   UNL d   1      15.490  16.599  -0.817  0.00  0.00     0.100 C 
ATOM     19  C   UNL d   1      14.900  14.901  -2.006  0.00  0.00     0.100 A 
ENDBRANCH   1  13
BRANCH   1  20
ATOM     20  C   UNL d   1      14.492  13.013  -1.095  0.00  0.00     0.035 A 
ATOM     21  C   UNL d   1      13.893  12.781  -0.595  0.00  0.00     0.100 A 
ATOM     22  N   UNL d   1      14.001  12.166  -0.056  0.00  0.00    -0.242 NA
ATOM     23  C   UNL d   1      14.732  11.779  -0.026  0.00  0.00     0.099 A 
ATOM     24  C   UNL d   1      15.337  12.009  -0.527  0.00  0.00     0.021 A 
ATOM     25  C   UNL d   1      15.223  12.627  -1.065  0.00  0.00     0.005 A 
ENDBRANCH   1  20
TORSDOF 3
ENDMDL
MODEL 2
REMARK VINA RESULT:      45.6      0.872      3.518
REMARK  3 active torsions:
REMARK  status: ('A' for Active; 'I' for Inactive)
REMARK    1  A    between atoms: C_3  and  C_1 
REMARK    2  A    between atoms: N_4  and  C_3 
REMARK    3  A    between atoms: C_8  and  C_3 
ROOT
ATOM      1  C   UNL d   1      14.241  13.235  -1.953  0.00  0.00     0.069 C 
ENDROOT
BRANCH   1   2
ATOM      2  C   UNL d   1      14.409  14.046  -1.942  0.00  0.00     0.057 A 
ATOM      3  C   UNL d   1      14.732  14.391  -1.264  0.00  0.00     0.214 A 
ATOM      4  C   UNL d   1      14.895  15.194  -1.266  0.00  0.00     0.120 A 
ATOM      5  O   UNL d   1      14.893  13.936  -0.589  0.00  0.00    -0.285 OA
ATOM      6  N   UNL d   1      15.218  15.553  -0.597  0.00  0.00    -0.241 NA
ATOM      7  C   UNL d   1      14.734  15.649  -1.942  0.00  0.00     0.021 A 
ATOM      8  C   UNL d   1      15.377  16.364  -0.611  0.00  0.00     0.099 A 
ATOM      9  C   UNL d   1      15.223  16.801  -1.260  0.00  0.00     0.021 A 
ATOM     10  C   UNL d   1      14.899  16.457  -1.940  0.00  0.00     0.003 A 
ATOM     11  C   UNL d   1      14.414  15.295  -2.607  0.00  0.00     0.002 A 
ATOM     12  C   UNL d   1      14.255  14.483  -2.590  0.00  0.00     0.005 A 
ENDBRANCH   1   2
BRANCH   1  13
ATOM     13  N   UNL d   1      13.896  12.893  -2.612  0.00  0.00    -0.301 N 
ATOM     14  C   UNL d   1      13.864  13.316  -3.315  0.00  0.00     0.100 A 
ATOM     15  C   UNL d   1      13.515  12.971  -3.986  0.00  0.00     0.100 A 
ATOM     16  N   UNL d   1      13.206  12.221  -3.948  0.00  0.00    -0.299 N 
ATOM     17  C   UNL d   1      13.237  11.795  -3.243  0.00  0.00     0.100 A 
ATOM     18  C   UNL d   1      12.864  11.879  -4.600  0.00  0.00     0.100 C 
ATOM     19  C   UNL d   1      13.580  12.133  -2.584  0.00  0.00     0.100 A 
ENDBRANCH   1  13
BRANCH   1  20
ATOM     20  C   UNL d   1      14.411  12.759  -1.313  0.00  0.00     0.035 A 
ATOM     21  C   UNL d   1      15.176  12.518  -1.166  0.00  0.00     0.100 A 
ATOM     22  N   UNL d   1      15.354  12.035  -0.521  0.00  0.00    -0.242 NA
ATOM     23  C   UNL d   1      14.744  11.794  -0.017  0.00  0.00     0.099 A 
ATOM     24  C   UNL d   1      13.975  12.034  -0.161  0.00  0.00     0.021 A 
ATOM     25  C   UNL d   1      13.802  12.517  -0.809  0.00  0.00     0.005 A 
ENDBRANCH   1  20
TORSDOF 3
ENDMDL
MODEL 3
REMARK VINA RESULT:      45.7      1.513      4.072
REMARK  3 active torsions:
REMARK  status: ('A' for Active; 'I' for Inactive)
REMARK    1  A    between atoms: C_3  and  C_1 
REMARK    2  A    between atoms: N_4  and  C_3 
REMARK    3  A    between atoms: C_8  and  C_3 
ROOT
ATOM      1  C   UNL d   1      13.604  13.415  -3.522  0.00  0.00     0.069 C 
ENDROOT
BRANCH   1   2
ATOM      2  C   UNL d   1      13.662  13.008  -2.803  0.00  0.00     0.057 A 
ATOM      3  C   UNL d   1      14.360  13.045  -2.364  0.00  0.00     0.214 A 
ATOM      4  C   UNL d   1      14.404  12.637  -1.654  0.00  0.00     0.120 A 
ATOM      5  O   UNL d   1      15.010  13.486  -2.631  0.00  0.00    -0.285 OA
ATOM      6  N   UNL d   1      15.095  12.664  -1.203  0.00  0.00    -0.241 NA
ATOM      7  C   UNL d   1      13.753  12.196  -1.387  0.00  0.00     0.021 A 
ATOM      8  C   UNL d   1      15.127  12.249  -0.489  0.00  0.00     0.099 A 
ATOM      9  C   UNL d   1      14.503  11.825  -0.233  0.00  0.00     0.021 A 
ATOM     10  C   UNL d   1      13.802  11.787  -0.672  0.00  0.00     0.003 A 
ATOM     11  C   UNL d   1      13.067  12.168  -1.832  0.00  0.00     0.002 A 
ATOM     12  C   UNL d   1      13.037  12.584  -2.546  0.00  0.00     0.005 A 
ENDBRANCH   1   2
BRANCH   1  13
ATOM     13  N   UNL d   1      13.550  13.004  -4.228  0.00  0.00    -0.301 N 
ATOM     14  C   UNL d   1      13.866  13.332  -4.911  0.00  0.00     0.100 A 
ATOM     15  C   UNL d   1      13.813  12.917  -5.629  0.00  0.00     0.100 A 
ATOM     16  N   UNL d   1      13.451  12.190  -5.657  0.00  0.00    -0.299 N 
ATOM     17  C   UNL d   1      13.133  11.859  -4.972  0.00  0.00     0.100 A 
ATOM     18  C   UNL d   1      13.395  11.779  -6.355  0.00  0.00     0.100 C 
ATOM     19  C   UNL d   1      13.185  12.267  -4.267  0.00  0.00     0.100 A 
ENDBRANCH   1  13
BRANCH   1  20
ATOM     20  C   UNL d   1      13.600  14.231  -3.548  0.00  0.00     0.035 A 
ATOM     21  C   UNL d   1      12.901  14.640  -3.638  0.00  0.00     0.100 A 
ATOM     22  N   UNL d   1      12.891  15.465  -3.665  0.00  0.00    -0.242 NA
ATOM     23  C   UNL d   1      13.603  15.880  -3.598  0.00  0.00     0.099 A 
ATOM     24  C   UNL d   1      14.307  15.472  -3.508  0.00  0.00     0.021 A 
ATOM     25  C   UNL d   1      14.312  14.645  -3.482  0.00  0.00     0.005 A 
ENDBRANCH   1  20
TORSDOF 3
ENDMDL
