MODEL 1
REMARK VINA RESULT:      87.1      0.000      0.000
REMARK  3 active torsions:
REMARK  status: ('A' for Active; 'I' for Inactive)
REMARK    1  A    between atoms: C_11  and  C_2 
REMARK    2  A    between atoms: C_12  and  C_3 
REMARK    3  A    between atoms: N_7  and  C_6 
ROOT
ATOM      1  C   UNL d   1     -58.236 -99.039 -44.210  0.00  0.00     0.078 A 
ATOM      2  C   UNL d   1     -56.831 -99.301 -44.244  0.00  0.00     0.029 A 
ATOM      3  C   UNL d   1     -56.823 -99.338 -43.416  0.00  0.00     0.102 A 
ATOM      4  C   UNL d   1     -58.224 -99.077 -43.382  0.00  0.00     0.187 A 
ATOM      5  O   UNL d   1     -57.517 -99.226 -42.995  0.00  0.00    -0.289 OA
ATOM      6  C   UNL d   1     -58.950 -98.889 -44.606  0.00  0.00     0.153 A 
ATOM      7  N   UNL d   1     -58.921 -98.964 -42.957  0.00  0.00    -0.200 NA
ATOM      8  N   UNL d   1     -59.640 -98.778 -44.172  0.00  0.00    -0.206 NA
ATOM      9  C   UNL d   1     -59.632 -98.815 -43.343  0.00  0.00     0.202 A 
ENDROOT
BRANCH   2  10
ATOM     10  C   UNL d   1     -56.134 -99.413 -44.669  0.00  0.00     0.002 A 
ATOM     11  C   UNL d   1     -55.675 -98.772 -44.877  0.00  0.00     0.000 A 
ATOM     12  C   UNL d   1     -54.976 -98.889 -45.302  0.00  0.00     0.000 A 
ATOM     13  C   UNL d   1     -54.741 -99.655 -45.517  0.00  0.00     0.000 A 
ATOM     14  C   UNL d   1     -55.209-100.300 -45.304  0.00  0.00     0.000 A 
ATOM     15  C   UNL d   1     -55.909-100.185 -44.878  0.00  0.00     0.000 A 
ENDBRANCH   2  10
BRANCH   3  16
ATOM     16  C   UNL d   1     -56.117 -99.487 -43.020  0.00  0.00     0.023 A 
ATOM     17  C   UNL d   1     -55.867-100.261 -42.927  0.00  0.00     0.002 A 
ATOM     18  C   UNL d   1     -55.162-100.411 -42.532  0.00  0.00     0.000 A 
ATOM     19  C   UNL d   1     -54.717 -99.782 -42.235  0.00  0.00     0.000 A 
ATOM     20  C   UNL d   1     -54.980 -99.007 -42.335  0.00  0.00     0.000 A 
ATOM     21  C   UNL d   1     -55.680 -98.868 -42.728  0.00  0.00     0.002 A 
ENDBRANCH   3  16
BRANCH   6  22
ATOM     22  N   UNL d   1     -58.962 -98.851 -45.430  0.00  0.00    -0.285 N 
ATOM     23  C   UNL d   1     -59.676 -98.836 -45.837  0.00  0.00     0.108 A 
ATOM     24  C   UNL d   1     -59.688 -98.798 -46.665  0.00  0.00     0.142 A 
ATOM     25  O   UNL d   1     -58.986 -98.776 -47.086  0.00  0.00    -0.300 OA
ATOM     26  C   UNL d   1     -58.258 -98.791 -46.671  0.00  0.00     0.142 A 
ATOM     27  C   UNL d   1     -58.248 -98.829 -45.851  0.00  0.00     0.108 A 
ENDBRANCH   6  22
TORSDOF 3
ENDMDL
