MODEL 1
REMARK VINA RESULT:      10.2      0.000      0.000
REMARK  6 active torsions:
REMARK  status: ('A' for Active; 'I' for Inactive)
REMARK    1  A    between atoms: C_10  and  C_2 
REMARK    2  A    between atoms: C_14  and  N_3 
REMARK    3  A    between atoms: C_15  and  C_4 
REMARK    4  A    between atoms: N_5  and  C_9 
REMARK       I    between atoms: C_7  and  N_8 
REMARK    5  A    between atoms: C_13  and  C_7 
REMARK    6  A    between atoms: N_8  and  C_10 
ROOT
ATOM      1  N   UNL d   1     -42.461-123.135 -52.197  0.00  0.00    -0.165 NA
ATOM      2  C   UNL d   1     -41.616-121.992 -52.002  0.00  0.00     0.071 A 
ATOM      3  N   UNL d   1     -42.099-122.779 -50.895  0.00  0.00    -0.228 N 
ATOM      4  C   UNL d   1     -42.019-122.494 -52.495  0.00  0.00     0.105 A 
ATOM      5  C   UNL d   1     -41.657-122.138 -51.193  0.00  0.00     0.105 A 
ENDROOT
BRANCH   2   6
ATOM      6  C   UNL d   1     -41.167-121.342 -52.304  0.00  0.00     0.168 C 
BRANCH   6   7
ATOM      7  N   UNL d   1     -41.162-120.609 -51.922  0.00  0.00    -0.362 NA
ATOM      8  C   UNL d   1     -41.157-119.883 -51.539  0.00  0.00     0.328 C 
ATOM      9  O   UNL d   1     -41.147-119.842 -50.715  0.00  0.00    -0.251 OA
BRANCH   8  10
ATOM     10  C   UNL d   1     -41.161-119.189 -51.984  0.00  0.00     0.070 A 
ATOM     11  C   UNL d   1     -41.199-119.230 -52.809  0.00  0.00     0.008 A 
ATOM     12  C   UNL d   1     -41.204-118.532 -53.261  0.00  0.00     0.024 A 
ATOM     13  C   UNL d   1     -41.170-117.805 -52.885  0.00  0.00     0.127 A 
ATOM     14  C   UNL d   1     -41.132-117.756 -52.061  0.00  0.00     0.024 A 
ATOM     15  C   UNL d   1     -41.127-118.462 -51.608  0.00  0.00     0.008 A 
BRANCH  13  16
ATOM     16  N   UNL d   1     -41.175-117.108 -53.332  0.00  0.00    -0.114 N 
ATOM     17  O   UNL d   1     -41.229-116.383 -52.943  0.00  0.00    -0.532 OA
ATOM     18  O   UNL d   1     -41.125-117.138 -54.152  0.00  0.00    -0.532 OA
ENDBRANCH  13  16
ENDBRANCH   8  10
ENDBRANCH   6   7
ENDBRANCH   2   6
BRANCH   4  19
ATOM     19  C   UNL d   1     -41.980-122.351 -53.314  0.00  0.00     0.019 A 
ATOM     20  C   UNL d   1     -41.268-122.505 -53.695  0.00  0.00     0.002 A 
ATOM     21  C   UNL d   1     -41.223-122.366 -54.506  0.00  0.00     0.000 A 
ATOM     22  C   UNL d   1     -41.900-122.072 -54.925  0.00  0.00     0.000 A 
ATOM     23  C   UNL d   1     -42.600-121.924 -54.532  0.00  0.00     0.000 A 
ATOM     24  C   UNL d   1     -42.655-122.058 -53.732  0.00  0.00     0.002 A 
ENDBRANCH   4  19
BRANCH   3  25
ATOM     25  C   UNL d   1     -42.262-123.085 -50.138  0.00  0.00     0.083 A 
ATOM     26  C   UNL d   1     -41.639-123.395 -49.658  0.00  0.00     0.019 A 
ATOM     27  C   UNL d   1     -41.795-123.700 -48.906  0.00  0.00     0.002 A 
ATOM     28  C   UNL d   1     -42.569-123.697 -48.635  0.00  0.00     0.000 A 
ATOM     29  C   UNL d   1     -43.181-123.385 -49.122  0.00  0.00     0.002 A 
ATOM     30  C   UNL d   1     -43.028-123.081 -49.871  0.00  0.00     0.019 A 
ENDBRANCH   3  25
TORSDOF 6
ENDMDL
