MODEL 1
REMARK VINA RESULT:      -8.4      0.000      0.000
REMARK  4 active torsions:
REMARK  status: ('A' for Active; 'I' for Inactive)
REMARK    1  A    between atoms: C_7  and  N_1 
REMARK    2  A    between atoms: C_6  and  C_2 
REMARK    3  A    between atoms: C_17  and  C_6 
REMARK    4  A    between atoms: C_8  and  C_7 
ROOT
ATOM      1  N   UNL d   1      53.195  33.052  53.196  0.00  0.00    -0.303 N 
ATOM      2  C   UNL d   1      51.970  33.457  52.805  0.00  0.00     0.057 A 
ATOM      3  C   UNL d   1      52.707  33.721  53.041  0.00  0.00     0.067 A 
ATOM      4  C   UNL d   1      51.986  32.631  52.810  0.00  0.00     0.022 A 
ATOM      5  C   UNL d   1      52.758  32.398  53.056  0.00  0.00     0.064 A 
ATOM      6  C   UNL d   1      52.928  34.520  53.112  0.00  0.00     0.019 C 
ATOM      7  C   UNL d   1      53.011  31.611  53.136  0.00  0.00     0.019 C 
ENDROOT
BRANCH   1   8
ATOM      8  C   UNL d   1      53.975  33.069  53.445  0.00  0.00     0.105 C 
BRANCH   8   9
ATOM      9  C   UNL d   1      54.159  33.110  54.265  0.00  0.00     0.118 A 
ATOM     10  O   UNL d   1      53.768  32.864  54.935  0.00  0.00    -0.304 OA
ATOM     11  C   UNL d   1      54.250  33.072  55.565  0.00  0.00     0.123 A 
ATOM     12  C   UNL d   1      54.907  33.428  55.317  0.00  0.00     0.029 A 
ATOM     13  C   UNL d   1      54.867  33.461  54.488  0.00  0.00     0.028 A 
ENDBRANCH   8   9
ENDBRANCH   1   8
BRANCH   2  14
ATOM     14  C   UNL d   1      51.348  33.915  52.607  0.00  0.00     0.208 C 
ATOM     15  O   UNL d   1      51.342  34.310  51.894  0.00  0.00    -0.286 OA
BRANCH  14  16
ATOM     16  C   UNL d   1      50.706  33.998  53.115  0.00  0.00     0.110 C 
ATOM     17 CL   UNL d   1      49.999  34.380  52.860  0.00  0.00    -0.078 Cl
ENDBRANCH  14  16
ENDBRANCH   2  14
TORSDOF 4
ENDMDL
MODEL 2
REMARK VINA RESULT:      -7.9      1.966      2.803
REMARK  4 active torsions:
REMARK  status: ('A' for Active; 'I' for Inactive)
REMARK    1  A    between atoms: C_7  and  N_1 
REMARK    2  A    between atoms: C_6  and  C_2 
REMARK    3  A    between atoms: C_17  and  C_6 
REMARK    4  A    between atoms: C_8  and  C_7 
ROOT
ATOM      1  N   UNL d   1      53.581  32.980  53.293  0.00  0.00    -0.303 N 
ATOM      2  C   UNL d   1      53.424  31.642  53.295  0.00  0.00     0.057 A 
ATOM      3  C   UNL d   1      53.042  32.350  53.152  0.00  0.00     0.067 A 
ATOM      4  C   UNL d   1      54.198  31.817  53.525  0.00  0.00     0.022 A 
ATOM      5  C   UNL d   1      54.276  32.656  53.517  0.00  0.00     0.064 A 
ATOM      6  C   UNL d   1      52.249  32.424  52.908  0.00  0.00     0.019 C 
ATOM      7  C   UNL d   1      54.971  33.068  53.713  0.00  0.00     0.019 C 
ENDROOT
BRANCH   1   8
ATOM      8  C   UNL d   1      53.423  33.780  53.215  0.00  0.00     0.105 C 
BRANCH   8   9
ATOM      9  C   UNL d   1      53.209  34.240  53.886  0.00  0.00     0.118 A 
ATOM     10  O   UNL d   1      53.181  34.078  54.683  0.00  0.00    -0.304 OA
ATOM     11  C   UNL d   1      52.923  34.768  55.043  0.00  0.00     0.123 A 
ATOM     12  C   UNL d   1      52.794  35.336  54.513  0.00  0.00     0.029 A 
ATOM     13  C   UNL d   1      52.971  35.016  53.767  0.00  0.00     0.028 A 
ENDBRANCH   8   9
ENDBRANCH   1   8
BRANCH   2  14
ATOM     14  C   UNL d   1      53.106  30.914  53.226  0.00  0.00     0.208 C 
ATOM     15  O   UNL d   1      52.718  30.701  52.541  0.00  0.00    -0.286 OA
BRANCH  14  16
ATOM     16  C   UNL d   1      53.164  30.368  53.839  0.00  0.00     0.110 C 
ATOM     17 CL   UNL d   1      53.013  29.549  53.705  0.00  0.00    -0.078 Cl
ENDBRANCH  14  16
ENDBRANCH   2  14
TORSDOF 4
ENDMDL
MODEL 3
REMARK VINA RESULT:      -7.8      1.653      3.406
REMARK  4 active torsions:
REMARK  status: ('A' for Active; 'I' for Inactive)
REMARK    1  A    between atoms: C_7  and  N_1 
REMARK    2  A    between atoms: C_6  and  C_2 
REMARK    3  A    between atoms: C_17  and  C_6 
REMARK    4  A    between atoms: C_8  and  C_7 
ROOT
ATOM      1  N   UNL d   1      52.779  33.460  53.165  0.00  0.00    -0.303 N 
ATOM      2  C   UNL d   1      53.613  33.509  54.222  0.00  0.00     0.057 A 
ATOM      3  C   UNL d   1      53.190  33.969  53.695  0.00  0.00     0.067 A 
ATOM      4  C   UNL d   1      53.475  32.717  54.031  0.00  0.00     0.022 A 
ATOM      5  C   UNL d   1      52.953  32.708  53.370  0.00  0.00     0.064 A 
ATOM      6  C   UNL d   1      53.174  34.801  53.693  0.00  0.00     0.019 C 
ATOM      7  C   UNL d   1      52.672  32.019  52.999  0.00  0.00     0.019 C 
ENDROOT
BRANCH   1   8
ATOM      8  C   UNL d   1      52.290  33.694  52.551  0.00  0.00     0.105 C 
BRANCH   8   9
ATOM      9  C   UNL d   1      51.475  33.851  52.691  0.00  0.00     0.118 A 
ATOM     10  O   UNL d   1      50.977  33.683  53.312  0.00  0.00    -0.304 OA
ATOM     11  C   UNL d   1      50.246  33.991  53.102  0.00  0.00     0.123 A 
ATOM     12  C   UNL d   1      50.273  34.334  52.394  0.00  0.00     0.029 A 
ATOM     13  C   UNL d   1      51.052  34.254  52.116  0.00  0.00     0.028 A 
ENDBRANCH   8   9
ENDBRANCH   1   8
BRANCH   2  14
ATOM     14  C   UNL d   1      54.076  33.778  54.814  0.00  0.00     0.208 C 
ATOM     15  O   UNL d   1      53.777  34.306  55.358  0.00  0.00    -0.286 OA
BRANCH  14  16
ATOM     16  C   UNL d   1      54.857  33.530  54.884  0.00  0.00     0.110 C 
ATOM     17 CL   UNL d   1      55.334  33.784  55.531  0.00  0.00    -0.078 Cl
ENDBRANCH  14  16
ENDBRANCH   2  14
TORSDOF 4
ENDMDL
MODEL 4
REMARK VINA RESULT:      -7.5      1.684      2.618
REMARK  4 active torsions:
REMARK  status: ('A' for Active; 'I' for Inactive)
REMARK    1  A    between atoms: C_7  and  N_1 
REMARK    2  A    between atoms: C_6  and  C_2 
REMARK    3  A    between atoms: C_17  and  C_6 
REMARK    4  A    between atoms: C_8  and  C_7 
ROOT
ATOM      1  N   UNL d   1      52.823  32.578  53.194  0.00  0.00    -0.303 N 
ATOM      2  C   UNL d   1      52.865  33.722  53.905  0.00  0.00     0.057 A 
ATOM      3  C   UNL d   1      53.327  33.128  53.585  0.00  0.00     0.067 A 
ATOM      4  C   UNL d   1      52.077  33.554  53.722  0.00  0.00     0.022 A 
ATOM      5  C   UNL d   1      52.073  32.837  53.279  0.00  0.00     0.064 A 
ATOM      6  C   UNL d   1      54.156  33.084  53.641  0.00  0.00     0.019 C 
ATOM      7  C   UNL d   1      51.388  32.469  52.983  0.00  0.00     0.019 C 
ENDROOT
BRANCH   1   8
ATOM      8  C   UNL d   1      53.060  31.900  52.800  0.00  0.00     0.105 C 
BRANCH   8   9
ATOM      9  C   UNL d   1      53.124  31.168  53.211  0.00  0.00     0.118 A 
ATOM     10  O   UNL d   1      53.334  30.977  53.973  0.00  0.00    -0.304 OA
ATOM     11  C   UNL d   1      53.284  30.159  54.021  0.00  0.00     0.123 A 
ATOM     12  C   UNL d   1      53.057  29.847  53.335  0.00  0.00     0.029 A 
ATOM     13  C   UNL d   1      52.950  30.477  52.804  0.00  0.00     0.028 A 
ENDBRANCH   8   9
ENDBRANCH   1   8
BRANCH   2  14
ATOM     14  C   UNL d   1      53.129  34.350  54.320  0.00  0.00     0.208 C 
ATOM     15  O   UNL d   1      53.504  34.239  55.035  0.00  0.00    -0.286 OA
BRANCH  14  16
ATOM     16  C   UNL d   1      53.029  35.116  54.035  0.00  0.00     0.110 C 
ATOM     17 CL   UNL d   1      53.101  35.781  54.549  0.00  0.00    -0.078 Cl
ENDBRANCH  14  16
ENDBRANCH   2  14
TORSDOF 4
ENDMDL
