MODEL 1
REMARK VINA RESULT:      43.0      0.000      0.000
REMARK  4 active torsions:
REMARK  status: ('A' for Active; 'I' for Inactive)
REMARK    1  A    between atoms: C_10  and  N_1 
REMARK       I    between atoms: C_6  and  N_9 
REMARK    2  A    between atoms: C_8  and  C_6 
REMARK    3  A    between atoms: N_9  and  C_12 
REMARK    4  A    between atoms: C_12  and  C_10 
ROOT
ATOM      1  C   UNL d   1     -56.542 -99.014 -44.136  0.00  0.00     0.101 C 
ENDROOT
BRANCH   1   2
ATOM      2  N   UNL d   1     -56.080 -99.535 -44.579  0.00  0.00    -0.304 N 
ATOM      3  C   UNL d   1     -55.917 -99.472 -45.388  0.00  0.00     0.064 A 
ATOM      4  C   UNL d   1     -55.438-100.105 -45.603  0.00  0.00     0.019 A 
ATOM      5  C   UNL d   1     -56.189 -98.877 -45.891  0.00  0.00     0.019 C 
ATOM      6  C   UNL d   1     -55.299-100.565 -44.933  0.00  0.00     0.018 A 
ATOM      7  C   UNL d   1     -55.695-100.215 -44.298  0.00  0.00     0.064 A 
ATOM      8  C   UNL d   1     -54.868-101.254 -44.807  0.00  0.00     0.002 A 
ATOM      9  C   UNL d   1     -55.663-100.547 -43.547  0.00  0.00     0.018 A 
ATOM     10  C   UNL d   1     -55.232-101.236 -43.421  0.00  0.00     0.002 A 
ATOM     11  C   UNL d   1     -54.827-101.601 -44.052  0.00  0.00     0.000 A 
ENDBRANCH   1   2
BRANCH   1  12
ATOM     12  C   UNL d   1     -57.337 -99.183 -44.002  0.00  0.00     0.121 C 
BRANCH  12  13
ATOM     13  N   UNL d   1     -57.887 -99.076 -44.608  0.00  0.00    -0.205 NA
ATOM     14  C   UNL d   1     -58.680 -98.940 -44.430  0.00  0.00     0.279 C 
ATOM     15  O   UNL d   1     -59.230 -98.833 -45.036  0.00  0.00    -0.265 OA
BRANCH  14  16
ATOM     16  C   UNL d   1     -58.924 -98.913 -43.638  0.00  0.00     0.058 A 
ATOM     17  C   UNL d   1     -59.706 -99.003 -43.462  0.00  0.00     0.005 A 
ATOM     18  C   UNL d   1     -59.956 -98.977 -42.675  0.00  0.00     0.000 A 
ATOM     19  C   UNL d   1     -59.422 -98.859 -42.063  0.00  0.00     0.000 A 
ATOM     20  C   UNL d   1     -58.611 -98.765 -42.250  0.00  0.00     0.000 A 
ATOM     21  C   UNL d   1     -58.366 -98.793 -43.042  0.00  0.00     0.005 A 
ENDBRANCH  14  16
ENDBRANCH  12  13
ENDBRANCH   1  12
TORSDOF 4
ENDMDL
