MODEL 1
REMARK VINA RESULT:      -7.2      0.000      0.000
REMARK  7 active torsions:
REMARK  status: ('A' for Active; 'I' for Inactive)
REMARK    1  A    between atoms: N_6  and  C_1 
REMARK    2  A    between atoms: S_9  and  C_3 
REMARK       I    between atoms: C_7  and  N_6 
REMARK    3  A    between atoms: C_14  and  C_7 
REMARK    4  A    between atoms: C_8  and  C_13 
REMARK       I    between atoms: N_10  and  C_8 
REMARK    5  A    between atoms: C_13  and  S_9 
REMARK    6  A    between atoms: C_15  and  N_10 
REMARK    7  A    between atoms: C_22  and  C_14 
ROOT
ATOM      1  C   UNL d   1     -46.007  12.881  22.989  0.00  0.00     0.219 A 
ATOM      2  S   UNL d   1     -46.522  13.168  22.421  0.00  0.00    -0.019 SA
ATOM      3  C   UNL d   1     -47.000  13.691  22.761  0.00  0.00     0.165 A 
ATOM      4  N   UNL d   1     -46.206  13.267  23.698  0.00  0.00    -0.120 NA
ATOM      5  N   UNL d   1     -46.803  13.754  23.561  0.00  0.00    -0.133 NA
ENDROOT
BRANCH   3   6
ATOM      6  S   UNL d   1     -47.594  14.081  22.304  0.00  0.00    -0.054 SA
BRANCH   6   7
ATOM      7  C   UNL d   1     -48.391  13.997  22.506  0.00  0.00     0.100 C 
BRANCH   7   8
ATOM      8  C   UNL d   1     -48.916  14.626  22.413  0.00  0.00     0.286 C 
ATOM      9  N   UNL d   1     -49.708  14.512  22.499  0.00  0.00    -0.208 NA
ATOM     10  O   UNL d   1     -48.622  15.399  22.226  0.00  0.00    -0.265 OA
BRANCH   9  11
ATOM     11  C   UNL d   1     -50.000  13.732  22.688  0.00  0.00     0.085 A 
ATOM     12  C   UNL d   1     -50.123  13.218  22.064  0.00  0.00     0.021 A 
ATOM     13  C   UNL d   1     -50.404  12.462  22.233  0.00  0.00     0.031 A 
ATOM     14  C   UNL d   1     -50.557  12.224  22.991  0.00  0.00     0.140 A 
ATOM     15  C   UNL d   1     -50.429  12.757  23.630  0.00  0.00     0.031 A 
ATOM     16  F   UNL d   1     -50.815  11.530  23.141  0.00  0.00    -0.204 F 
ATOM     17  C   UNL d   1     -50.146  13.520  23.471  0.00  0.00     0.021 A 
ENDBRANCH   9  11
ENDBRANCH   7   8
ENDBRANCH   6   7
ENDBRANCH   3   6
BRANCH   1  18
ATOM     18  N   UNL d   1     -45.395  12.319  22.915  0.00  0.00    -0.181 NA
ATOM     19  C   UNL d   1     -45.106  11.559  23.154  0.00  0.00     0.281 C 
ATOM     20  O   UNL d   1     -45.551  11.110  23.681  0.00  0.00    -0.265 OA
BRANCH  19  21
ATOM     21  C   UNL d   1     -44.412  11.176  22.928  0.00  0.00     0.063 C 
BRANCH  21  22
ATOM     22  C   UNL d   1     -44.144  10.474  23.424  0.00  0.00     0.005 C 
ATOM     23  C   UNL d   1     -43.325  10.431  23.588  0.00  0.00     0.000 C 
ATOM     24  C   UNL d   1     -44.509   9.960  23.695  0.00  0.00     0.000 C 
ENDBRANCH  21  22
ENDBRANCH  19  21
ENDBRANCH   1  18
TORSDOF 7
ENDMDL
MODEL 2
REMARK VINA RESULT:      -7.1      2.013      2.303
REMARK  7 active torsions:
REMARK  status: ('A' for Active; 'I' for Inactive)
REMARK    1  A    between atoms: N_6  and  C_1 
REMARK    2  A    between atoms: S_9  and  C_3 
REMARK       I    between atoms: C_7  and  N_6 
REMARK    3  A    between atoms: C_14  and  C_7 
REMARK    4  A    between atoms: C_8  and  C_13 
REMARK       I    between atoms: N_10  and  C_8 
REMARK    5  A    between atoms: C_13  and  S_9 
REMARK    6  A    between atoms: C_15  and  N_10 
REMARK    7  A    between atoms: C_22  and  C_14 
ROOT
ATOM      1  C   UNL d   1     -45.955  13.130  22.563  0.00  0.00     0.219 A 
ATOM      2  S   UNL d   1     -46.457  12.493  22.668  0.00  0.00    -0.019 SA
ATOM      3  C   UNL d   1     -47.009  12.695  23.190  0.00  0.00     0.165 A 
ATOM      4  N   UNL d   1     -46.241  13.734  23.058  0.00  0.00    -0.120 NA
ATOM      5  N   UNL d   1     -46.874  13.472  23.435  0.00  0.00    -0.133 NA
ENDROOT
BRANCH   3   6
ATOM      6  S   UNL d   1     -47.608  12.140  23.408  0.00  0.00    -0.054 SA
BRANCH   6   7
ATOM      7  C   UNL d   1     -48.395  12.278  23.195  0.00  0.00     0.100 C 
BRANCH   7   8
ATOM      8  C   UNL d   1     -48.973  11.705  23.331  0.00  0.00     0.286 C 
ATOM      9  N   UNL d   1     -49.737  11.839  23.120  0.00  0.00    -0.208 NA
ATOM     10  O   UNL d   1     -48.762  10.969  23.696  0.00  0.00    -0.265 OA
BRANCH   9  11
ATOM     11  C   UNL d   1     -49.945  12.582  22.752  0.00  0.00     0.085 A 
ATOM     12  C   UNL d   1     -49.945  12.607  21.935  0.00  0.00     0.021 A 
ATOM     13  C   UNL d   1     -50.144  13.318  21.568  0.00  0.00     0.031 A 
ATOM     14  C   UNL d   1     -50.334  13.978  21.995  0.00  0.00     0.140 A 
ATOM     15  C   UNL d   1     -50.332  13.947  22.836  0.00  0.00     0.031 A 
ATOM     16  F   UNL d   1     -50.515  14.628  21.655  0.00  0.00    -0.204 F 
ATOM     17  C   UNL d   1     -50.134  13.237  23.215  0.00  0.00     0.021 A 
ENDBRANCH   9  11
ENDBRANCH   7   8
ENDBRANCH   6   7
ENDBRANCH   3   6
BRANCH   1  18
ATOM     18  N   UNL d   1     -45.285  13.202  22.072  0.00  0.00    -0.181 NA
ATOM     19  C   UNL d   1     -44.526  12.886  21.867  0.00  0.00     0.281 C 
ATOM     20  O   UNL d   1     -44.246  12.227  22.273  0.00  0.00    -0.265 OA
BRANCH  19  21
ATOM     21  C   UNL d   1     -43.994  13.150  21.295  0.00  0.00     0.063 C 
BRANCH  21  22
ATOM     22  C   UNL d   1     -43.137  12.884  21.371  0.00  0.00     0.005 C 
ATOM     23  C   UNL d   1     -42.566  13.373  21.005  0.00  0.00     0.000 C 
ATOM     24  C   UNL d   1     -42.871  12.335  21.685  0.00  0.00     0.000 C 
ENDBRANCH  21  22
ENDBRANCH  19  21
ENDBRANCH   1  18
TORSDOF 7
ENDMDL
MODEL 3
REMARK VINA RESULT:      -7.0      1.334      1.630
REMARK  7 active torsions:
REMARK  status: ('A' for Active; 'I' for Inactive)
REMARK    1  A    between atoms: N_6  and  C_1 
REMARK    2  A    between atoms: S_9  and  C_3 
REMARK       I    between atoms: C_7  and  N_6 
REMARK    3  A    between atoms: C_14  and  C_7 
REMARK    4  A    between atoms: C_8  and  C_13 
REMARK       I    between atoms: N_10  and  C_8 
REMARK    5  A    between atoms: C_13  and  S_9 
REMARK    6  A    between atoms: C_15  and  N_10 
REMARK    7  A    between atoms: C_22  and  C_14 
ROOT
ATOM      1  C   UNL d   1     -46.075  13.327  22.589  0.00  0.00     0.219 A 
ATOM      2  S   UNL d   1     -46.647  13.854  22.335  0.00  0.00    -0.019 SA
ATOM      3  C   UNL d   1     -47.129  14.006  22.937  0.00  0.00     0.165 A 
ATOM      4  N   UNL d   1     -46.244  13.170  23.388  0.00  0.00    -0.120 NA
ATOM      5  N   UNL d   1     -46.877  13.578  23.597  0.00  0.00    -0.133 NA
ENDROOT
BRANCH   3   6
ATOM      6  S   UNL d   1     -47.778  14.538  22.834  0.00  0.00    -0.054 SA
BRANCH   6   7
ATOM      7  C   UNL d   1     -48.553  14.253  22.861  0.00  0.00     0.100 C 
BRANCH   7   8
ATOM      8  C   UNL d   1     -49.193  14.769  22.790  0.00  0.00     0.286 C 
ATOM      9  N   UNL d   1     -49.946  14.486  22.788  0.00  0.00    -0.208 NA
ATOM     10  O   UNL d   1     -49.058  15.603  22.717  0.00  0.00    -0.265 OA
BRANCH   9  11
ATOM     11  C   UNL d   1     -50.077  13.645  22.862  0.00  0.00     0.085 A 
ATOM     12  C   UNL d   1     -50.211  13.352  23.613  0.00  0.00     0.021 A 
ATOM     13  C   UNL d   1     -50.339  12.542  23.697  0.00  0.00     0.031 A 
ATOM     14  C   UNL d   1     -50.332  12.042  23.060  0.00  0.00     0.140 A 
ATOM     15  C   UNL d   1     -50.193  12.349  22.289  0.00  0.00     0.031 A 
ATOM     16  F   UNL d   1     -50.450  11.300  23.142  0.00  0.00    -0.204 F 
ATOM     17  C   UNL d   1     -50.064  13.162  22.193  0.00  0.00     0.021 A 
ENDBRANCH   9  11
ENDBRANCH   7   8
ENDBRANCH   6   7
ENDBRANCH   3   6
BRANCH   1  18
ATOM     18  N   UNL d   1     -45.438  12.991  22.169  0.00  0.00    -0.181 NA
ATOM     19  C   UNL d   1     -44.657  13.111  21.862  0.00  0.00     0.281 C 
ATOM     20  O   UNL d   1     -44.289  13.837  21.980  0.00  0.00    -0.265 OA
BRANCH  19  21
ATOM     21  C   UNL d   1     -44.182  12.585  21.440  0.00  0.00     0.063 C 
BRANCH  21  22
ATOM     22  C   UNL d   1     -43.297  12.599  21.608  0.00  0.00     0.005 C 
ATOM     23  C   UNL d   1     -43.012  12.005  22.124  0.00  0.00     0.000 C 
ATOM     24  C   UNL d   1     -42.810  13.024  21.379  0.00  0.00     0.000 C 
ENDBRANCH  21  22
ENDBRANCH  19  21
ENDBRANCH   1  18
TORSDOF 7
ENDMDL
MODEL 4
REMARK VINA RESULT:      -4.7      5.295      7.540
REMARK  7 active torsions:
REMARK  status: ('A' for Active; 'I' for Inactive)
REMARK    1  A    between atoms: N_6  and  C_1 
REMARK    2  A    between atoms: S_9  and  C_3 
REMARK       I    between atoms: C_7  and  N_6 
REMARK    3  A    between atoms: C_14  and  C_7 
REMARK    4  A    between atoms: C_8  and  C_13 
REMARK       I    between atoms: N_10  and  C_8 
REMARK    5  A    between atoms: C_13  and  S_9 
REMARK    6  A    between atoms: C_15  and  N_10 
REMARK    7  A    between atoms: C_22  and  C_14 
ROOT
ATOM      1  C   UNL d   1     -43.436  13.197  21.291  0.00  0.00     0.219 A 
ATOM      2  S   UNL d   1     -42.847  13.730  21.485  0.00  0.00    -0.019 SA
ATOM      3  C   UNL d   1     -42.168  13.470  21.185  0.00  0.00     0.165 A 
ATOM      4  N   UNL d   1     -43.067  12.594  20.852  0.00  0.00    -0.120 NA
ATOM      5  N   UNL d   1     -42.305  12.759  20.788  0.00  0.00    -0.133 NA
ENDROOT
BRANCH   3   6
ATOM      6  S   UNL d   1     -41.458  13.913  21.299  0.00  0.00    -0.054 SA
BRANCH   6   7
ATOM      7  C   UNL d   1     -40.980  14.102  20.652  0.00  0.00     0.100 C 
BRANCH   7   8
ATOM      8  C   UNL d   1     -40.197  14.338  20.762  0.00  0.00     0.286 C 
ATOM      9  N   UNL d   1     -39.776  14.651  20.152  0.00  0.00    -0.208 NA
ATOM     10  O   UNL d   1     -39.832  14.251  21.523  0.00  0.00    -0.265 OA
BRANCH   9  11
ATOM     11  C   UNL d   1     -40.148  14.736  19.388  0.00  0.00     0.085 A 
ATOM     12  C   UNL d   1     -40.516  15.449  19.229  0.00  0.00     0.021 A 
ATOM     13  C   UNL d   1     -40.879  15.544  18.495  0.00  0.00     0.031 A 
ATOM     14  C   UNL d   1     -40.878  14.954  17.940  0.00  0.00     0.140 A 
ATOM     15  C   UNL d   1     -40.498  14.222  18.109  0.00  0.00     0.031 A 
ATOM     16  F   UNL d   1     -41.212  15.045  17.268  0.00  0.00    -0.204 F 
ATOM     17  C   UNL d   1     -40.130  14.116  18.844  0.00  0.00     0.021 A 
ENDBRANCH   9  11
ENDBRANCH   7   8
ENDBRANCH   6   7
ENDBRANCH   3   6
BRANCH   1  18
ATOM     18  N   UNL d   1     -44.249  13.215  21.474  0.00  0.00    -0.181 NA
ATOM     19  C   UNL d   1     -44.862  12.923  21.982  0.00  0.00     0.281 C 
ATOM     20  O   UNL d   1     -44.667  12.391  22.578  0.00  0.00    -0.265 OA
BRANCH  19  21
ATOM     21  C   UNL d   1     -45.668  13.099  21.971  0.00  0.00     0.063 C 
BRANCH  21  22
ATOM     22  C   UNL d   1     -46.099  13.116  22.762  0.00  0.00     0.005 C 
ATOM     23  C   UNL d   1     -46.393  13.861  23.004  0.00  0.00     0.000 C 
ATOM     24  C   UNL d   1     -46.227  12.610  23.206  0.00  0.00     0.000 C 
ENDBRANCH  21  22
ENDBRANCH  19  21
ENDBRANCH   1  18
TORSDOF 7
ENDMDL
MODEL 5
REMARK VINA RESULT:      -4.2      3.125      3.767
REMARK  7 active torsions:
REMARK  status: ('A' for Active; 'I' for Inactive)
REMARK    1  A    between atoms: N_6  and  C_1 
REMARK    2  A    between atoms: S_9  and  C_3 
REMARK       I    between atoms: C_7  and  N_6 
REMARK    3  A    between atoms: C_14  and  C_7 
REMARK    4  A    between atoms: C_8  and  C_13 
REMARK       I    between atoms: N_10  and  C_8 
REMARK    5  A    between atoms: C_13  and  S_9 
REMARK    6  A    between atoms: C_15  and  N_10 
REMARK    7  A    between atoms: C_22  and  C_14 
ROOT
ATOM      1  C   UNL d   1     -43.296  12.871  21.493  0.00  0.00     0.219 A 
ATOM      2  S   UNL d   1     -43.972  13.329  21.446  0.00  0.00    -0.019 SA
ATOM      3  C   UNL d   1     -44.559  12.942  21.798  0.00  0.00     0.165 A 
ATOM      4  N   UNL d   1     -43.514  12.178  21.899  0.00  0.00    -0.120 NA
ATOM      5  N   UNL d   1     -44.273  12.221  22.082  0.00  0.00    -0.133 NA
ENDROOT
BRANCH   3   6
ATOM      6  S   UNL d   1     -45.330  13.286  21.834  0.00  0.00    -0.054 SA
BRANCH   6   7
ATOM      7  C   UNL d   1     -45.822  13.129  22.479  0.00  0.00     0.100 C 
BRANCH   7   8
ATOM      8  C   UNL d   1     -46.249  13.737  22.839  0.00  0.00     0.286 C 
ATOM      9  N   UNL d   1     -46.964  13.588  23.177  0.00  0.00    -0.208 NA
ATOM     10  O   UNL d   1     -45.934  14.524  22.854  0.00  0.00    -0.265 OA
BRANCH   9  11
ATOM     11  C   UNL d   1     -47.277  12.793  23.158  0.00  0.00     0.085 A 
ATOM     12  C   UNL d   1     -47.841  12.627  22.591  0.00  0.00     0.021 A 
ATOM     13  C   UNL d   1     -48.151  11.863  22.563  0.00  0.00     0.031 A 
ATOM     14  C   UNL d   1     -47.910  11.287  23.078  0.00  0.00     0.140 A 
ATOM     15  C   UNL d   1     -47.329  11.464  23.661  0.00  0.00     0.031 A 
ATOM     16  F   UNL d   1     -48.197  10.589  23.049  0.00  0.00    -0.204 F 
ATOM     17  C   UNL d   1     -47.011  12.228  23.698  0.00  0.00     0.021 A 
ENDBRANCH   9  11
ENDBRANCH   7   8
ENDBRANCH   6   7
ENDBRANCH   3   6
BRANCH   1  18
ATOM     18  N   UNL d   1     -42.528  13.027  21.208  0.00  0.00    -0.181 NA
ATOM     19  C   UNL d   1     -41.935  13.617  21.072  0.00  0.00     0.281 C 
ATOM     20  O   UNL d   1     -42.094  14.398  21.277  0.00  0.00    -0.265 OA
BRANCH  19  21
ATOM     21  C   UNL d   1     -41.181  13.526  20.748  0.00  0.00     0.063 C 
BRANCH  21  22
ATOM     22  C   UNL d   1     -40.710  14.275  20.578  0.00  0.00     0.005 C 
ATOM     23  C   UNL d   1     -40.153  14.499  21.161  0.00  0.00     0.000 C 
ATOM     24  C   UNL d   1     -40.734  14.699  20.040  0.00  0.00     0.000 C 
ENDBRANCH  21  22
ENDBRANCH  19  21
ENDBRANCH   1  18
TORSDOF 7
ENDMDL
