MODEL 1
REMARK VINA RESULT:      -6.2      0.000      0.000
REMARK  4 active torsions:
REMARK  status: ('A' for Active; 'I' for Inactive)
REMARK    1  A    between atoms: C_5  and  C_3 
REMARK    2  A    between atoms: S_6  and  C_4 
REMARK    3  A    between atoms: C_10  and  S_6 
REMARK    4  A    between atoms: C_12  and  C_10 
ROOT
ATOM      1  N   UNL d   1     -41.823-123.534 -50.971  0.00  0.00    -0.148 NA
ATOM      2  N   UNL d   1     -41.698-123.397 -51.774  0.00  0.00    -0.141 NA
ATOM      3  C   UNL d   1     -41.667-122.935 -50.418  0.00  0.00     0.104 A 
ATOM      4  C   UNL d   1     -41.419-122.673 -52.036  0.00  0.00     0.132 A 
ATOM      5  C   UNL d   1     -41.385-122.203 -50.679  0.00  0.00     0.023 A 
ATOM      6  C   UNL d   1     -41.261-122.070 -51.482  0.00  0.00     0.029 A 
ENDROOT
BRANCH   4   7
ATOM      7  S   UNL d   1     -41.293-122.537 -52.840  0.00  0.00    -0.066 SA
BRANCH   7   8
ATOM      8  C   UNL d   1     -41.805-122.852 -53.399  0.00  0.00     0.037 C 
BRANCH   8   9
ATOM      9  C   UNL d   1     -41.816-122.538 -54.164  0.00  0.00     0.006 A 
ATOM     10  C   UNL d   1     -42.412-122.015 -54.383  0.00  0.00     0.001 A 
ATOM     11  C   UNL d   1     -42.430-121.701 -55.138  0.00  0.00     0.000 A 
ATOM     12  C   UNL d   1     -41.838-121.916 -55.682  0.00  0.00     0.000 A 
ATOM     13  C   UNL d   1     -41.249-122.436 -55.457  0.00  0.00     0.000 A 
ATOM     14  C   UNL d   1     -41.241-122.747 -54.692  0.00  0.00     0.001 A 
ENDBRANCH   8   9
ENDBRANCH   7   8
ENDBRANCH   4   7
BRANCH   3  15
ATOM     15  C   UNL d   1     -41.792-123.072 -49.614  0.00  0.00     0.039 A 
ATOM     16  C   UNL d   1     -41.182-123.347 -49.152  0.00  0.00     0.101 A 
ATOM     17  N   UNL d   1     -41.302-123.484 -48.354  0.00  0.00    -0.242 NA
ATOM     18  C   UNL d   1     -42.049-123.340 -48.018  0.00  0.00     0.099 A 
ATOM     19  C   UNL d   1     -42.660-123.064 -48.486  0.00  0.00     0.021 A 
ATOM     20  C   UNL d   1     -42.544-122.924 -49.292  0.00  0.00     0.005 A 
ENDBRANCH   3  15
TORSDOF 4
ENDMDL
MODEL 2
REMARK VINA RESULT:      -3.9      1.256      5.139
REMARK  4 active torsions:
REMARK  status: ('A' for Active; 'I' for Inactive)
REMARK    1  A    between atoms: C_5  and  C_3 
REMARK    2  A    between atoms: S_6  and  C_4 
REMARK    3  A    between atoms: C_10  and  S_6 
REMARK    4  A    between atoms: C_12  and  C_10 
ROOT
ATOM      1  N   UNL d   1     -42.396-122.021 -52.938  0.00  0.00    -0.148 NA
ATOM      2  N   UNL d   1     -42.361-122.058 -52.115  0.00  0.00    -0.141 NA
ATOM      3  C   UNL d   1     -41.818-122.401 -53.396  0.00  0.00     0.104 A 
ATOM      4  C   UNL d   1     -41.759-122.469 -51.740  0.00  0.00     0.132 A 
ATOM      5  C   UNL d   1     -41.209-122.817 -53.020  0.00  0.00     0.023 A 
ATOM      6  C   UNL d   1     -41.178-122.852 -52.199  0.00  0.00     0.029 A 
ENDROOT
BRANCH   4   7
ATOM      7  S   UNL d   1     -41.725-122.505 -50.917  0.00  0.00    -0.066 SA
BRANCH   7   8
ATOM      8  C   UNL d   1     -41.706-123.231 -50.534  0.00  0.00     0.037 C 
BRANCH   8   9
ATOM      9  C   UNL d   1     -41.854-123.268 -49.721  0.00  0.00     0.006 A 
ATOM     10  C   UNL d   1     -41.271-123.547 -49.212  0.00  0.00     0.001 A 
ATOM     11  C   UNL d   1     -41.409-123.586 -48.407  0.00  0.00     0.000 A 
ATOM     12  C   UNL d   1     -42.146-123.340 -48.108  0.00  0.00     0.000 A 
ATOM     13  C   UNL d   1     -42.720-123.064 -48.621  0.00  0.00     0.000 A 
ATOM     14  C   UNL d   1     -42.569-123.029 -49.433  0.00  0.00     0.001 A 
ENDBRANCH   8   9
ENDBRANCH   7   8
ENDBRANCH   4   7
BRANCH   3  15
ATOM     15  C   UNL d   1     -41.853-122.365 -54.219  0.00  0.00     0.039 A 
ATOM     16  C   UNL d   1     -42.551-122.535 -54.601  0.00  0.00     0.101 A 
ATOM     17  N   UNL d   1     -42.590-122.500 -55.418  0.00  0.00    -0.242 NA
ATOM     18  C   UNL d   1     -41.914-122.289 -55.855  0.00  0.00     0.099 A 
ATOM     19  C   UNL d   1     -41.214-122.119 -55.467  0.00  0.00     0.021 A 
ATOM     20  C   UNL d   1     -41.170-122.153 -54.643  0.00  0.00     0.005 A 
ENDBRANCH   3  15
TORSDOF 4
ENDMDL
