MODEL 1
REMARK VINA RESULT:       1.2      0.000      0.000
REMARK  9 active torsions:
REMARK  status: ('A' for Active; 'I' for Inactive)
REMARK    1  A    between atoms: C_17  and  N_4 
REMARK    2  A    between atoms: S_16  and  C_7 
REMARK    3  A    between atoms: S_15  and  C_8 
REMARK    4  A    between atoms: C_11  and  C_19 
REMARK    5  A    between atoms: C_22  and  S_15 
REMARK    6  A    between atoms: C_19  and  S_16 
REMARK    7  A    between atoms: C_20  and  C_22 
REMARK    8  A    between atoms: O_25  and  C_20 
REMARK    9  A    between atoms: C_29  and  O_25 
ROOT
ATOM      1  N   UNL d   1      31.974  17.409 -23.442  0.00  0.00    -0.269 N 
ATOM      2  C   UNL d   1      31.677  16.628 -23.406  0.00  0.00     0.201 A 
ATOM      3  C   UNL d   1      32.536  17.496 -22.852  0.00  0.00     0.177 A 
ATOM      4  N   UNL d   1      32.060  16.233 -22.789  0.00  0.00    -0.121 NA
ATOM      5  N   UNL d   1      32.585  16.777 -22.456  0.00  0.00    -0.127 NA
ENDROOT
BRANCH   3   6
ATOM      6  C   UNL d   1      32.919  18.211 -22.760  0.00  0.00     0.078 C 
BRANCH   6   7
ATOM      7  S   UNL d   1      33.241  18.429 -22.026  0.00  0.00    -0.045 SA
BRANCH   7   8
ATOM      8  C   UNL d   1      33.240  19.228 -21.764  0.00  0.00     0.198 A 
ATOM      9  N   UNL d   1      33.239  19.851 -22.324  0.00  0.00    -0.183 NA
ATOM     10  C   UNL d   1      33.238  20.630 -22.077  0.00  0.00     0.283 A 
ATOM     11  C   UNL d   1      33.238  20.823 -21.278  0.00  0.00     0.082 A 
ATOM     12  O   UNL d   1      33.237  21.249 -22.664  0.00  0.00    -0.265 OA
ATOM     13  C   UNL d   1      33.240  20.224 -20.712  0.00  0.00     0.117 A 
ATOM     14  C   UNL d   1      33.238  21.531 -20.885  0.00  0.00     0.013 A 
ATOM     15  N   UNL d   1      33.241  19.430 -20.934  0.00  0.00    -0.214 NA
ATOM     16  S   UNL d   1      33.240  20.558 -19.973  0.00  0.00    -0.068 SA
ATOM     17  C   UNL d   1      33.239  21.373 -20.081  0.00  0.00     0.031 A 
ATOM     18  C   UNL d   1      33.238  22.106 -19.700  0.00  0.00     0.006 A 
ATOM     19  C   UNL d   1      33.237  22.709 -20.235  0.00  0.00     0.001 A 
ATOM     20  C   UNL d   1      33.237  22.345 -20.993  0.00  0.00     0.001 A 
ENDBRANCH   7   8
ENDBRANCH   6   7
ENDBRANCH   3   6
BRANCH   1  21
ATOM     21  C   UNL d   1      31.720  17.971 -23.993  0.00  0.00     0.067 A 
ATOM     22  C   UNL d   1      32.261  18.323 -24.507  0.00  0.00     0.018 A 
ATOM     23  C   UNL d   1      31.975  18.898 -25.066  0.00  0.00     0.002 A 
ATOM     24  C   UNL d   1      31.184  19.101 -25.097  0.00  0.00     0.000 A 
ATOM     25  C   UNL d   1      30.636  18.745 -24.577  0.00  0.00     0.002 A 
ATOM     26  C   UNL d   1      30.899  18.184 -24.028  0.00  0.00     0.018 A 
ENDBRANCH   1  21
BRANCH   2  27
ATOM     27  S   UNL d   1      31.084  16.257 -23.897  0.00  0.00    -0.042 SA
BRANCH  27  28
ATOM     28  C   UNL d   1      30.549  15.744 -23.542  0.00  0.00     0.107 C 
BRANCH  28  29
ATOM     29  C   UNL d   1      29.800  15.615 -23.885  0.00  0.00     0.307 C 
ATOM     30  O   UNL d   1      29.730  15.457 -24.694  0.00  0.00    -0.258 OA
BRANCH  29  31
ATOM     31  O   UNL d   1      29.136  15.648 -23.399  0.00  0.00    -0.271 OA
BRANCH  31  32
ATOM     32  C   UNL d   1      28.376  15.778 -23.705  0.00  0.00     0.126 C 
ATOM     33  C   UNL d   1      27.780  16.125 -23.254  0.00  0.00     0.029 C 
ENDBRANCH  31  32
ENDBRANCH  29  31
ENDBRANCH  28  29
ENDBRANCH  27  28
ENDBRANCH   2  27
TORSDOF 9
ENDMDL
MODEL 2
REMARK VINA RESULT:       2.4      1.549      5.889
REMARK  9 active torsions:
REMARK  status: ('A' for Active; 'I' for Inactive)
REMARK    1  A    between atoms: C_17  and  N_4 
REMARK    2  A    between atoms: S_16  and  C_7 
REMARK    3  A    between atoms: S_15  and  C_8 
REMARK    4  A    between atoms: C_11  and  C_19 
REMARK    5  A    between atoms: C_22  and  S_15 
REMARK    6  A    between atoms: C_19  and  S_16 
REMARK    7  A    between atoms: C_20  and  C_22 
REMARK    8  A    between atoms: O_25  and  C_20 
REMARK    9  A    between atoms: C_29  and  O_25 
ROOT
ATOM      1  N   UNL d   1      33.221  20.507 -22.731  0.00  0.00    -0.269 N 
ATOM      2  C   UNL d   1      33.227  21.319 -22.931  0.00  0.00     0.201 A 
ATOM      3  C   UNL d   1      33.207  20.073 -23.426  0.00  0.00     0.177 A 
ATOM      4  N   UNL d   1      33.217  21.384 -23.754  0.00  0.00    -0.121 NA
ATOM      5  N   UNL d   1      33.205  20.611 -24.048  0.00  0.00    -0.127 NA
ENDROOT
BRANCH   3   6
ATOM      6  C   UNL d   1      33.199  19.258 -23.395  0.00  0.00     0.078 C 
BRANCH   6   7
ATOM      7  S   UNL d   1      33.014  18.809 -24.068  0.00  0.00    -0.045 SA
BRANCH   7   8
ATOM      8  C   UNL d   1      32.451  18.184 -24.041  0.00  0.00     0.198 A 
ATOM      9  N   UNL d   1      32.674  17.434 -23.741  0.00  0.00    -0.183 NA
ATOM     10  C   UNL d   1      32.132  16.823 -23.711  0.00  0.00     0.283 A 
ATOM     11  C   UNL d   1      31.360  16.926 -23.973  0.00  0.00     0.082 A 
ATOM     12  O   UNL d   1      32.380  16.067 -23.402  0.00  0.00    -0.265 OA
ATOM     13  C   UNL d   1      31.121  17.656 -24.271  0.00  0.00     0.117 A 
ATOM     14  C   UNL d   1      30.722  16.428 -24.007  0.00  0.00     0.013 A 
ATOM     15  N   UNL d   1      31.648  18.290 -24.312  0.00  0.00    -0.214 NA
ATOM     16  S   UNL d   1      30.342  17.612 -24.488  0.00  0.00    -0.068 SA
ATOM     17  C   UNL d   1      30.093  16.846 -24.324  0.00  0.00     0.031 A 
ATOM     18  C   UNL d   1      29.454  16.322 -24.350  0.00  0.00     0.006 A 
ATOM     19  C   UNL d   1      29.664  15.598 -24.063  0.00  0.00     0.001 A 
ATOM     20  C   UNL d   1      30.473  15.664 -23.843  0.00  0.00     0.001 A 
ENDBRANCH   7   8
ENDBRANCH   6   7
ENDBRANCH   3   6
BRANCH   1  21
ATOM     21  C   UNL d   1      33.227  20.226 -21.954  0.00  0.00     0.067 A 
ATOM     22  C   UNL d   1      33.233  19.415 -21.804  0.00  0.00     0.018 A 
ATOM     23  C   UNL d   1      33.240  19.150 -20.995  0.00  0.00     0.002 A 
ATOM     24  C   UNL d   1      33.241  19.684 -20.376  0.00  0.00     0.000 A 
ATOM     25  C   UNL d   1      33.234  20.505 -20.526  0.00  0.00     0.002 A 
ATOM     26  C   UNL d   1      33.228  20.778 -21.308  0.00  0.00     0.018 A 
ENDBRANCH   1  21
BRANCH   2  27
ATOM     27  S   UNL d   1      33.240  21.998 -22.412  0.00  0.00    -0.042 SA
BRANCH  27  28
ATOM     28  C   UNL d   1      32.637  22.552 -22.478  0.00  0.00     0.107 C 
BRANCH  28  29
ATOM     29  C   UNL d   1      32.565  23.165 -21.917  0.00  0.00     0.307 C 
ATOM     30  O   UNL d   1      33.218  23.633 -21.721  0.00  0.00    -0.258 OA
BRANCH  29  31
ATOM     31  O   UNL d   1      31.831  23.291 -21.567  0.00  0.00    -0.271 OA
BRANCH  31  32
ATOM     32  C   UNL d   1      31.754  23.696 -20.846  0.00  0.00     0.126 C 
ATOM     33  C   UNL d   1      31.135  23.540 -20.325  0.00  0.00     0.029 C 
ENDBRANCH  31  32
ENDBRANCH  29  31
ENDBRANCH  28  29
ENDBRANCH  27  28
ENDBRANCH   2  27
TORSDOF 9
ENDMDL
