MODEL 1
REMARK VINA RESULT:      -7.8      0.000      0.000
REMARK  4 active torsions:
REMARK  status: ('A' for Active; 'I' for Inactive)
REMARK    1  A    between atoms: C_2  and  S_1 
REMARK    2  A    between atoms: N_3  and  S_1 
REMARK    3  A    between atoms: O_13  and  C_7 
REMARK    4  A    between atoms: O_14  and  C_11 
ROOT
ATOM      1  S   UNL d   1     -48.555  13.518  22.516  0.00  0.00     0.273 S 
ATOM      2  O   UNL d   1     -47.948  13.464  21.956  0.00  0.00    -0.200 OA
ATOM      3  O   UNL d   1     -48.423  13.263  23.293  0.00  0.00    -0.200 OA
ENDROOT
BRANCH   1   4
ATOM      4  C   UNL d   1     -47.824  13.215  22.727  0.00  0.00     0.128 A 
ATOM      5  C   UNL d   1     -47.127  13.609  22.529  0.00  0.00     0.039 A 
ATOM      6  C   UNL d   1     -46.392  13.303  22.742  0.00  0.00     0.095 A 
ATOM      7  C   UNL d   1     -46.361  12.596  23.157  0.00  0.00     0.026 A 
ATOM      8  C   UNL d   1     -47.044  12.197  23.358  0.00  0.00     0.027 A 
ATOM      9  C   UNL d   1     -47.778  12.503  23.144  0.00  0.00     0.106 A 
BRANCH   6  10
ATOM     10  O   UNL d   1     -45.702  13.706  22.539  0.00  0.00    -0.328 OA
ATOM     11  C   UNL d   1     -45.072  13.299  22.200  0.00  0.00     0.181 C 
ENDBRANCH   6  10
BRANCH   9  12
ATOM     12  O   UNL d   1     -48.468  12.105  23.345  0.00  0.00    -0.327 OA
ATOM     13  C   UNL d   1     -48.421  11.359  23.698  0.00  0.00     0.181 C 
ENDBRANCH   9  12
ENDBRANCH   1   4
BRANCH   1  14
ATOM     14  N   UNL d   1     -49.293  13.826  22.293  0.00  0.00    -0.232 N 
ATOM     15  C   UNL d   1     -49.601  14.474  22.704  0.00  0.00     0.075 A 
ATOM     16  C   UNL d   1     -50.339  14.782  22.481  0.00  0.00     0.018 A 
ATOM     17  C   UNL d   1     -49.183  14.815  23.328  0.00  0.00     0.020 C 
ATOM     18  C   UNL d   1     -50.755  14.441  21.857  0.00  0.00     0.003 A 
ATOM     19  C   UNL d   1     -50.440  13.788  21.448  0.00  0.00     0.018 A 
ATOM     20  C   UNL d   1     -49.704  13.479  21.667  0.00  0.00     0.075 A 
ATOM     21  C   UNL d   1     -49.390  12.835  21.266  0.00  0.00     0.020 C 
ENDBRANCH   1  14
TORSDOF 4
ENDMDL
MODEL 2
REMARK VINA RESULT:      -7.6      0.883      1.945
REMARK  4 active torsions:
REMARK  status: ('A' for Active; 'I' for Inactive)
REMARK    1  A    between atoms: C_2  and  S_1 
REMARK    2  A    between atoms: N_3  and  S_1 
REMARK    3  A    between atoms: O_13  and  C_7 
REMARK    4  A    between atoms: O_14  and  C_11 
ROOT
ATOM      1  S   UNL d   1     -48.727  13.078  22.680  0.00  0.00     0.273 S 
ATOM      2  O   UNL d   1     -48.584  12.639  23.367  0.00  0.00    -0.200 OA
ATOM      3  O   UNL d   1     -48.091  13.367  22.234  0.00  0.00    -0.200 OA
ENDROOT
BRANCH   1   4
ATOM      4  C   UNL d   1     -47.959  12.928  22.921  0.00  0.00     0.128 A 
ATOM      5  C   UNL d   1     -47.735  12.180  23.189  0.00  0.00     0.039 A 
ATOM      6  C   UNL d   1     -46.962  12.031  23.431  0.00  0.00     0.095 A 
ATOM      7  C   UNL d   1     -46.412  12.639  23.403  0.00  0.00     0.026 A 
ATOM      8  C   UNL d   1     -46.622  13.383  23.140  0.00  0.00     0.027 A 
ATOM      9  C   UNL d   1     -47.395  13.531  22.898  0.00  0.00     0.106 A 
BRANCH   6  10
ATOM     10  O   UNL d   1     -46.750  11.281  23.697  0.00  0.00    -0.328 OA
ATOM     11  C   UNL d   1     -45.961  11.044  23.680  0.00  0.00     0.181 C 
ENDBRANCH   6  10
BRANCH   9  12
ATOM     12  O   UNL d   1     -47.610  14.278  22.632  0.00  0.00    -0.327 OA
ATOM     13  C   UNL d   1     -47.052  14.888  22.631  0.00  0.00     0.181 C 
ENDBRANCH   9  12
ENDBRANCH   1   4
BRANCH   1  14
ATOM     14  N   UNL d   1     -49.509  13.225  22.443  0.00  0.00    -0.232 N 
ATOM     15  C   UNL d   1     -49.759  12.974  21.695  0.00  0.00     0.075 A 
ATOM     16  C   UNL d   1     -50.540  13.122  21.458  0.00  0.00     0.018 A 
ATOM     17  C   UNL d   1     -49.241  12.581  21.187  0.00  0.00     0.020 C 
ATOM     18  C   UNL d   1     -51.057  13.514  21.967  0.00  0.00     0.003 A 
ATOM     19  C   UNL d   1     -50.799  13.764  22.718  0.00  0.00     0.018 A 
ATOM     20  C   UNL d   1     -50.020  13.618  22.957  0.00  0.00     0.075 A 
ATOM     21  C   UNL d   1     -49.763  13.863  23.697  0.00  0.00     0.020 C 
ENDBRANCH   1  14
TORSDOF 4
ENDMDL
MODEL 3
REMARK VINA RESULT:      -6.7      1.416      2.057
REMARK  4 active torsions:
REMARK  status: ('A' for Active; 'I' for Inactive)
REMARK    1  A    between atoms: C_2  and  S_1 
REMARK    2  A    between atoms: N_3  and  S_1 
REMARK    3  A    between atoms: O_13  and  C_7 
REMARK    4  A    between atoms: O_14  and  C_11 
ROOT
ATOM      1  S   UNL d   1     -49.325  13.750  23.035  0.00  0.00     0.273 S 
ATOM      2  O   UNL d   1     -48.789  13.459  23.594  0.00  0.00    -0.200 OA
ATOM      3  O   UNL d   1     -49.425  13.354  22.314  0.00  0.00    -0.200 OA
ENDROOT
BRANCH   1   4
ATOM      4  C   UNL d   1     -48.893  13.072  22.879  0.00  0.00     0.128 A 
ATOM      5  C   UNL d   1     -48.264  12.847  23.364  0.00  0.00     0.039 A 
ATOM      6  C   UNL d   1     -47.831  12.164  23.206  0.00  0.00     0.095 A 
ATOM      7  C   UNL d   1     -48.032  11.706  22.556  0.00  0.00     0.026 A 
ATOM      8  C   UNL d   1     -48.652  11.919  22.069  0.00  0.00     0.027 A 
ATOM      9  C   UNL d   1     -49.085  12.602  22.228  0.00  0.00     0.106 A 
BRANCH   6  10
ATOM     10  O   UNL d   1     -47.205  11.949  23.698  0.00  0.00    -0.328 OA
ATOM     11  C   UNL d   1     -46.730  11.305  23.504  0.00  0.00     0.181 C 
ENDBRANCH   6  10
BRANCH   9  12
ATOM     12  O   UNL d   1     -49.709  12.819  21.740  0.00  0.00    -0.327 OA
ATOM     13  C   UNL d   1     -49.876  12.370  21.066  0.00  0.00     0.181 C 
ENDBRANCH   9  12
ENDBRANCH   1   4
BRANCH   1  14
ATOM     14  N   UNL d   1     -49.758  14.438  23.200  0.00  0.00    -0.232 N 
ATOM     15  C   UNL d   1     -50.513  14.371  23.532  0.00  0.00     0.075 A 
ATOM     16  C   UNL d   1     -50.946  15.059  23.697  0.00  0.00     0.018 A 
ATOM     17  C   UNL d   1     -50.836  13.630  23.698  0.00  0.00     0.020 C 
ATOM     18  C   UNL d   1     -50.622  15.798  23.530  0.00  0.00     0.003 A 
ATOM     19  C   UNL d   1     -49.862  15.859  23.197  0.00  0.00     0.018 A 
ATOM     20  C   UNL d   1     -49.428  15.175  23.031  0.00  0.00     0.075 A 
ATOM     21  C   UNL d   1     -48.678  15.231  22.702  0.00  0.00     0.020 C 
ENDBRANCH   1  14
TORSDOF 4
ENDMDL
MODEL 4
REMARK VINA RESULT:      -6.2      1.117      3.605
REMARK  4 active torsions:
REMARK  status: ('A' for Active; 'I' for Inactive)
REMARK    1  A    between atoms: C_2  and  S_1 
REMARK    2  A    between atoms: N_3  and  S_1 
REMARK    3  A    between atoms: O_13  and  C_7 
REMARK    4  A    between atoms: O_14  and  C_11 
ROOT
ATOM      1  S   UNL d   1     -47.823  12.902  22.567  0.00  0.00     0.273 S 
ATOM      2  O   UNL d   1     -48.033  12.815  21.772  0.00  0.00    -0.200 OA
ATOM      3  O   UNL d   1     -48.287  13.372  23.068  0.00  0.00    -0.200 OA
ENDROOT
BRANCH   1   4
ATOM      4  C   UNL d   1     -48.487  13.279  22.272  0.00  0.00     0.128 A 
ATOM      5  C   UNL d   1     -49.027  12.878  21.794  0.00  0.00     0.039 A 
ATOM      6  C   UNL d   1     -49.695  13.259  21.498  0.00  0.00     0.095 A 
ATOM      7  C   UNL d   1     -49.819  14.048  21.684  0.00  0.00     0.026 A 
ATOM      8  C   UNL d   1     -49.291  14.455  22.157  0.00  0.00     0.027 A 
ATOM      9  C   UNL d   1     -48.624  14.074  22.452  0.00  0.00     0.106 A 
BRANCH   6  10
ATOM     10  O   UNL d   1     -50.228  12.848  21.022  0.00  0.00    -0.328 OA
ATOM     11  C   UNL d   1     -51.024  12.810  21.230  0.00  0.00     0.181 C 
ENDBRANCH   6  10
BRANCH   9  12
ATOM     12  O   UNL d   1     -48.091  14.479  22.927  0.00  0.00    -0.327 OA
ATOM     13  C   UNL d   1     -48.196  15.289  23.059  0.00  0.00     0.181 C 
ENDBRANCH   9  12
ENDBRANCH   1   4
BRANCH   1  14
ATOM     14  N   UNL d   1     -47.148  12.516  22.859  0.00  0.00    -0.232 N 
ATOM     15  C   UNL d   1     -47.237  11.903  23.407  0.00  0.00     0.075 A 
ATOM     16  C   UNL d   1     -46.563  11.518  23.698  0.00  0.00     0.018 A 
ATOM     17  C   UNL d   1     -47.987  11.674  23.665  0.00  0.00     0.020 C 
ATOM     18  C   UNL d   1     -45.815  11.748  23.440  0.00  0.00     0.003 A 
ATOM     19  C   UNL d   1     -45.732  12.365  22.887  0.00  0.00     0.018 A 
ATOM     20  C   UNL d   1     -46.402  12.752  22.595  0.00  0.00     0.075 A 
ATOM     21  C   UNL d   1     -46.325  13.361  22.051  0.00  0.00     0.020 C 
ENDBRANCH   1  14
TORSDOF 4
ENDMDL
MODEL 5
REMARK VINA RESULT:      -5.9      8.340      9.630
REMARK  4 active torsions:
REMARK  status: ('A' for Active; 'I' for Inactive)
REMARK    1  A    between atoms: C_2  and  S_1 
REMARK    2  A    between atoms: N_3  and  S_1 
REMARK    3  A    between atoms: O_13  and  C_7 
REMARK    4  A    between atoms: O_14  and  C_11 
ROOT
ATOM      1  S   UNL d   1     -39.954  15.086  19.355  0.00  0.00     0.273 S 
ATOM      2  O   UNL d   1     -40.241  15.732  18.924  0.00  0.00    -0.200 OA
ATOM      3  O   UNL d   1     -39.844  14.355  18.979  0.00  0.00    -0.200 OA
ENDROOT
BRANCH   1   4
ATOM      4  C   UNL d   1     -40.129  15.006  18.559  0.00  0.00     0.128 A 
ATOM      5  C   UNL d   1     -40.677  15.502  18.192  0.00  0.00     0.039 A 
ATOM      6  C   UNL d   1     -40.852  15.421  17.391  0.00  0.00     0.095 A 
ATOM      7  C   UNL d   1     -40.473  14.836  16.958  0.00  0.00     0.026 A 
ATOM      8  C   UNL d   1     -39.929  14.339  17.311  0.00  0.00     0.027 A 
ATOM      9  C   UNL d   1     -39.755  14.421  18.111  0.00  0.00     0.106 A 
BRANCH   6  10
ATOM     10  O   UNL d   1     -41.401  15.922  17.035  0.00  0.00    -0.328 OA
ATOM     11  C   UNL d   1     -41.669  15.766  16.271  0.00  0.00     0.181 C 
ENDBRANCH   6  10
BRANCH   9  12
ATOM     12  O   UNL d   1     -39.208  13.924  18.469  0.00  0.00    -0.327 OA
ATOM     13  C   UNL d   1     -38.806  13.363  18.014  0.00  0.00     0.181 C 
ENDBRANCH   9  12
ENDBRANCH   1   4
BRANCH   1  14
ATOM     14  N   UNL d   1     -39.779  15.175  20.161  0.00  0.00    -0.232 N 
ATOM     15  C   UNL d   1     -39.102  15.594  20.385  0.00  0.00     0.075 A 
ATOM     16  C   UNL d   1     -38.928  15.683  21.191  0.00  0.00     0.018 A 
ATOM     17  C   UNL d   1     -38.602  15.922  19.816  0.00  0.00     0.020 C 
ATOM     18  C   UNL d   1     -39.427  15.355  21.758  0.00  0.00     0.003 A 
ATOM     19  C   UNL d   1     -40.107  14.935  21.527  0.00  0.00     0.018 A 
ATOM     20  C   UNL d   1     -40.284  14.844  20.724  0.00  0.00     0.075 A 
ATOM     21  C   UNL d   1     -40.954  14.430  20.492  0.00  0.00     0.020 C 
ENDBRANCH   1  14
TORSDOF 4
ENDMDL
MODEL 6
REMARK VINA RESULT:      -5.4      9.183     10.660
REMARK  4 active torsions:
REMARK  status: ('A' for Active; 'I' for Inactive)
REMARK    1  A    between atoms: C_2  and  S_1 
REMARK    2  A    between atoms: N_3  and  S_1 
REMARK    3  A    between atoms: O_13  and  C_7 
REMARK    4  A    between atoms: O_14  and  C_11 
ROOT
ATOM      1  S   UNL d   1     -39.298  14.888  17.432  0.00  0.00     0.273 S 
ATOM      2  O   UNL d   1     -38.952  15.440  17.943  0.00  0.00    -0.200 OA
ATOM      3  O   UNL d   1     -40.095  14.681  17.525  0.00  0.00    -0.200 OA
ENDROOT
BRANCH   1   4
ATOM      4  C   UNL d   1     -39.740  15.231  18.029  0.00  0.00     0.128 A 
ATOM      5  C   UNL d   1     -39.423  15.345  18.782  0.00  0.00     0.039 A 
ATOM      6  C   UNL d   1     -39.870  15.691  19.382  0.00  0.00     0.095 A 
ATOM      7  C   UNL d   1     -40.640  15.922  19.222  0.00  0.00     0.026 A 
ATOM      8  C   UNL d   1     -40.965  15.814  18.480  0.00  0.00     0.027 A 
ATOM      9  C   UNL d   1     -40.518  15.469  17.881  0.00  0.00     0.106 A 
BRANCH   6  10
ATOM     10  O   UNL d   1     -39.542  15.800  20.131  0.00  0.00    -0.328 OA
ATOM     11  C   UNL d   1     -40.022  15.767  20.800  0.00  0.00     0.181 C 
ENDBRANCH   6  10
BRANCH   9  12
ATOM     12  O   UNL d   1     -40.841  15.358  17.134  0.00  0.00    -0.327 OA
ATOM     13  C   UNL d   1     -41.584  15.675  16.960  0.00  0.00     0.181 C 
ENDBRANCH   9  12
ENDBRANCH   1   4
BRANCH   1  14
ATOM     14  N   UNL d   1     -38.842  14.545  16.829  0.00  0.00    -0.232 N 
ATOM     15  C   UNL d   1     -38.742  13.724  16.814  0.00  0.00     0.075 A 
ATOM     16  C   UNL d   1     -38.286  13.382  16.212  0.00  0.00     0.018 A 
ATOM     17  C   UNL d   1     -39.089  13.247  17.390  0.00  0.00     0.020 C 
ATOM     18  C   UNL d   1     -37.940  13.859  15.637  0.00  0.00     0.003 A 
ATOM     19  C   UNL d   1     -38.044  14.685  15.657  0.00  0.00     0.018 A 
ATOM     20  C   UNL d   1     -38.497  15.029  16.257  0.00  0.00     0.075 A 
ATOM     21  C   UNL d   1     -38.603  15.843  16.280  0.00  0.00     0.020 C 
ENDBRANCH   1  14
TORSDOF 4
ENDMDL
