MODEL 1
REMARK VINA RESULT:      47.5      0.000      0.000
REMARK  4 active torsions:
REMARK  status: ('A' for Active; 'I' for Inactive)
REMARK    1  A    between atoms: N_10  and  C_2 
REMARK    2  A    between atoms: N_11  and  C_6 
REMARK    3  A    between atoms: C_12  and  N_11 
REMARK    4  A    between atoms: O_19  and  C_15 
ROOT
ATOM      1  N   UNL d   1     -58.865 -98.829 -44.552  0.00  0.00    -0.041 NA
ATOM      2  C   UNL d   1     -58.322 -98.845 -43.989  0.00  0.00     0.738 A 
ATOM      3  C   UNL d   1     -58.647 -98.805 -45.304  0.00  0.00     0.187 A 
ATOM      4  N   UNL d   1     -57.557 -98.836 -44.177  0.00  0.00    -0.041 NA
ATOM      5  C   UNL d   1     -57.883 -98.796 -45.496  0.00  0.00     0.094 A 
ATOM      6  C   UNL d   1     -57.331 -98.812 -44.930  0.00  0.00     0.185 A 
ATOM      7  N   UNL d   1     -58.975 -98.765 -46.633  0.00  0.00    -0.162 NA
ATOM      8  N   UNL d   1     -59.198 -98.789 -45.869  0.00  0.00    -0.208 N 
ATOM      9  C   UNL d   1     -58.210 -98.756 -46.822  0.00  0.00     0.127 A 
ATOM     10  C   UNL d   1     -59.959 -98.798 -45.681  0.00  0.00     0.123 C 
ENDROOT
BRANCH   6  11
ATOM     11  N   UNL d   1     -56.533 -98.803 -45.119  0.00  0.00    -0.226 NA
BRANCH  11  12
ATOM     12  C   UNL d   1     -55.991 -99.207 -44.652  0.00  0.00     0.085 A 
ATOM     13  C   UNL d   1     -55.782 -99.994 -44.824  0.00  0.00     0.043 A 
ATOM     14  C   UNL d   1     -55.239-100.401 -44.356  0.00  0.00     0.096 A 
ATOM     15  C   UNL d   1     -54.896-100.018 -43.702  0.00  0.00     0.024 A 
ATOM     16  C   UNL d   1     -55.099 -99.242 -43.527  0.00  0.00     0.004 A 
ATOM     17  C   UNL d   1     -55.647 -98.834 -44.002  0.00  0.00     0.019 A 
BRANCH  14  18
ATOM     18  O   UNL d   1     -55.034-101.181 -44.530  0.00  0.00    -0.328 OA
ATOM     19  C   UNL d   1     -54.998-101.878 -44.083  0.00  0.00     0.181 C 
ENDBRANCH  14  18
ENDBRANCH  11  12
ENDBRANCH   6  11
BRANCH   2  20
ATOM     20  N   UNL d   1     -58.549 -98.871 -43.190  0.00  0.00    -0.133 N 
ATOM     21  C   UNL d   1     -57.990 -98.758 -42.596  0.00  0.00     0.125 A 
ATOM     22  C   UNL d   1     -58.218 -98.784 -41.802  0.00  0.00     0.142 A 
ATOM     23  O   UNL d   1     -59.013 -98.924 -41.600  0.00  0.00    -0.300 OA
ATOM     24  C   UNL d   1     -59.576 -99.038 -42.197  0.00  0.00     0.142 A 
ATOM     25  C   UNL d   1     -59.345 -99.012 -42.992  0.00  0.00     0.125 A 
ENDBRANCH   2  20
TORSDOF 4
ENDMDL
