MODEL 1
REMARK VINA RESULT:      -3.6      0.000      0.000
REMARK  4 active torsions:
REMARK  status: ('A' for Active; 'I' for Inactive)
REMARK    1  A    between atoms: C_2  and  S_1 
REMARK    2  A    between atoms: C_4  and  S_1 
REMARK    3  A    between atoms: C_3  and  C_2 
REMARK    4  A    between atoms: C_8  and  C_3 
ROOT
ATOM      1  S   UNL d   1      33.206  20.673 -21.796  0.00  0.00     0.214 S 
ATOM      2  O   UNL d   1      33.239  20.147 -21.162  0.00  0.00    -0.217 OA
ATOM      3  O   UNL d   1      33.174  21.194 -22.413  0.00  0.00    -0.217 OA
ENDROOT
BRANCH   1   4
ATOM      4  C   UNL d   1      33.241  21.289 -21.263  0.00  0.00     0.141 C 
BRANCH   4   5
ATOM      5  C   UNL d   1      32.553  21.609 -20.969  0.00  0.00     0.207 C 
ATOM      6  O   UNL d   1      31.873  21.222 -21.142  0.00  0.00    -0.286 OA
BRANCH   5   7
ATOM      7  C   UNL d   1      32.563  22.298 -20.516  0.00  0.00     0.040 A 
ATOM      8  C   UNL d   1      32.111  22.947 -20.754  0.00  0.00     0.003 A 
ATOM      9  C   UNL d   1      32.120  23.636 -20.302  0.00  0.00     0.000 A 
ATOM     10  C   UNL d   1      32.560  23.702 -19.623  0.00  0.00     0.000 A 
ATOM     11  C   UNL d   1      33.008  23.057 -19.388  0.00  0.00     0.000 A 
ATOM     12  C   UNL d   1      32.999  22.367 -19.841  0.00  0.00     0.003 A 
ENDBRANCH   5   7
ENDBRANCH   4   5
ENDBRANCH   1   4
BRANCH   1  13
ATOM     13  C   UNL d   1      33.173  20.052 -22.311  0.00  0.00     0.088 A 
ATOM     14  C   UNL d   1      33.200  20.193 -23.120  0.00  0.00     0.011 A 
ATOM     15  C   UNL d   1      33.168  19.578 -23.673  0.00  0.00     0.001 A 
ATOM     16  C   UNL d   1      33.105  18.789 -23.372  0.00  0.00     0.000 A 
ATOM     17  C   UNL d   1      33.080  18.661 -22.582  0.00  0.00     0.001 A 
ATOM     18  C   UNL d   1      33.069  18.133 -23.898  0.00  0.00     0.000 C 
ATOM     19  C   UNL d   1      33.113  19.287 -22.042  0.00  0.00     0.011 A 
ENDBRANCH   1  13
TORSDOF 4
ENDMDL
MODEL 2
REMARK VINA RESULT:      -2.8      1.166      4.521
REMARK  4 active torsions:
REMARK  status: ('A' for Active; 'I' for Inactive)
REMARK    1  A    between atoms: C_2  and  S_1 
REMARK    2  A    between atoms: C_4  and  S_1 
REMARK    3  A    between atoms: C_3  and  C_2 
REMARK    4  A    between atoms: C_8  and  C_3 
ROOT
ATOM      1  S   UNL d   1      33.062  19.840 -22.267  0.00  0.00     0.214 S 
ATOM      2  O   UNL d   1      32.882  19.500 -21.537  0.00  0.00    -0.217 OA
ATOM      3  O   UNL d   1      33.240  20.167 -22.984  0.00  0.00    -0.217 OA
ENDROOT
BRANCH   1   4
ATOM      4  C   UNL d   1      33.198  19.092 -22.560  0.00  0.00     0.141 C 
BRANCH   4   5
ATOM      5  C   UNL d   1      32.736  18.806 -23.166  0.00  0.00     0.207 C 
ATOM      6  O   UNL d   1      32.381  19.348 -23.637  0.00  0.00    -0.286 OA
BRANCH   5   7
ATOM      7  C   UNL d   1      32.643  17.994 -23.285  0.00  0.00     0.040 A 
ATOM      8  C   UNL d   1      31.914  17.702 -23.540  0.00  0.00     0.003 A 
ATOM      9  C   UNL d   1      31.820  16.892 -23.658  0.00  0.00     0.000 A 
ATOM     10  C   UNL d   1      32.424  16.364 -23.533  0.00  0.00     0.000 A 
ATOM     11  C   UNL d   1      33.147  16.655 -23.280  0.00  0.00     0.000 A 
ATOM     12  C   UNL d   1      33.241  17.467 -23.161  0.00  0.00     0.003 A 
ENDBRANCH   5   7
ENDBRANCH   4   5
ENDBRANCH   1   4
BRANCH   1  13
ATOM     13  C   UNL d   1      32.924  20.574 -21.960  0.00  0.00     0.088 A 
ATOM     14  C   UNL d   1      32.457  20.653 -21.289  0.00  0.00     0.011 A 
ATOM     15  C   UNL d   1      32.297  21.391 -20.950  0.00  0.00     0.001 A 
ATOM     16  C   UNL d   1      32.636  22.071 -21.325  0.00  0.00     0.000 A 
ATOM     17  C   UNL d   1      33.090  21.984 -21.979  0.00  0.00     0.001 A 
ATOM     18  C   UNL d   1      32.499  22.841 -21.015  0.00  0.00     0.000 C 
ATOM     19  C   UNL d   1      33.241  21.240 -22.305  0.00  0.00     0.011 A 
ENDBRANCH   1  13
TORSDOF 4
ENDMDL
MODEL 3
REMARK VINA RESULT:      -2.6      1.654      5.010
REMARK  4 active torsions:
REMARK  status: ('A' for Active; 'I' for Inactive)
REMARK    1  A    between atoms: C_2  and  S_1 
REMARK    2  A    between atoms: C_4  and  S_1 
REMARK    3  A    between atoms: C_3  and  C_2 
REMARK    4  A    between atoms: C_8  and  C_3 
ROOT
ATOM      1  S   UNL d   1      33.230  18.941 -22.881  0.00  0.00     0.214 S 
ATOM      2  O   UNL d   1      33.227  19.376 -23.582  0.00  0.00    -0.217 OA
ATOM      3  O   UNL d   1      33.233  18.510 -22.198  0.00  0.00    -0.217 OA
ENDROOT
BRANCH   1   4
ATOM      4  C   UNL d   1      33.229  18.259 -23.326  0.00  0.00     0.141 C 
BRANCH   4   5
ATOM      5  C   UNL d   1      32.523  17.944 -23.583  0.00  0.00     0.207 C 
ATOM      6  O   UNL d   1      31.880  18.421 -23.544  0.00  0.00    -0.286 OA
BRANCH   5   7
ATOM      7  C   UNL d   1      32.480  17.171 -23.868  0.00  0.00     0.040 A 
ATOM      8  C   UNL d   1      31.882  16.671 -23.594  0.00  0.00     0.003 A 
ATOM      9  C   UNL d   1      31.838  15.898 -23.879  0.00  0.00     0.000 A 
ATOM     10  C   UNL d   1      32.364  15.607 -24.424  0.00  0.00     0.000 A 
ATOM     11  C   UNL d   1      32.956  16.106 -24.695  0.00  0.00     0.000 A 
ATOM     12  C   UNL d   1      33.001  16.879 -24.410  0.00  0.00     0.003 A 
ENDBRANCH   5   7
ENDBRANCH   4   5
ENDBRANCH   1   4
BRANCH   1  13
ATOM     13  C   UNL d   1      33.231  19.628 -22.455  0.00  0.00     0.088 A 
ATOM     14  C   UNL d   1      33.230  20.349 -22.848  0.00  0.00     0.011 A 
ATOM     15  C   UNL d   1      33.232  21.070 -22.440  0.00  0.00     0.001 A 
ATOM     16  C   UNL d   1      33.234  21.036 -21.593  0.00  0.00     0.000 A 
ATOM     17  C   UNL d   1      33.234  20.328 -21.220  0.00  0.00     0.001 A 
ATOM     18  C   UNL d   1      33.235  21.743 -21.139  0.00  0.00     0.000 C 
ATOM     19  C   UNL d   1      33.233  19.617 -21.642  0.00  0.00     0.011 A 
ENDBRANCH   1  13
TORSDOF 4
ENDMDL
MODEL 4
REMARK VINA RESULT:      -2.1      3.903      5.627
REMARK  4 active torsions:
REMARK  status: ('A' for Active; 'I' for Inactive)
REMARK    1  A    between atoms: C_2  and  S_1 
REMARK    2  A    between atoms: C_4  and  S_1 
REMARK    3  A    between atoms: C_3  and  C_2 
REMARK    4  A    between atoms: C_8  and  C_3 
ROOT
ATOM      1  S   UNL d   1      30.441  16.973 -24.509  0.00  0.00     0.214 S 
ATOM      2  O   UNL d   1      30.848  16.266 -24.390  0.00  0.00    -0.217 OA
ATOM      3  O   UNL d   1      30.048  17.669 -24.627  0.00  0.00    -0.217 OA
ENDROOT
BRANCH   1   4
ATOM      4  C   UNL d   1      31.152  17.333 -24.678  0.00  0.00     0.141 C 
BRANCH   4   5
ATOM      5  C   UNL d   1      31.743  17.344 -24.118  0.00  0.00     0.207 C 
ATOM      6  O   UNL d   1      31.814  16.694 -23.655  0.00  0.00    -0.286 OA
BRANCH   5   7
ATOM      7  C   UNL d   1      32.241  17.997 -24.036  0.00  0.00     0.040 A 
ATOM      8  C   UNL d   1      32.404  18.291 -23.282  0.00  0.00     0.003 A 
ATOM      9  C   UNL d   1      32.901  18.943 -23.199  0.00  0.00     0.000 A 
ATOM     10  C   UNL d   1      33.241  19.312 -23.837  0.00  0.00     0.000 A 
ATOM     11  C   UNL d   1      33.078  19.019 -24.586  0.00  0.00     0.000 A 
ATOM     12  C   UNL d   1      32.580  18.366 -24.669  0.00  0.00     0.003 A 
ENDBRANCH   5   7
ENDBRANCH   4   5
ENDBRANCH   1   4
BRANCH   1  13
ATOM     13  C   UNL d   1      29.744  16.601 -24.340  0.00  0.00     0.088 A 
ATOM     14  C   UNL d   1      29.183  16.982 -23.877  0.00  0.00     0.011 A 
ATOM     15  C   UNL d   1      28.459  16.628 -23.685  0.00  0.00     0.001 A 
ATOM     16  C   UNL d   1      28.317  15.850 -23.987  0.00  0.00     0.000 A 
ATOM     17  C   UNL d   1      28.870  15.487 -24.437  0.00  0.00     0.001 A 
ATOM     18  C   UNL d   1      27.596  15.453 -23.817  0.00  0.00     0.000 C 
ATOM     19  C   UNL d   1      29.588  15.854 -24.620  0.00  0.00     0.011 A 
ENDBRANCH   1  13
TORSDOF 4
ENDMDL
MODEL 5
REMARK VINA RESULT:      -1.6      1.860      3.101
REMARK  4 active torsions:
REMARK  status: ('A' for Active; 'I' for Inactive)
REMARK    1  A    between atoms: C_2  and  S_1 
REMARK    2  A    between atoms: C_4  and  S_1 
REMARK    3  A    between atoms: C_3  and  C_2 
REMARK    4  A    between atoms: C_8  and  C_3 
ROOT
ATOM      1  S   UNL d   1      32.584  18.507 -23.864  0.00  0.00     0.214 S 
ATOM      2  O   UNL d   1      31.997  18.442 -23.290  0.00  0.00    -0.217 OA
ATOM      3  O   UNL d   1      33.162  18.578 -24.425  0.00  0.00    -0.217 OA
ENDROOT
BRANCH   1   4
ATOM      4  C   UNL d   1      32.741  19.259 -23.592  0.00  0.00     0.141 C 
BRANCH   4   5
ATOM      5  C   UNL d   1      32.970  19.370 -22.819  0.00  0.00     0.207 C 
ATOM      6  O   UNL d   1      33.222  18.722 -22.421  0.00  0.00    -0.286 OA
BRANCH   5   7
ATOM      7  C   UNL d   1      32.943  20.117 -22.469  0.00  0.00     0.040 A 
ATOM      8  C   UNL d   1      32.654  20.194 -21.699  0.00  0.00     0.003 A 
ATOM      9  C   UNL d   1      32.626  20.939 -21.348  0.00  0.00     0.000 A 
ATOM     10  C   UNL d   1      32.875  21.609 -21.734  0.00  0.00     0.000 A 
ATOM     11  C   UNL d   1      33.162  21.530 -22.499  0.00  0.00     0.000 A 
ATOM     12  C   UNL d   1      33.189  20.784 -22.850  0.00  0.00     0.003 A 
ENDBRANCH   5   7
ENDBRANCH   4   5
ENDBRANCH   1   4
BRANCH   1  13
ATOM     13  C   UNL d   1      32.417  17.761 -24.122  0.00  0.00     0.088 A 
ATOM     14  C   UNL d   1      32.960  17.363 -24.593  0.00  0.00     0.011 A 
ATOM     15  C   UNL d   1      32.818  16.596 -24.873  0.00  0.00     0.001 A 
ATOM     16  C   UNL d   1      32.084  16.234 -24.655  0.00  0.00     0.000 A 
ATOM     17  C   UNL d   1      31.561  16.630 -24.196  0.00  0.00     0.001 A 
ATOM     18  C   UNL d   1      31.898  15.457 -24.917  0.00  0.00     0.000 C 
ATOM     19  C   UNL d   1      31.718  17.395 -23.924  0.00  0.00     0.011 A 
ENDBRANCH   1  13
TORSDOF 4
ENDMDL
