MODEL 1
REMARK VINA RESULT:      -7.5      0.000      0.000
REMARK  5 active torsions:
REMARK  status: ('A' for Active; 'I' for Inactive)
REMARK    1  A    between atoms: C_4  and  S_1 
REMARK    2  A    between atoms: N_12  and  S_1 
REMARK    3  A    between atoms: N_2  and  C_17 
REMARK    4  A    between atoms: C_16  and  N_12 
REMARK    5  A    between atoms: C_17  and  C_16 
ROOT
ATOM      1  N   UNL d   1     -47.116  12.448  22.862  0.00  0.00    -0.155 NA
ENDROOT
BRANCH   1   2
ATOM      2  S   UNL d   1     -46.590  12.975  23.214  0.00  0.00     0.285 S 
ATOM      3  O   UNL d   1     -46.240  13.543  23.698  0.00  0.00    -0.198 OA
ATOM      4  O   UNL d   1     -47.299  13.047  23.637  0.00  0.00    -0.198 OA
BRANCH   2   5
ATOM      5  C   UNL d   1     -45.889  12.888  22.778  0.00  0.00     0.105 A 
ATOM      6  C   UNL d   1     -45.642  13.493  22.274  0.00  0.00     0.012 A 
ATOM      7  C   UNL d   1     -44.951  13.412  21.841  0.00  0.00     0.001 A 
ATOM      8  C   UNL d   1     -46.091  14.186  22.201  0.00  0.00     0.001 C 
ATOM      9  C   UNL d   1     -44.496  12.719  21.909  0.00  0.00     0.000 A 
ATOM     10  C   UNL d   1     -44.752  12.115  22.419  0.00  0.00     0.001 A 
ATOM     11  C   UNL d   1     -43.800  12.625  21.481  0.00  0.00     0.000 C 
ATOM     12  C   UNL d   1     -45.450  12.207  22.850  0.00  0.00     0.012 A 
ATOM     13  C   UNL d   1     -45.699  11.606  23.354  0.00  0.00     0.001 C 
ENDBRANCH   2   5
ENDBRANCH   1   2
BRANCH   1  14
ATOM     14  C   UNL d   1     -47.927  12.513  23.000  0.00  0.00     0.131 C 
BRANCH  14  15
ATOM     15  C   UNL d   1     -48.457  12.067  22.553  0.00  0.00     0.102 C 
BRANCH  15  16
ATOM     16  N   UNL d   1     -49.268  12.207  22.618  0.00  0.00    -0.304 N 
ATOM     17  C   UNL d   1     -49.784  11.833  23.146  0.00  0.00     0.064 A 
ATOM     18  C   UNL d   1     -50.539  12.137  23.024  0.00  0.00     0.019 A 
ATOM     19  C   UNL d   1     -49.578  11.257  23.698  0.00  0.00     0.019 C 
ATOM     20  C   UNL d   1     -50.498  12.700  22.422  0.00  0.00     0.018 A 
ATOM     21  C   UNL d   1     -49.713  12.745  22.169  0.00  0.00     0.064 A 
ATOM     22  C   UNL d   1     -51.064  13.180  22.065  0.00  0.00     0.002 A 
ATOM     23  C   UNL d   1     -49.494  13.261  21.569  0.00  0.00     0.018 A 
ATOM     24  C   UNL d   1     -50.058  13.741  21.212  0.00  0.00     0.002 A 
ATOM     25  C   UNL d   1     -50.856  13.706  21.457  0.00  0.00     0.000 A 
ENDBRANCH  15  16
ENDBRANCH  14  15
ENDBRANCH   1  14
TORSDOF 5
ENDMDL
MODEL 2
REMARK VINA RESULT:      -7.3      1.276      4.417
REMARK  5 active torsions:
REMARK  status: ('A' for Active; 'I' for Inactive)
REMARK    1  A    between atoms: C_4  and  S_1 
REMARK    2  A    between atoms: N_12  and  S_1 
REMARK    3  A    between atoms: N_2  and  C_17 
REMARK    4  A    between atoms: C_16  and  N_12 
REMARK    5  A    between atoms: C_17  and  C_16 
ROOT
ATOM      1  N   UNL d   1     -48.631  12.280  23.110  0.00  0.00    -0.155 NA
ENDROOT
BRANCH   1   2
ATOM      2  S   UNL d   1     -49.331  11.891  22.922  0.00  0.00     0.285 S 
ATOM      3  O   UNL d   1     -49.936  11.335  22.845  0.00  0.00    -0.198 OA
ATOM      4  O   UNL d   1     -48.882  11.348  23.355  0.00  0.00    -0.198 OA
BRANCH   2   5
ATOM      5  C   UNL d   1     -49.767  12.450  22.488  0.00  0.00     0.105 A 
ATOM      6  C   UNL d   1     -49.700  12.474  21.667  0.00  0.00     0.012 A 
ATOM      7  C   UNL d   1     -50.127  13.024  21.234  0.00  0.00     0.001 A 
ATOM      8  C   UNL d   1     -49.200  11.943  21.272  0.00  0.00     0.001 C 
ATOM      9  C   UNL d   1     -50.630  13.559  21.623  0.00  0.00     0.000 A 
ATOM     10  C   UNL d   1     -50.691  13.528  22.451  0.00  0.00     0.001 A 
ATOM     11  C   UNL d   1     -51.064  14.116  21.202  0.00  0.00     0.000 C 
ATOM     12  C   UNL d   1     -50.256  12.971  22.877  0.00  0.00     0.012 A 
ATOM     13  C   UNL d   1     -50.320  12.943  23.697  0.00  0.00     0.001 C 
ENDBRANCH   2   5
ENDBRANCH   1   2
BRANCH   1  14
ATOM     14  C   UNL d   1     -47.955  11.850  23.308  0.00  0.00     0.131 C 
BRANCH  14  15
ATOM     15  C   UNL d   1     -47.330  12.221  23.698  0.00  0.00     0.102 C 
BRANCH  15  16
ATOM     16  N   UNL d   1     -46.588  12.260  23.340  0.00  0.00    -0.304 N 
ATOM     17  C   UNL d   1     -46.053  11.634  23.262  0.00  0.00     0.064 A 
ATOM     18  C   UNL d   1     -45.385  11.914  22.872  0.00  0.00     0.019 A 
ATOM     19  C   UNL d   1     -46.169  10.863  23.529  0.00  0.00     0.019 C 
ATOM     20  C   UNL d   1     -45.500  12.714  22.705  0.00  0.00     0.018 A 
ATOM     21  C   UNL d   1     -46.243  12.931  22.993  0.00  0.00     0.064 A 
ATOM     22  C   UNL d   1     -45.033  13.280  22.331  0.00  0.00     0.002 A 
ATOM     23  C   UNL d   1     -46.518  13.700  22.910  0.00  0.00     0.018 A 
ATOM     24  C   UNL d   1     -46.053  14.266  22.536  0.00  0.00     0.002 A 
ATOM     25  C   UNL d   1     -45.299  14.061  22.240  0.00  0.00     0.000 A 
ENDBRANCH  15  16
ENDBRANCH  14  15
ENDBRANCH   1  14
TORSDOF 5
ENDMDL
MODEL 3
REMARK VINA RESULT:      -7.1      8.668      9.895
REMARK  5 active torsions:
REMARK  status: ('A' for Active; 'I' for Inactive)
REMARK    1  A    between atoms: C_4  and  S_1 
REMARK    2  A    between atoms: N_12  and  S_1 
REMARK    3  A    between atoms: N_2  and  C_17 
REMARK    4  A    between atoms: C_16  and  N_12 
REMARK    5  A    between atoms: C_17  and  C_16 
ROOT
ATOM      1  N   UNL d   1     -39.286  14.317  18.647  0.00  0.00    -0.155 NA
ENDROOT
BRANCH   1   2
ATOM      2  S   UNL d   1     -39.758  13.927  18.095  0.00  0.00     0.285 S 
ATOM      3  O   UNL d   1     -40.369  13.523  17.717  0.00  0.00    -0.198 OA
ATOM      4  O   UNL d   1     -40.192  13.932  18.800  0.00  0.00    -0.198 OA
BRANCH   2   5
ATOM      5  C   UNL d   1     -39.306  13.933  17.398  0.00  0.00     0.105 A 
ATOM      6  C   UNL d   1     -39.384  14.559  16.866  0.00  0.00     0.012 A 
ATOM      7  C   UNL d   1     -38.941  14.569  16.176  0.00  0.00     0.001 A 
ATOM      8  C   UNL d   1     -39.910  15.180  17.023  0.00  0.00     0.001 C 
ATOM      9  C   UNL d   1     -38.411  13.950  16.012  0.00  0.00     0.000 A 
ATOM     10  C   UNL d   1     -38.340  13.324  16.553  0.00  0.00     0.001 A 
ATOM     11  C   UNL d   1     -37.961  13.948  15.323  0.00  0.00     0.000 C 
ATOM     12  C   UNL d   1     -38.791  13.323  17.245  0.00  0.00     0.012 A 
ATOM     13  C   UNL d   1     -38.717  12.701  17.779  0.00  0.00     0.001 C 
ENDBRANCH   2   5
ENDBRANCH   1   2
BRANCH   1  14
ATOM     14  C   UNL d   1     -39.504  14.336  19.442  0.00  0.00     0.131 C 
BRANCH  14  15
ATOM     15  C   UNL d   1     -39.030  14.732  19.989  0.00  0.00     0.102 C 
BRANCH  15  16
ATOM     16  N   UNL d   1     -39.191  14.666  20.796  0.00  0.00    -0.304 N 
ATOM     17  C   UNL d   1     -39.723  15.132  21.224  0.00  0.00     0.064 A 
ATOM     18  C   UNL d   1     -39.711  14.879  22.008  0.00  0.00     0.019 A 
ATOM     19  C   UNL d   1     -40.186  15.743  20.920  0.00  0.00     0.019 C 
ATOM     20  C   UNL d   1     -39.173  14.257  22.071  0.00  0.00     0.018 A 
ATOM     21  C   UNL d   1     -38.850  14.123  21.323  0.00  0.00     0.064 A 
ATOM     22  C   UNL d   1     -38.929  13.791  22.704  0.00  0.00     0.002 A 
ATOM     23  C   UNL d   1     -38.291  13.532  21.206  0.00  0.00     0.018 A 
ATOM     24  C   UNL d   1     -38.047  13.066  21.838  0.00  0.00     0.002 A 
ATOM     25  C   UNL d   1     -38.365  13.190  22.600  0.00  0.00     0.000 A 
ENDBRANCH  15  16
ENDBRANCH  14  15
ENDBRANCH   1  14
TORSDOF 5
ENDMDL
MODEL 4
REMARK VINA RESULT:      -7.0      7.410      9.476
REMARK  5 active torsions:
REMARK  status: ('A' for Active; 'I' for Inactive)
REMARK    1  A    between atoms: C_4  and  S_1 
REMARK    2  A    between atoms: N_12  and  S_1 
REMARK    3  A    between atoms: N_2  and  C_17 
REMARK    4  A    between atoms: C_16  and  N_12 
REMARK    5  A    between atoms: C_17  and  C_16 
ROOT
ATOM      1  N   UNL d   1     -40.504  14.750  19.627  0.00  0.00    -0.155 NA
ENDROOT
BRANCH   1   2
ATOM      2  S   UNL d   1     -40.497  15.269  20.266  0.00  0.00     0.285 S 
ATOM      3  O   UNL d   1     -40.607  15.916  20.765  0.00  0.00    -0.198 OA
ATOM      4  O   UNL d   1     -40.920  15.654  19.668  0.00  0.00    -0.198 OA
BRANCH   2   5
ATOM      5  C   UNL d   1     -40.069  14.866  20.854  0.00  0.00     0.105 A 
ATOM      6  C   UNL d   1     -40.419  14.234  21.253  0.00  0.00     0.012 A 
ATOM      7  C   UNL d   1     -40.002  13.833  21.833  0.00  0.00     0.001 A 
ATOM      8  C   UNL d   1     -41.193  14.000  21.071  0.00  0.00     0.001 C 
ATOM      9  C   UNL d   1     -39.225  14.062  22.021  0.00  0.00     0.000 A 
ATOM     10  C   UNL d   1     -38.881  14.699  21.614  0.00  0.00     0.001 A 
ATOM     11  C   UNL d   1     -38.795  13.668  22.602  0.00  0.00     0.000 C 
ATOM     12  C   UNL d   1     -39.310  15.096  21.031  0.00  0.00     0.012 A 
ATOM     13  C   UNL d   1     -38.965  15.727  20.630  0.00  0.00     0.001 C 
ENDBRANCH   2   5
ENDBRANCH   1   2
BRANCH   1  14
ATOM     14  C   UNL d   1     -40.415  15.034  18.858  0.00  0.00     0.131 C 
BRANCH  14  15
ATOM     15  C   UNL d   1     -40.547  14.533  18.216  0.00  0.00     0.102 C 
BRANCH  15  16
ATOM     16  N   UNL d   1     -40.073  14.594  17.543  0.00  0.00    -0.304 N 
ATOM     17  C   UNL d   1     -40.132  15.176  16.959  0.00  0.00     0.064 A 
ATOM     18  C   UNL d   1     -39.555  15.029  16.391  0.00  0.00     0.019 A 
ATOM     19  C   UNL d   1     -40.675  15.797  16.947  0.00  0.00     0.019 C 
ATOM     20  C   UNL d   1     -39.135  14.356  16.618  0.00  0.00     0.018 A 
ATOM     21  C   UNL d   1     -39.453  14.085  17.330  0.00  0.00     0.064 A 
ATOM     22  C   UNL d   1     -38.505  13.948  16.277  0.00  0.00     0.002 A 
ATOM     23  C   UNL d   1     -39.148  13.417  17.699  0.00  0.00     0.018 A 
ATOM     24  C   UNL d   1     -38.520  13.010  17.361  0.00  0.00     0.002 A 
ATOM     25  C   UNL d   1     -38.188  13.272  16.640  0.00  0.00     0.000 A 
ENDBRANCH  15  16
ENDBRANCH  14  15
ENDBRANCH   1  14
TORSDOF 5
ENDMDL
MODEL 5
REMARK VINA RESULT:      -6.9      1.344      4.795
REMARK  5 active torsions:
REMARK  status: ('A' for Active; 'I' for Inactive)
REMARK    1  A    between atoms: C_4  and  S_1 
REMARK    2  A    between atoms: N_12  and  S_1 
REMARK    3  A    between atoms: N_2  and  C_17 
REMARK    4  A    between atoms: C_16  and  N_12 
REMARK    5  A    between atoms: C_17  and  C_16 
ROOT
ATOM      1  N   UNL d   1     -48.595  12.060  23.085  0.00  0.00    -0.155 NA
ENDROOT
BRANCH   1   2
ATOM      2  S   UNL d   1     -49.177  11.782  22.573  0.00  0.00     0.285 S 
ATOM      3  O   UNL d   1     -49.649  11.313  22.086  0.00  0.00    -0.198 OA
ATOM      4  O   UNL d   1     -48.692  11.131  22.736  0.00  0.00    -0.198 OA
BRANCH   2   5
ATOM      5  C   UNL d   1     -49.652  12.447  22.422  0.00  0.00     0.105 A 
ATOM      6  C   UNL d   1     -50.205  12.691  22.983  0.00  0.00     0.012 A 
ATOM      7  C   UNL d   1     -50.676  13.347  22.839  0.00  0.00     0.001 A 
ATOM      8  C   UNL d   1     -50.289  12.276  23.696  0.00  0.00     0.001 C 
ATOM      9  C   UNL d   1     -50.597  13.767  22.126  0.00  0.00     0.000 A 
ATOM     10  C   UNL d   1     -50.038  13.515  21.567  0.00  0.00     0.001 A 
ATOM     11  C   UNL d   1     -51.063  14.427  21.969  0.00  0.00     0.000 C 
ATOM     12  C   UNL d   1     -49.569  12.853  21.722  0.00  0.00     0.012 A 
ATOM     13  C   UNL d   1     -49.015  12.606  21.165  0.00  0.00     0.001 C 
ENDBRANCH   2   5
ENDBRANCH   1   2
BRANCH   1  14
ATOM     14  C   UNL d   1     -47.803  11.861  22.962  0.00  0.00     0.131 C 
BRANCH  14  15
ATOM     15  C   UNL d   1     -47.236  12.071  23.522  0.00  0.00     0.102 C 
BRANCH  15  16
ATOM     16  N   UNL d   1     -46.438  12.088  23.312  0.00  0.00    -0.304 N 
ATOM     17  C   UNL d   1     -46.036  12.732  22.984  0.00  0.00     0.064 A 
ATOM     18  C   UNL d   1     -45.253  12.509  22.861  0.00  0.00     0.019 A 
ATOM     19  C   UNL d   1     -46.361  13.469  22.812  0.00  0.00     0.019 C 
ATOM     20  C   UNL d   1     -45.164  11.728  23.110  0.00  0.00     0.018 A 
ATOM     21  C   UNL d   1     -45.895  11.465  23.389  0.00  0.00     0.064 A 
ATOM     22  C   UNL d   1     -44.520  11.215  23.123  0.00  0.00     0.002 A 
ATOM     23  C   UNL d   1     -45.985  10.701  23.678  0.00  0.00     0.018 A 
ATOM     24  C   UNL d   1     -45.342  10.188  23.692  0.00  0.00     0.002 A 
ATOM     25  C   UNL d   1     -44.596  10.440  23.412  0.00  0.00     0.000 A 
ENDBRANCH  15  16
ENDBRANCH  14  15
ENDBRANCH   1  14
TORSDOF 5
ENDMDL
MODEL 6
REMARK VINA RESULT:      -6.9      0.481      1.710
REMARK  5 active torsions:
REMARK  status: ('A' for Active; 'I' for Inactive)
REMARK    1  A    between atoms: C_4  and  S_1 
REMARK    2  A    between atoms: N_12  and  S_1 
REMARK    3  A    between atoms: N_2  and  C_17 
REMARK    4  A    between atoms: C_16  and  N_12 
REMARK    5  A    between atoms: C_17  and  C_16 
ROOT
ATOM      1  N   UNL d   1     -47.023  12.736  22.689  0.00  0.00    -0.155 NA
ENDROOT
BRANCH   1   2
ATOM      2  S   UNL d   1     -46.448  13.131  23.126  0.00  0.00     0.285 S 
ATOM      3  O   UNL d   1     -46.048  13.577  23.693  0.00  0.00    -0.198 OA
ATOM      4  O   UNL d   1     -47.161  13.254  23.528  0.00  0.00    -0.198 OA
BRANCH   2   5
ATOM      5  C   UNL d   1     -45.743  12.996  22.708  0.00  0.00     0.105 A 
ATOM      6  C   UNL d   1     -45.364  12.266  22.769  0.00  0.00     0.012 A 
ATOM      7  C   UNL d   1     -44.668  12.128  22.359  0.00  0.00     0.001 A 
ATOM      8  C   UNL d   1     -45.684  11.667  23.245  0.00  0.00     0.001 C 
ATOM      9  C   UNL d   1     -44.342  12.724  21.880  0.00  0.00     0.000 A 
ATOM     10  C   UNL d   1     -44.730  13.456  21.824  0.00  0.00     0.001 A 
ATOM     11  C   UNL d   1     -43.644  12.599  21.462  0.00  0.00     0.000 C 
ATOM     12  C   UNL d   1     -45.431  13.585  22.242  0.00  0.00     0.012 A 
ATOM     13  C   UNL d   1     -45.812  14.312  22.184  0.00  0.00     0.001 C 
ENDBRANCH   2   5
ENDBRANCH   1   2
BRANCH   1  14
ATOM     14  C   UNL d   1     -47.821  12.922  22.784  0.00  0.00     0.131 C 
BRANCH  14  15
ATOM     15  C   UNL d   1     -48.370  12.685  22.216  0.00  0.00     0.102 C 
BRANCH  15  16
ATOM     16  N   UNL d   1     -49.173  12.834  22.333  0.00  0.00    -0.304 N 
ATOM     17  C   UNL d   1     -49.605  13.453  21.994  0.00  0.00     0.064 A 
ATOM     18  C   UNL d   1     -50.383  13.396  22.258  0.00  0.00     0.019 A 
ATOM     19  C   UNL d   1     -49.309  14.026  21.481  0.00  0.00     0.019 C 
ATOM     20  C   UNL d   1     -50.439  12.744  22.761  0.00  0.00     0.018 A 
ATOM     21  C   UNL d   1     -49.692  12.395  22.809  0.00  0.00     0.064 A 
ATOM     22  C   UNL d   1     -51.064  12.416  23.184  0.00  0.00     0.002 A 
ATOM     23  C   UNL d   1     -49.569  11.728  23.273  0.00  0.00     0.018 A 
ATOM     24  C   UNL d   1     -50.192  11.400  23.696  0.00  0.00     0.002 A 
ATOM     25  C   UNL d   1     -50.954  11.742  23.657  0.00  0.00     0.000 A 
ENDBRANCH  15  16
ENDBRANCH  14  15
ENDBRANCH   1  14
TORSDOF 5
ENDMDL
MODEL 7
REMARK VINA RESULT:      -6.8      1.581      4.611
REMARK  5 active torsions:
REMARK  status: ('A' for Active; 'I' for Inactive)
REMARK    1  A    between atoms: C_4  and  S_1 
REMARK    2  A    between atoms: N_12  and  S_1 
REMARK    3  A    between atoms: N_2  and  C_17 
REMARK    4  A    between atoms: C_16  and  N_12 
REMARK    5  A    between atoms: C_17  and  C_16 
ROOT
ATOM      1  N   UNL d   1     -48.952  12.948  22.907  0.00  0.00    -0.155 NA
ENDROOT
BRANCH   1   2
ATOM      2  S   UNL d   1     -49.420  13.230  22.291  0.00  0.00     0.285 S 
ATOM      3  O   UNL d   1     -49.790  13.346  21.563  0.00  0.00    -0.198 OA
ATOM      4  O   UNL d   1     -48.998  12.590  21.978  0.00  0.00    -0.198 OA
BRANCH   2   5
ATOM      5  C   UNL d   1     -49.833  13.870  22.623  0.00  0.00     0.105 A 
ATOM      6  C   UNL d   1     -50.435  13.729  23.169  0.00  0.00     0.012 A 
ATOM      7  C   UNL d   1     -50.845  14.357  23.499  0.00  0.00     0.001 A 
ATOM      8  C   UNL d   1     -50.629  12.953  23.388  0.00  0.00     0.001 C 
ATOM      9  C   UNL d   1     -50.657  15.138  23.284  0.00  0.00     0.000 A 
ATOM     10  C   UNL d   1     -50.049  15.270  22.733  0.00  0.00     0.001 A 
ATOM     11  C   UNL d   1     -51.061  15.776  23.609  0.00  0.00     0.000 C 
ATOM     12  C   UNL d   1     -49.642  14.631  22.407  0.00  0.00     0.012 A 
ATOM     13  C   UNL d   1     -49.041  14.766  21.861  0.00  0.00     0.001 C 
ENDBRANCH   2   5
ENDBRANCH   1   2
BRANCH   1  14
ATOM     14  C   UNL d   1     -48.209  12.624  22.752  0.00  0.00     0.131 C 
BRANCH  14  15
ATOM     15  C   UNL d   1     -47.605  12.696  23.308  0.00  0.00     0.102 C 
BRANCH  15  16
ATOM     16  N   UNL d   1     -46.871  12.346  23.166  0.00  0.00    -0.304 N 
ATOM     17  C   UNL d   1     -46.664  11.565  23.343  0.00  0.00     0.064 A 
ATOM     18  C   UNL d   1     -45.884  11.448  23.110  0.00  0.00     0.019 A 
ATOM     19  C   UNL d   1     -47.154  11.001  23.693  0.00  0.00     0.019 C 
ATOM     20  C   UNL d   1     -45.602  12.152  22.787  0.00  0.00     0.018 A 
ATOM     21  C   UNL d   1     -46.210  12.709  22.820  0.00  0.00     0.064 A 
ATOM     22  C   UNL d   1     -44.875  12.369  22.466  0.00  0.00     0.002 A 
ATOM     23  C   UNL d   1     -46.098  13.473  22.537  0.00  0.00     0.018 A 
ATOM     24  C   UNL d   1     -45.373  13.690  22.216  0.00  0.00     0.002 A 
ATOM     25  C   UNL d   1     -44.748  13.137  22.176  0.00  0.00     0.000 A 
ENDBRANCH  15  16
ENDBRANCH  14  15
ENDBRANCH   1  14
TORSDOF 5
ENDMDL
MODEL 8
REMARK VINA RESULT:      -5.8      8.456      9.810
REMARK  5 active torsions:
REMARK  status: ('A' for Active; 'I' for Inactive)
REMARK    1  A    between atoms: C_4  and  S_1 
REMARK    2  A    between atoms: N_12  and  S_1 
REMARK    3  A    between atoms: N_2  and  C_17 
REMARK    4  A    between atoms: C_16  and  N_12 
REMARK    5  A    between atoms: C_17  and  C_16 
ROOT
ATOM      1  N   UNL d   1     -39.147  14.453  19.122  0.00  0.00    -0.155 NA
ENDROOT
BRANCH   1   2
ATOM      2  S   UNL d   1     -39.425  13.924  18.555  0.00  0.00     0.285 S 
ATOM      3  O   UNL d   1     -39.613  13.246  18.126  0.00  0.00    -0.198 OA
ATOM      4  O   UNL d   1     -39.057  13.461  19.134  0.00  0.00    -0.198 OA
BRANCH   2   5
ATOM      5  C   UNL d   1     -39.790  14.407  17.985  0.00  0.00     0.105 A 
ATOM      6  C   UNL d   1     -40.599  14.556  18.033  0.00  0.00     0.012 A 
ATOM      7  C   UNL d   1     -40.963  15.032  17.473  0.00  0.00     0.001 A 
ATOM      8  C   UNL d   1     -41.050  14.228  18.646  0.00  0.00     0.001 C 
ATOM      9  C   UNL d   1     -40.517  15.364  16.855  0.00  0.00     0.000 A 
ATOM     10  C   UNL d   1     -39.703  15.208  16.815  0.00  0.00     0.001 A 
ATOM     11  C   UNL d   1     -40.871  15.843  16.287  0.00  0.00     0.000 C 
ATOM     12  C   UNL d   1     -39.346  14.728  17.384  0.00  0.00     0.012 A 
ATOM     13  C   UNL d   1     -38.538  14.576  17.340  0.00  0.00     0.001 C 
ENDBRANCH   2   5
ENDBRANCH   1   2
BRANCH   1  14
ATOM     14  C   UNL d   1     -39.002  14.199  19.893  0.00  0.00     0.131 C 
BRANCH  14  15
ATOM     15  C   UNL d   1     -38.577  14.679  20.411  0.00  0.00     0.102 C 
BRANCH  15  16
ATOM     16  N   UNL d   1     -38.750  14.668  21.218  0.00  0.00    -0.304 N 
ATOM     17  C   UNL d   1     -39.183  15.240  21.629  0.00  0.00     0.064 A 
ATOM     18  C   UNL d   1     -39.223  15.012  22.419  0.00  0.00     0.019 A 
ATOM     19  C   UNL d   1     -39.518  15.920  21.305  0.00  0.00     0.019 C 
ATOM     20  C   UNL d   1     -38.816  14.299  22.504  0.00  0.00     0.018 A 
ATOM     21  C   UNL d   1     -38.522  14.084  21.762  0.00  0.00     0.064 A 
ATOM     22  C   UNL d   1     -38.669  13.812  23.151  0.00  0.00     0.002 A 
ATOM     23  C   UNL d   1     -38.088  13.394  21.666  0.00  0.00     0.018 A 
ATOM     24  C   UNL d   1     -37.941  12.907  22.312  0.00  0.00     0.002 A 
ATOM     25  C   UNL d   1     -38.232  13.111  23.068  0.00  0.00     0.000 A 
ENDBRANCH  15  16
ENDBRANCH  14  15
ENDBRANCH   1  14
TORSDOF 5
ENDMDL
