MODEL 1
REMARK VINA RESULT:      -8.7      0.000      0.000
REMARK  4 active torsions:
REMARK  status: ('A' for Active; 'I' for Inactive)
REMARK    1  A    between atoms: C_8  and  C_1 
REMARK    2  A    between atoms: N_7  and  C_8 
REMARK    3  A    between atoms: C_18  and  N_9 
REMARK    4  A    between atoms: C_21  and  C_18 
ROOT
ATOM      1  C   UNL d   1      53.300  32.778  53.355  0.00  0.00     0.059 A 
ATOM      2  C   UNL d   1      52.926  34.076  53.806  0.00  0.00     0.121 A 
ATOM      3  C   UNL d   1      52.834  33.447  53.268  0.00  0.00     0.214 A 
ATOM      4  C   UNL d   1      53.479  34.024  54.417  0.00  0.00     0.032 A 
ATOM      5  C   UNL d   1      53.944  33.352  54.500  0.00  0.00     0.059 A 
ATOM      6  C   UNL d   1      53.856  32.725  53.969  0.00  0.00     0.016 A 
ATOM      7  N   UNL d   1      52.458  34.752  53.721  0.00  0.00    -0.241 NA
ATOM      8 CL   UNL d   1      54.494  33.299  55.108  0.00  0.00    -0.082 Cl
ATOM      9  O   UNL d   1      52.287  33.499  52.663  0.00  0.00    -0.285 OA
ATOM     10  C   UNL d   1      53.559  34.658  54.945  0.00  0.00     0.004 A 
ATOM     11  C   UNL d   1      52.546  35.379  54.253  0.00  0.00     0.099 A 
ATOM     12  C   UNL d   1      53.104  35.326  54.869  0.00  0.00     0.021 A 
ENDROOT
BRANCH   1  13
ATOM     13  C   UNL d   1      53.218  32.144  52.824  0.00  0.00     0.084 C 
BRANCH  13  14
ATOM     14  N   UNL d   1      53.177  31.370  53.118  0.00  0.00    -0.300 N 
ATOM     15  C   UNL d   1      53.873  30.930  53.220  0.00  0.00     0.100 A 
ATOM     16  C   UNL d   1      53.833  30.164  53.511  0.00  0.00     0.100 A 
ATOM     17  N   UNL d   1      53.104  29.830  53.703  0.00  0.00    -0.297 N 
ATOM     18  C   UNL d   1      52.406  30.269  53.601  0.00  0.00     0.100 A 
ATOM     19  C   UNL d   1      52.447  31.032  53.311  0.00  0.00     0.100 A 
BRANCH  17  20
ATOM     20  C   UNL d   1      53.063  29.064  53.994  0.00  0.00     0.126 C 
BRANCH  20  21
ATOM     21  C   UNL d   1      53.310  28.895  54.760  0.00  0.00     0.253 C 
ATOM     22  O   UNL d   1      53.331  28.106  55.025  0.00  0.00    -0.281 OA
ENDBRANCH  20  21
ENDBRANCH  17  20
ENDBRANCH  13  14
ENDBRANCH   1  13
TORSDOF 4
ENDMDL
MODEL 2
REMARK VINA RESULT:      -8.0      2.622      4.166
REMARK  4 active torsions:
REMARK  status: ('A' for Active; 'I' for Inactive)
REMARK    1  A    between atoms: C_8  and  C_1 
REMARK    2  A    between atoms: N_7  and  C_8 
REMARK    3  A    between atoms: C_18  and  N_9 
REMARK    4  A    between atoms: C_21  and  C_18 
ROOT
ATOM      1  C   UNL d   1      52.770  34.164  53.325  0.00  0.00     0.059 A 
ATOM      2  C   UNL d   1      53.590  33.816  54.436  0.00  0.00     0.121 A 
ATOM      3  C   UNL d   1      53.195  34.396  53.986  0.00  0.00     0.214 A 
ATOM      4  C   UNL d   1      53.551  33.022  54.217  0.00  0.00     0.032 A 
ATOM      5  C   UNL d   1      53.123  32.794  53.554  0.00  0.00     0.059 A 
ATOM      6  C   UNL d   1      52.730  33.365  53.105  0.00  0.00     0.016 A 
ATOM      7  N   UNL d   1      54.021  34.047  55.103  0.00  0.00    -0.241 NA
ATOM      8 CL   UNL d   1      53.084  32.004  53.335  0.00  0.00    -0.082 Cl
ATOM      9  O   UNL d   1      53.234  35.183  54.203  0.00  0.00    -0.285 OA
ATOM     10  C   UNL d   1      53.950  32.456  54.675  0.00  0.00     0.004 A 
ATOM     11  C   UNL d   1      54.414  33.475  55.553  0.00  0.00     0.099 A 
ATOM     12  C   UNL d   1      54.375  32.673  55.331  0.00  0.00     0.021 A 
ENDROOT
BRANCH   1  13
ATOM     13  C   UNL d   1      52.371  34.733  52.868  0.00  0.00     0.084 C 
BRANCH  13  14
ATOM     14  N   UNL d   1      51.596  34.582  52.615  0.00  0.00    -0.300 N 
ATOM     15  C   UNL d   1      51.458  34.335  51.835  0.00  0.00     0.100 A 
ATOM     16  C   UNL d   1      50.691  34.186  51.585  0.00  0.00     0.100 A 
ATOM     17  N   UNL d   1      50.058  34.279  52.105  0.00  0.00    -0.297 N 
ATOM     18  C   UNL d   1      50.195  34.526  52.885  0.00  0.00     0.100 A 
ATOM     19  C   UNL d   1      50.959  34.675  53.135  0.00  0.00     0.100 A 
BRANCH  17  20
ATOM     20  C   UNL d   1      49.291  34.130  51.854  0.00  0.00     0.126 C 
BRANCH  20  21
ATOM     21  C   UNL d   1      48.928  34.623  51.307  0.00  0.00     0.253 C 
ATOM     22  O   UNL d   1      48.176  34.427  51.005  0.00  0.00    -0.281 OA
ENDBRANCH  20  21
ENDBRANCH  17  20
ENDBRANCH  13  14
ENDBRANCH   1  13
TORSDOF 4
ENDMDL
MODEL 3
REMARK VINA RESULT:      -6.8      1.382      4.325
REMARK  4 active torsions:
REMARK  status: ('A' for Active; 'I' for Inactive)
REMARK    1  A    between atoms: C_8  and  C_1 
REMARK    2  A    between atoms: N_7  and  C_8 
REMARK    3  A    between atoms: C_18  and  N_9 
REMARK    4  A    between atoms: C_21  and  C_18 
ROOT
ATOM      1  C   UNL d   1      53.087  31.756  53.180  0.00  0.00     0.059 A 
ATOM      2  C   UNL d   1      52.978  30.360  53.437  0.00  0.00     0.121 A 
ATOM      3  C   UNL d   1      52.854  31.011  52.932  0.00  0.00     0.214 A 
ATOM      4  C   UNL d   1      53.330  30.468  54.176  0.00  0.00     0.032 A 
ATOM      5  C   UNL d   1      53.562  31.217  54.420  0.00  0.00     0.059 A 
ATOM      6  C   UNL d   1      53.441  31.865  53.922  0.00  0.00     0.016 A 
ATOM      7  N   UNL d   1      52.744  29.607  53.190  0.00  0.00    -0.241 NA
ATOM      8 CL   UNL d   1      53.912  31.325  55.155  0.00  0.00    -0.082 Cl
ATOM      9  O   UNL d   1      52.505  30.904  52.201  0.00  0.00    -0.285 OA
ATOM     10  C   UNL d   1      53.446  29.810  54.668  0.00  0.00     0.004 A 
ATOM     11  C   UNL d   1      52.864  28.958  53.688  0.00  0.00     0.099 A 
ATOM     12  C   UNL d   1      53.220  29.067  54.434  0.00  0.00     0.021 A 
ENDROOT
BRANCH   1  13
ATOM     13  C   UNL d   1      52.969  32.414  52.685  0.00  0.00     0.084 C 
BRANCH  13  14
ATOM     14  N   UNL d   1      52.840  33.160  53.022  0.00  0.00    -0.300 N 
ATOM     15  C   UNL d   1      53.477  33.681  53.125  0.00  0.00     0.100 A 
ATOM     16  C   UNL d   1      53.350  34.420  53.459  0.00  0.00     0.100 A 
ATOM     17  N   UNL d   1      52.592  34.646  53.693  0.00  0.00    -0.297 N 
ATOM     18  C   UNL d   1      51.954  34.124  53.591  0.00  0.00     0.100 A 
ATOM     19  C   UNL d   1      52.081  33.389  53.258  0.00  0.00     0.100 A 
BRANCH  17  20
ATOM     20  C   UNL d   1      52.465  35.384  54.027  0.00  0.00     0.126 C 
BRANCH  20  21
ATOM     21  C   UNL d   1      52.943  35.653  54.639  0.00  0.00     0.253 C 
ATOM     22  O   UNL d   1      52.846  36.426  54.934  0.00  0.00    -0.281 OA
ENDBRANCH  20  21
ENDBRANCH  17  20
ENDBRANCH  13  14
ENDBRANCH   1  13
TORSDOF 4
ENDMDL
MODEL 4
REMARK VINA RESULT:      -6.7      1.701      4.284
REMARK  4 active torsions:
REMARK  status: ('A' for Active; 'I' for Inactive)
REMARK    1  A    between atoms: C_8  and  C_1 
REMARK    2  A    between atoms: N_7  and  C_8 
REMARK    3  A    between atoms: C_18  and  N_9 
REMARK    4  A    between atoms: C_21  and  C_18 
ROOT
ATOM      1  C   UNL d   1      52.959  32.321  53.078  0.00  0.00     0.059 A 
ATOM      2  C   UNL d   1      53.095  30.935  53.375  0.00  0.00     0.121 A 
ATOM      3  C   UNL d   1      52.858  31.539  52.852  0.00  0.00     0.214 A 
ATOM      4  C   UNL d   1      53.425  31.124  54.107  0.00  0.00     0.032 A 
ATOM      5  C   UNL d   1      53.523  31.909  54.328  0.00  0.00     0.059 A 
ATOM      6  C   UNL d   1      53.290  32.511  53.813  0.00  0.00     0.016 A 
ATOM      7  N   UNL d   1      52.995  30.146  53.151  0.00  0.00    -0.241 NA
ATOM      8 CL   UNL d   1      53.852  32.098  55.057  0.00  0.00    -0.082 Cl
ATOM      9  O   UNL d   1      52.531  31.352  52.127  0.00  0.00    -0.285 OA
ATOM     10  C   UNL d   1      53.656  30.512  54.617  0.00  0.00     0.004 A 
ATOM     11  C   UNL d   1      53.228  29.542  53.666  0.00  0.00     0.099 A 
ATOM     12  C   UNL d   1      53.561  29.734  54.405  0.00  0.00     0.021 A 
ENDROOT
BRANCH   1  13
ATOM     13  C   UNL d   1      52.726  32.933  52.564  0.00  0.00     0.084 C 
BRANCH  13  14
ATOM     14  N   UNL d   1      52.088  33.419  52.774  0.00  0.00    -0.300 N 
ATOM     15  C   UNL d   1      52.225  34.207  52.995  0.00  0.00     0.100 A 
ATOM     16  C   UNL d   1      51.593  34.688  53.202  0.00  0.00     0.100 A 
ATOM     17  N   UNL d   1      50.824  34.392  53.192  0.00  0.00    -0.297 N 
ATOM     18  C   UNL d   1      50.686  33.603  52.971  0.00  0.00     0.100 A 
ATOM     19  C   UNL d   1      51.315  33.124  52.765  0.00  0.00     0.100 A 
BRANCH  17  20
ATOM     20  C   UNL d   1      50.193  34.873  53.399  0.00  0.00     0.126 C 
BRANCH  20  21
ATOM     21  C   UNL d   1      49.537  34.934  52.909  0.00  0.00     0.253 C 
ATOM     22  O   UNL d   1      48.910  35.444  53.113  0.00  0.00    -0.281 OA
ENDBRANCH  20  21
ENDBRANCH  17  20
ENDBRANCH  13  14
ENDBRANCH   1  13
TORSDOF 4
ENDMDL
