MODEL 1
REMARK VINA RESULT:      -6.0      0.000      0.000
REMARK  5 active torsions:
REMARK  status: ('A' for Active; 'I' for Inactive)
REMARK    1  A    between atoms: N_2  and  S_1 
REMARK    2  A    between atoms: C_7  and  S_1 
REMARK    3  A    between atoms: C_3  and  N_2 
REMARK       I    between atoms: C_11  and  N_12 
REMARK    4  A    between atoms: C_19  and  C_11 
REMARK    5  A    between atoms: N_12  and  C_16 
ROOT
ATOM      1  C   UNL d   1     -41.167-122.593 -52.263  0.00  0.00     0.105 A 
ATOM      2  C   UNL d   1     -41.123-123.409 -52.116  0.00  0.00     0.015 A 
ATOM      3  C   UNL d   1     -41.228-122.064 -51.670  0.00  0.00     0.015 A 
ATOM      4  C   UNL d   1     -41.205-123.166 -50.737  0.00  0.00     0.085 A 
ATOM      5  C   UNL d   1     -41.142-123.685 -51.353  0.00  0.00     0.020 A 
ATOM      6  C   UNL d   1     -41.248-122.350 -50.886  0.00  0.00     0.020 A 
ENDROOT
BRANCH   1   7
ATOM      7  S   UNL d   1     -41.145-122.316 -53.058  0.00  0.00     0.287 S 
ATOM      8  O   UNL d   1     -41.156-123.116 -53.348  0.00  0.00    -0.198 OA
ATOM      9  O   UNL d   1     -41.135-121.538 -52.784  0.00  0.00    -0.198 OA
BRANCH   7  10
ATOM     10  N   UNL d   1     -41.124-122.037 -53.842  0.00  0.00    -0.137 NA
BRANCH  10  11
ATOM     11  C   UNL d   1     -41.823-122.012 -54.299  0.00  0.00     0.203 A 
ATOM     12  N   UNL d   1     -42.380-121.437 -54.137  0.00  0.00    -0.106 NA
ATOM     13  O   UNL d   1     -43.001-121.559 -54.679  0.00  0.00    -0.210 OA
ATOM     14  C   UNL d   1     -42.815-122.193 -55.152  0.00  0.00     0.128 A 
ATOM     15  C   UNL d   1     -42.067-122.486 -54.916  0.00  0.00     0.069 A 
ATOM     16  C   UNL d   1     -43.281-122.495 -55.759  0.00  0.00     0.029 C 
ENDBRANCH  10  11
ENDBRANCH   7  10
ENDBRANCH   1   7
BRANCH   4  17
ATOM     17  N   UNL d   1     -41.225-123.443 -49.951  0.00  0.00    -0.208 NA
ATOM     18  C   UNL d   1     -41.903-123.353 -49.501  0.00  0.00     0.279 C 
ATOM     19  O   UNL d   1     -41.923-123.627 -48.720  0.00  0.00    -0.265 OA
BRANCH  18  20
ATOM     20  C   UNL d   1     -42.557-122.991 -49.827  0.00  0.00     0.062 C 
ATOM     21  C   UNL d   1     -43.216-122.784 -49.345  0.00  0.00     0.005 C 
ENDBRANCH  18  20
ENDBRANCH   4  17
TORSDOF 5
ENDMDL
MODEL 2
REMARK VINA RESULT:      -5.8      1.303      1.772
REMARK  5 active torsions:
REMARK  status: ('A' for Active; 'I' for Inactive)
REMARK    1  A    between atoms: N_2  and  S_1 
REMARK    2  A    between atoms: C_7  and  S_1 
REMARK    3  A    between atoms: C_3  and  N_2 
REMARK       I    between atoms: C_11  and  N_12 
REMARK    4  A    between atoms: C_19  and  C_11 
REMARK    5  A    between atoms: N_12  and  C_16 
ROOT
ATOM      1  C   UNL d   1     -41.879-122.737 -50.833  0.00  0.00     0.105 A 
ATOM      2  C   UNL d   1     -41.739-123.519 -50.590  0.00  0.00     0.015 A 
ATOM      3  C   UNL d   1     -42.363-122.254 -50.425  0.00  0.00     0.015 A 
ATOM      4  C   UNL d   1     -42.594-123.333 -49.494  0.00  0.00     0.085 A 
ATOM      5  C   UNL d   1     -42.100-123.807 -49.922  0.00  0.00     0.020 A 
ATOM      6  C   UNL d   1     -42.733-122.551 -49.738  0.00  0.00     0.020 A 
ENDROOT
BRANCH   1   7
ATOM      7  S   UNL d   1     -41.500-122.448 -51.527  0.00  0.00     0.287 S 
ATOM      8  O   UNL d   1     -41.865-121.687 -51.422  0.00  0.00    -0.198 OA
ATOM      9  O   UNL d   1     -41.143-123.184 -51.635  0.00  0.00    -0.198 OA
BRANCH   7  10
ATOM     10  N   UNL d   1     -41.123-122.168 -52.214  0.00  0.00    -0.137 NA
BRANCH  10  11
ATOM     11  C   UNL d   1     -41.487-122.258 -52.961  0.00  0.00     0.203 A 
ATOM     12  N   UNL d   1     -42.131-121.793 -53.146  0.00  0.00    -0.106 NA
ATOM     13  O   UNL d   1     -42.362-122.014 -53.915  0.00  0.00    -0.210 OA
ATOM     14  C   UNL d   1     -41.863-122.599 -54.180  0.00  0.00     0.128 A 
ATOM     15  C   UNL d   1     -41.304-122.759 -53.578  0.00  0.00     0.069 A 
ATOM     16  C   UNL d   1     -41.901-122.969 -54.914  0.00  0.00     0.029 C 
ENDBRANCH  10  11
ENDBRANCH   7  10
ENDBRANCH   1   7
BRANCH   4  17
ATOM     17  N   UNL d   1     -42.968-123.622 -48.807  0.00  0.00    -0.208 NA
ATOM     18  C   UNL d   1     -42.616-123.523 -48.075  0.00  0.00     0.279 C 
ATOM     19  O   UNL d   1     -42.987-123.810 -47.393  0.00  0.00    -0.265 OA
BRANCH  18  20
ATOM     20  C   UNL d   1     -41.898-123.141 -48.022  0.00  0.00     0.062 C 
ATOM     21  C   UNL d   1     -41.558-122.971 -47.270  0.00  0.00     0.005 C 
ENDBRANCH  18  20
ENDBRANCH   4  17
TORSDOF 5
ENDMDL
MODEL 3
REMARK VINA RESULT:      -5.4      1.181      4.293
REMARK  5 active torsions:
REMARK  status: ('A' for Active; 'I' for Inactive)
REMARK    1  A    between atoms: N_2  and  S_1 
REMARK    2  A    between atoms: C_7  and  S_1 
REMARK    3  A    between atoms: C_3  and  N_2 
REMARK       I    between atoms: C_11  and  N_12 
REMARK    4  A    between atoms: C_19  and  C_11 
REMARK    5  A    between atoms: N_12  and  C_16 
ROOT
ATOM      1  C   UNL d   1     -41.176-122.872 -52.396  0.00  0.00     0.105 A 
ATOM      2  C   UNL d   1     -41.138-122.105 -52.711  0.00  0.00     0.015 A 
ATOM      3  C   UNL d   1     -41.199-123.516 -52.864  0.00  0.00     0.015 A 
ATOM      4  C   UNL d   1     -41.144-122.636 -54.009  0.00  0.00     0.085 A 
ATOM      5  C   UNL d   1     -41.123-121.997 -53.515  0.00  0.00     0.020 A 
ATOM      6  C   UNL d   1     -41.182-123.403 -53.692  0.00  0.00     0.020 A 
ENDROOT
BRANCH   1   7
ATOM      7  S   UNL d   1     -41.192-122.974 -51.560  0.00  0.00     0.287 S 
ATOM      8  O   UNL d   1     -41.126-123.817 -51.650  0.00  0.00    -0.198 OA
ATOM      9  O   UNL d   1     -41.257-122.156 -51.465  0.00  0.00    -0.198 OA
BRANCH   7  10
ATOM     10  N   UNL d   1     -41.208-123.068 -50.732  0.00  0.00    -0.137 NA
BRANCH  10  11
ATOM     11  C   UNL d   1     -41.937-123.087 -50.325  0.00  0.00     0.203 A 
ATOM     12  N   UNL d   1     -42.360-122.394 -50.239  0.00  0.00    -0.106 NA
ATOM     13  O   UNL d   1     -43.049-122.595 -49.816  0.00  0.00    -0.210 OA
ATOM     14  C   UNL d   1     -43.034-123.392 -49.654  0.00  0.00     0.128 A 
ATOM     15  C   UNL d   1     -42.329-123.711 -49.976  0.00  0.00     0.069 A 
ATOM     16  C   UNL d   1     -43.611-123.813 -49.246  0.00  0.00     0.029 C 
ENDBRANCH  10  11
ENDBRANCH   7  10
ENDBRANCH   1   7
BRANCH   4  17
ATOM     17  N   UNL d   1     -41.128-122.533 -54.836  0.00  0.00    -0.208 NA
ATOM     18  C   UNL d   1     -41.812-122.336 -55.239  0.00  0.00     0.279 C 
ATOM     19  O   UNL d   1     -41.797-122.233 -56.060  0.00  0.00    -0.265 OA
BRANCH  18  20
ATOM     20  C   UNL d   1     -42.510-122.240 -54.826  0.00  0.00     0.062 C 
ATOM     21  C   UNL d   1     -43.217-122.019 -55.226  0.00  0.00     0.005 C 
ENDBRANCH  18  20
ENDBRANCH   4  17
TORSDOF 5
ENDMDL
