MODEL 1
REMARK VINA RESULT:      76.5      0.000      0.000
REMARK  4 active torsions:
REMARK  status: ('A' for Active; 'I' for Inactive)
REMARK    1  A    between atoms: N_9  and  C_3 
REMARK    2  A    between atoms: C_11  and  C_4 
REMARK    3  A    between atoms: C_15  and  C_10 
REMARK    4  A    between atoms: C_20  and  C_15 
ROOT
ATOM      1  N   UNL d   1      58.805  49.280  51.205  0.00  0.00    -0.196 N 
ATOM      2  C   UNL d   1      59.614  49.289  51.424  0.00  0.00     0.167 A 
ATOM      3  C   UNL d   1      58.614  49.069  50.450  0.00  0.00     0.153 A 
ATOM      4  C   UNL d   1      59.829  49.498  52.175  0.00  0.00     0.057 A 
ATOM      5  N   UNL d   1      58.460  49.694  52.510  0.00  0.00    -0.161 NA
ATOM      6  N   UNL d   1      60.185  49.085  50.877  0.00  0.00    -0.227 NA
ATOM      7  C   UNL d   1      59.179  48.862  49.893  0.00  0.00     0.057 A 
ATOM      8  C   UNL d   1      59.256  49.703  52.726  0.00  0.00     0.124 A 
ATOM      9  C   UNL d   1      59.975  48.871  50.110  0.00  0.00     0.086 A 
ENDROOT
BRANCH   3  10
ATOM     10  N   UNL d   1      57.792  49.060  50.227  0.00  0.00    -0.285 N 
ATOM     11  C   UNL d   1      57.265  48.467  50.545  0.00  0.00     0.108 A 
ATOM     12  C   UNL d   1      56.453  48.465  50.319  0.00  0.00     0.142 A 
ATOM     13  O   UNL d   1      56.152  49.050  49.776  0.00  0.00    -0.300 OA
ATOM     14  C   UNL d   1      56.686  49.634  49.468  0.00  0.00     0.142 A 
ATOM     15  C   UNL d   1      57.498  49.643  49.689  0.00  0.00     0.108 A 
ENDBRANCH   3  10
BRANCH   9  16
ATOM     16  C   UNL d   1      60.575  48.658  49.541  0.00  0.00     0.019 C 
BRANCH  16  17
ATOM     17  C   UNL d   1      61.295  49.102  49.489  0.00  0.00     0.002 C 
ATOM     18  C   UNL d   1      61.397  49.707  48.901  0.00  0.00     0.000 C 
ENDBRANCH  16  17
ENDBRANCH   9  16
BRANCH   4  19
ATOM     19  C   UNL d   1      60.632  49.502  52.380  0.00  0.00     0.004 A 
ATOM     20  C   UNL d   1      61.184  49.333  51.800  0.00  0.00     0.000 A 
ATOM     21  C   UNL d   1      61.987  49.335  51.992  0.00  0.00     0.000 A 
ATOM     22  C   UNL d   1      62.220  49.505  52.760  0.00  0.00     0.000 A 
ATOM     23  C   UNL d   1      61.668  49.669  53.322  0.00  0.00     0.000 A 
ATOM     24  C   UNL d   1      60.865  49.668  53.130  0.00  0.00     0.000 A 
ENDBRANCH   4  19
TORSDOF 4
ENDMDL
MODEL 2
REMARK VINA RESULT:      77.6      1.740      2.817
REMARK  4 active torsions:
REMARK  status: ('A' for Active; 'I' for Inactive)
REMARK    1  A    between atoms: N_9  and  C_3 
REMARK    2  A    between atoms: C_11  and  C_4 
REMARK    3  A    between atoms: C_15  and  C_10 
REMARK    4  A    between atoms: C_20  and  C_15 
ROOT
ATOM      1  N   UNL d   1      57.607  49.521  52.068  0.00  0.00    -0.196 N 
ATOM      2  C   UNL d   1      57.882  49.521  52.860  0.00  0.00     0.167 A 
ATOM      3  C   UNL d   1      58.146  49.427  51.475  0.00  0.00     0.153 A 
ATOM      4  C   UNL d   1      57.360  49.614  53.471  0.00  0.00     0.057 A 
ATOM      5  N   UNL d   1      56.289  49.707  52.539  0.00  0.00    -0.161 NA
ATOM      6  N   UNL d   1      58.679  49.428  53.014  0.00  0.00    -0.227 NA
ATOM      7  C   UNL d   1      58.947  49.333  51.618  0.00  0.00     0.057 A 
ATOM      8  C   UNL d   1      56.559  49.707  53.319  0.00  0.00     0.124 A 
ATOM      9  C   UNL d   1      59.217  49.333  52.397  0.00  0.00     0.086 A 
ENDROOT
BRANCH   3  10
ATOM     10  N   UNL d   1      57.866  49.426  50.670  0.00  0.00    -0.285 N 
ATOM     11  C   UNL d   1      57.075  49.159  50.489  0.00  0.00     0.108 A 
ATOM     12  C   UNL d   1      56.806  49.161  49.690  0.00  0.00     0.142 A 
ATOM     13  O   UNL d   1      57.317  49.428  49.061  0.00  0.00    -0.300 OA
ATOM     14  C   UNL d   1      58.101  49.692  49.254  0.00  0.00     0.142 A 
ATOM     15  C   UNL d   1      58.376  49.692  50.050  0.00  0.00     0.108 A 
ENDBRANCH   3  10
BRANCH   9  16
ATOM     16  C   UNL d   1      60.049  49.236  52.562  0.00  0.00     0.019 C 
BRANCH  16  17
ATOM     17  C   UNL d   1      60.603  49.124  51.931  0.00  0.00     0.002 C 
ATOM     18  C   UNL d   1      61.424  49.322  52.026  0.00  0.00     0.000 C 
ENDBRANCH  16  17
ENDBRANCH   9  16
BRANCH   4  19
ATOM     19  C   UNL d   1      57.644  49.613  54.250  0.00  0.00     0.004 A 
ATOM     20  C   UNL d   1      58.453  49.622  54.371  0.00  0.00     0.000 A 
ATOM     21  C   UNL d   1      58.748  49.621  55.141  0.00  0.00     0.000 A 
ATOM     22  C   UNL d   1      58.227  49.611  55.775  0.00  0.00     0.000 A 
ATOM     23  C   UNL d   1      57.433  49.602  55.644  0.00  0.00     0.000 A 
ATOM     24  C   UNL d   1      57.138  49.603  54.873  0.00  0.00     0.000 A 
ENDBRANCH   4  19
TORSDOF 4
ENDMDL
MODEL 3
REMARK VINA RESULT:      79.5      1.557      2.751
REMARK  4 active torsions:
REMARK  status: ('A' for Active; 'I' for Inactive)
REMARK    1  A    between atoms: N_9  and  C_3 
REMARK    2  A    between atoms: C_11  and  C_4 
REMARK    3  A    between atoms: C_15  and  C_10 
REMARK    4  A    between atoms: C_20  and  C_15 
ROOT
ATOM      1  N   UNL d   1      58.818  49.292  52.239  0.00  0.00    -0.196 N 
ATOM      2  C   UNL d   1      59.342  49.221  51.589  0.00  0.00     0.167 A 
ATOM      3  C   UNL d   1      58.030  49.379  52.091  0.00  0.00     0.153 A 
ATOM      4  C   UNL d   1      60.135  49.132  51.715  0.00  0.00     0.057 A 
ATOM      5  N   UNL d   1      59.917  49.182  53.119  0.00  0.00    -0.161 NA
ATOM      6  N   UNL d   1      59.048  49.241  50.827  0.00  0.00    -0.227 NA
ATOM      7  C   UNL d   1      57.725  49.401  51.330  0.00  0.00     0.057 A 
ATOM      8  C   UNL d   1      60.432  49.112  52.479  0.00  0.00     0.124 A 
ATOM      9  C   UNL d   1      58.240  49.330  50.690  0.00  0.00     0.086 A 
ENDROOT
BRANCH   3  10
ATOM     10  N   UNL d   1      57.498  49.452  52.752  0.00  0.00    -0.285 N 
ATOM     11  C   UNL d   1      57.801  49.618  53.533  0.00  0.00     0.108 A 
ATOM     12  C   UNL d   1      57.268  49.689  54.183  0.00  0.00     0.142 A 
ATOM     13  O   UNL d   1      56.428  49.595  54.066  0.00  0.00    -0.300 OA
ATOM     14  C   UNL d   1      56.140  49.430  53.285  0.00  0.00     0.142 A 
ATOM     15  C   UNL d   1      56.666  49.358  52.632  0.00  0.00     0.108 A 
ENDBRANCH   3  10
BRANCH   9  16
ATOM     16  C   UNL d   1      57.937  49.351  49.893  0.00  0.00     0.019 C 
BRANCH  16  17
ATOM     17  C   UNL d   1      57.179  49.692  49.728  0.00  0.00     0.002 C 
ATOM     18  C   UNL d   1      56.530  49.601  50.269  0.00  0.00     0.000 C 
ENDBRANCH  16  17
ENDBRANCH   9  16
BRANCH   4  19
ATOM     19  C   UNL d   1      60.643  49.063  51.063  0.00  0.00     0.004 A 
ATOM     20  C   UNL d   1      60.740  48.326  50.720  0.00  0.00     0.000 A 
ATOM     21  C   UNL d   1      61.243  48.244  50.071  0.00  0.00     0.000 A 
ATOM     22  C   UNL d   1      61.638  48.900  49.779  0.00  0.00     0.000 A 
ATOM     23  C   UNL d   1      61.535  49.620  50.124  0.00  0.00     0.000 A 
ATOM     24  C   UNL d   1      61.032  49.702  50.773  0.00  0.00     0.000 A 
ENDBRANCH   4  19
TORSDOF 4
ENDMDL
