MODEL 1
REMARK VINA RESULT:      37.4      0.000      0.000
REMARK  3 active torsions:
REMARK  status: ('A' for Active; 'I' for Inactive)
REMARK    1  A    between atoms: C_6  and  C_1 
REMARK    2  A    between atoms: C_10  and  C_3 
REMARK    3  A    between atoms: C_8  and  N_4 
REMARK       I    between atoms: N_7  and  C_6 
ROOT
ATOM      1  C   UNL d   1      45.670 -17.584  43.414  0.00  0.00     0.095 A 
ATOM      2  N   UNL d   1      46.313 -17.362  44.668  0.00  0.00    -0.165 NA
ATOM      3  C   UNL d   1      46.051 -17.875  44.085  0.00  0.00     0.107 A 
ATOM      4  N   UNL d   1      45.817 -16.251  43.921  0.00  0.00    -0.228 N 
ATOM      5  C   UNL d   1      45.556 -16.773  43.339  0.00  0.00     0.107 A 
ENDROOT
BRANCH   1   6
ATOM      6  C   UNL d   1      45.409 -18.107  42.833  0.00  0.00     0.268 C 
ATOM      7  N   UNL d   1      45.730 -18.049  42.039  0.00  0.00    -0.272 N 
ATOM      8  C   UNL d   1      45.466 -18.586  41.430  0.00  0.00     0.083 A 
ATOM      9  C   UNL d   1      46.316 -17.455  41.857  0.00  0.00     0.083 A 
ATOM     10  C   UNL d   1      45.786 -18.529  40.641  0.00  0.00     0.019 A 
ATOM     11  C   UNL d   1      46.369 -17.934  40.466  0.00  0.00     0.003 A 
ATOM     12  C   UNL d   1      46.636 -17.397  41.068  0.00  0.00     0.019 A 
ATOM     13  O   UNL d   1      44.852 -18.674  43.003  0.00  0.00    -0.267 OA
ENDBRANCH   1   6
BRANCH   3  14
ATOM     14  C   UNL d   1      46.169 -18.689  44.170  0.00  0.00     0.023 A 
ATOM     15  C   UNL d   1      46.510 -19.117  43.552  0.00  0.00     0.022 A 
ATOM     16  C   UNL d   1      46.626 -19.928  43.642  0.00  0.00     0.099 A 
ATOM     17  N   UNL d   1      46.404 -20.307  44.341  0.00  0.00    -0.242 NA
ATOM     18  C   UNL d   1      46.064 -19.871  44.953  0.00  0.00     0.099 A 
ATOM     19  C   UNL d   1      45.947 -19.062  44.866  0.00  0.00     0.022 A 
ENDBRANCH   3  14
BRANCH   4  20
ATOM     20  C   UNL d   1      45.799 -15.437  44.026  0.00  0.00     0.083 A 
ATOM     21  C   UNL d   1      46.293 -14.957  43.584  0.00  0.00     0.019 A 
ATOM     22  C   UNL d   1      46.274 -14.143  43.690  0.00  0.00     0.002 A 
ATOM     23  C   UNL d   1      45.758 -13.805  44.242  0.00  0.00     0.000 A 
ATOM     24  C   UNL d   1      45.259 -14.294  44.689  0.00  0.00     0.002 A 
ATOM     25  C   UNL d   1      45.279 -15.114  44.581  0.00  0.00     0.019 A 
ENDBRANCH   4  20
TORSDOF 3
ENDMDL
