MODEL 1
REMARK VINA RESULT:      18.6      0.000      0.000
REMARK  4 active torsions:
REMARK  status: ('A' for Active; 'I' for Inactive)
REMARK    1  A    between atoms: C_2  and  C_1 
REMARK    2  A    between atoms: O_6  and  C_3 
REMARK    3  A    between atoms: C_4  and  C_9 
REMARK    4  A    between atoms: C_9  and  O_6 
ROOT
ATOM      1  C   UNL d   1     -51.772  25.127  33.319  0.00  0.00     0.000 A 
ATOM      2  C   UNL d   1     -51.024  24.760  33.319  0.00  0.00     0.091 A 
ATOM      3  C   UNL d   1     -52.462  24.643  33.323  0.00  0.00     0.004 A 
ATOM      4  C   UNL d   1     -50.957  23.938  33.323  0.00  0.00     0.024 A 
ATOM      5  C   UNL d   1     -52.386  23.822  33.327  0.00  0.00     0.035 A 
ATOM      6  C   UNL d   1     -51.638  23.474  33.327  0.00  0.00     0.009 A 
ATOM      7 BR   UNL d   1     -53.076  23.336  33.331  0.00  0.00    -0.049 Br
ENDROOT
BRANCH   2   8
ATOM      8  O   UNL d   1     -50.344  25.243  33.315  0.00  0.00    -0.320 OA
BRANCH   8   9
ATOM      9  C   UNL d   1     -49.573  24.901  33.307  0.00  0.00     0.246 C 
BRANCH   9  10
ATOM     10  C   UNL d   1     -48.947  25.271  33.695  0.00  0.00     0.217 C 
ATOM     11  O   UNL d   1     -48.813  26.083  33.568  0.00  0.00    -0.645 OA
ATOM     12  O   UNL d   1     -48.471  24.826  34.200  0.00  0.00    -0.645 OA
ENDBRANCH   9  10
ENDBRANCH   8   9
ENDBRANCH   2   8
BRANCH   1  13
ATOM     13  C   UNL d   1     -51.839  25.946  33.315  0.00  0.00     0.021 C 
ATOM     14  C   UNL d   1     -51.906  26.770  33.311  0.00  0.00     0.004 C 
ATOM     15  C   UNL d   1     -51.011  26.013  33.307  0.00  0.00     0.004 C 
ATOM     16  C   UNL d   1     -52.653  25.880  33.322  0.00  0.00     0.004 C 
ENDBRANCH   1  13
TORSDOF 4
ENDMDL
