MODEL 1
REMARK VINA RESULT:      15.3      0.000      0.000
REMARK  3 active torsions:
REMARK  status: ('A' for Active; 'I' for Inactive)
REMARK    1  A    between atoms: S_11  and  C_1 
REMARK    2  A    between atoms: C_7  and  C_13 
REMARK    3  A    between atoms: C_13  and  S_11 
ROOT
ATOM      1  C   UNL d   1      13.402  11.808  -2.655  0.00  0.00     0.141 A 
ATOM      2  N   UNL d   1      13.077  11.781  -1.898  0.00  0.00    -0.232 NA
ATOM      3  S   UNL d   1      14.213  11.867  -2.584  0.00  0.00    -0.060 SA
ATOM      4  C   UNL d   1      13.692  11.824  -1.352  0.00  0.00     0.088 A 
ATOM      5  C   UNL d   1      14.409  11.877  -1.781  0.00  0.00     0.049 A 
ATOM      6  C   UNL d   1      13.711  11.821  -0.528  0.00  0.00     0.020 A 
ATOM      7  C   UNL d   1      15.123  11.928  -1.382  0.00  0.00     0.008 A 
ATOM      8  C   UNL d   1      15.145  11.925  -0.554  0.00  0.00     0.001 A 
ATOM      9  C   UNL d   1      14.434  11.872  -0.125  0.00  0.00     0.002 A 
ENDROOT
BRANCH   1  10
ATOM     10  S   UNL d   1      12.974  11.780  -3.362  0.00  0.00    -0.057 SA
BRANCH  10  11
ATOM     11  C   UNL d   1      12.975  12.432  -3.867  0.00  0.00     0.084 C 
BRANCH  11  12
ATOM     12  C   UNL d   1      13.223  12.349  -4.643  0.00  0.00     0.212 A 
ATOM     13  O   UNL d   1      13.783  12.813  -5.028  0.00  0.00    -0.259 OA
ATOM     14  C   UNL d   1      13.862  12.535  -5.800  0.00  0.00     0.262 A 
ATOM     15  S   UNL d   1      14.364  12.843  -6.371  0.00  0.00    -0.029 SA
ATOM     16  N   UNL d   1      13.349  11.899  -5.894  0.00  0.00    -0.109 NA
ATOM     17  N   UNL d   1      12.952  11.780  -5.181  0.00  0.00    -0.119 NA
ENDBRANCH  11  12
ENDBRANCH  10  11
ENDBRANCH   1  10
TORSDOF 3
ENDMDL
