MODEL 1
REMARK VINA RESULT:      19.7      0.000      0.000
REMARK  2 active torsions:
REMARK  status: ('A' for Active; 'I' for Inactive)
REMARK    1  A    between atoms: C_2  and  C_1 
REMARK       I    between atoms: N_3  and  C_2 
REMARK    2  A    between atoms: C_6  and  N_3 
ROOT
ATOM      1  C   UNL d   1     -51.808  24.975  33.563  0.00  0.00     0.303 C 
ATOM      2  N   UNL d   1     -51.851  25.765  33.310  0.00  0.00    -0.206 NA
ATOM      3  O   UNL d   1     -51.089  24.666  33.818  0.00  0.00    -0.263 OA
ENDROOT
BRANCH   2   4
ATOM      4  C   UNL d   1     -51.170  26.235  33.316  0.00  0.00     0.086 A 
ATOM      5  C   UNL d   1     -50.421  25.876  33.322  0.00  0.00     0.031 A 
ATOM      6  C   UNL d   1     -49.754  26.355  33.327  0.00  0.00     0.059 A 
ATOM      7 CL   UNL d   1     -49.012  25.994  33.334  0.00  0.00    -0.082 Cl
ATOM      8  C   UNL d   1     -49.828  27.167  33.326  0.00  0.00     0.011 A 
ATOM      9  C   UNL d   1     -50.560  27.527  33.320  0.00  0.00     0.002 A 
ATOM     10  C   UNL d   1     -51.240  27.058  33.314  0.00  0.00     0.018 A 
ATOM     11  C   UNL d   1     -51.974  27.408  33.308  0.00  0.00     0.002 C 
ENDBRANCH   2   4
BRANCH   1  12
ATOM     12  C   UNL d   1     -52.487  24.506  33.558  0.00  0.00     0.176 A 
ATOM     13  C   UNL d   1     -52.504  23.680  33.502  0.00  0.00     0.110 A 
ATOM     14  N   UNL d   1     -53.293  23.438  33.517  0.00  0.00    -0.233 NA
ATOM     15  C   UNL d   1     -51.850  23.190  33.443  0.00  0.00     0.023 C 
ATOM     16  C   UNL d   1     -53.767  24.122  33.582  0.00  0.00     0.259 A 
ATOM     17  O   UNL d   1     -53.262  24.776  33.607  0.00  0.00    -0.296 OA
ENDBRANCH   1  12
TORSDOF 2
ENDMDL
