MODEL 1
REMARK VINA RESULT:      84.7      0.000      0.000
REMARK  12 active torsions:
REMARK  status: ('A' for Active; 'I' for Inactive)
REMARK    1  A    between atoms: C_8  and  C_1 
REMARK    2  A    between atoms: C_9  and  C_2 
REMARK    3  A    between atoms: C_7  and  C_3 
REMARK    4  A    between atoms: S_10  and  C_4 
REMARK    5  A    between atoms: O_23  and  C_8 
REMARK    6  A    between atoms: C_20  and  S_10 
REMARK    7  A    between atoms: O_25  and  C_13 
REMARK    8  A    between atoms: C_14  and  C_20 
REMARK    9  A    between atoms: O_26  and  C_14 
REMARK   10  A    between atoms: C_21  and  C_28 
REMARK   11  A    between atoms: C_28  and  O_23 
REMARK   12  A    between atoms: C_29  and  O_26 
ROOT
ATOM      1  C   UNL d   1      60.498  48.336  50.601  0.00  0.00     0.081 A 
ATOM      2  C   UNL d   1      59.212  47.731  50.781  0.00  0.00     0.045 A 
ATOM      3  C   UNL d   1      60.025  47.667  50.756  0.00  0.00     0.010 A 
ATOM      4  C   UNL d   1      58.861  48.454  50.652  0.00  0.00     0.112 A 
ATOM      5  C   UNL d   1      60.155  49.043  50.475  0.00  0.00     0.087 A 
ATOM      6  N   UNL d   1      59.322  49.117  50.498  0.00  0.00    -0.239 NA
ATOM      7  C   UNL d   1      60.668  49.698  50.321  0.00  0.00     0.021 C 
ENDROOT
BRANCH   3   8
ATOM      8  C   UNL d   1      60.381  46.933  50.887  0.00  0.00     0.003 A 
ATOM      9  C   UNL d   1      60.787  46.546  50.268  0.00  0.00     0.028 A 
ATOM     10  C   UNL d   1      61.142  45.813  50.398  0.00  0.00     0.133 A 
ATOM     11  C   UNL d   1      61.089  45.473  51.147  0.00  0.00     0.218 A 
ATOM     12  C   UNL d   1      60.691  45.855  51.751  0.00  0.00     0.044 A 
ATOM     13  O   UNL d   1      61.430  44.751  51.305  0.00  0.00    -0.284 OA
ATOM     14  C   UNL d   1      60.335  46.588  51.621  0.00  0.00     0.003 A 
BRANCH  10  15
ATOM     15  O   UNL d   1      61.554  45.414  49.780  0.00  0.00    -0.325 OA
ATOM     16  C   UNL d   1      61.793  45.827  49.106  0.00  0.00     0.181 C 
ENDBRANCH  10  15
ENDBRANCH   3   8
BRANCH   2  17
ATOM     17  C   UNL d   1      58.741  47.057  50.937  0.00  0.00     0.124 C 
ATOM     18  N   UNL d   1      57.914  47.094  50.818  0.00  0.00    -0.146 N 
ENDBRANCH   2  17
BRANCH   1  19
ATOM     19  C   UNL d   1      61.345  48.301  50.569  0.00  0.00     0.302 C 
ATOM     20  O   UNL d   1      61.721  47.718  50.131  0.00  0.00    -0.259 OA
BRANCH  19  21
ATOM     21  O   UNL d   1      61.775  48.855  50.980  0.00  0.00    -0.271 OA
BRANCH  21  22
ATOM     22  C   UNL d   1      61.424  49.555  51.242  0.00  0.00     0.126 C 
BRANCH  22  23
ATOM     23  C   UNL d   1      61.380  49.702  52.045  0.00  0.00     0.027 C 
ATOM     24  C   UNL d   1      61.708  49.206  52.582  0.00  0.00     0.002 C 
ENDBRANCH  22  23
ENDBRANCH  21  22
ENDBRANCH  19  21
ENDBRANCH   1  19
BRANCH   4  25
ATOM     25  S   UNL d   1      58.050  48.564  50.667  0.00  0.00    -0.062 SA
BRANCH  25  26
ATOM     26  C   UNL d   1      57.724  49.166  50.232  0.00  0.00     0.105 C 
BRANCH  26  27
ATOM     27  C   UNL d   1      56.902  49.254  50.220  0.00  0.00     0.307 C 
ATOM     28  O   UNL d   1      56.524  49.504  49.536  0.00  0.00    -0.258 OA
BRANCH  27  29
ATOM     29  O   UNL d   1      56.474  49.088  50.896  0.00  0.00    -0.271 OA
BRANCH  29  30
ATOM     30  C   UNL d   1      56.119  49.705  51.295  0.00  0.00     0.126 C 
ATOM     31  C   UNL d   1      56.040  49.674  52.105  0.00  0.00     0.029 C 
ENDBRANCH  29  30
ENDBRANCH  27  29
ENDBRANCH  26  27
ENDBRANCH  25  26
ENDBRANCH   4  25
TORSDOF 12
ENDMDL
MODEL 2
REMARK VINA RESULT:      85.4      1.444      2.551
REMARK  12 active torsions:
REMARK  status: ('A' for Active; 'I' for Inactive)
REMARK    1  A    between atoms: C_8  and  C_1 
REMARK    2  A    between atoms: C_9  and  C_2 
REMARK    3  A    between atoms: C_7  and  C_3 
REMARK    4  A    between atoms: S_10  and  C_4 
REMARK    5  A    between atoms: O_23  and  C_8 
REMARK    6  A    between atoms: C_20  and  S_10 
REMARK    7  A    between atoms: O_25  and  C_13 
REMARK    8  A    between atoms: C_14  and  C_20 
REMARK    9  A    between atoms: O_26  and  C_14 
REMARK   10  A    between atoms: C_21  and  C_28 
REMARK   11  A    between atoms: C_28  and  O_23 
REMARK   12  A    between atoms: C_29  and  O_26 
ROOT
ATOM      1  C   UNL d   1      60.865  47.661  51.593  0.00  0.00     0.081 A 
ATOM      2  C   UNL d   1      60.623  48.605  50.542  0.00  0.00     0.045 A 
ATOM      3  C   UNL d   1      61.008  47.941  50.821  0.00  0.00     0.010 A 
ATOM      4  C   UNL d   1      60.095  48.995  51.024  0.00  0.00     0.112 A 
ATOM      5  C   UNL d   1      60.349  48.043  52.064  0.00  0.00     0.087 A 
ATOM      6  N   UNL d   1      59.950  48.724  51.787  0.00  0.00    -0.239 NA
ATOM      7  C   UNL d   1      60.231  47.728  52.840  0.00  0.00     0.021 C 
ENDROOT
BRANCH   3   8
ATOM      8  C   UNL d   1      61.543  47.545  50.332  0.00  0.00     0.003 A 
ATOM      9  C   UNL d   1      61.290  46.896  49.870  0.00  0.00     0.028 A 
ATOM     10  C   UNL d   1      61.825  46.500  49.382  0.00  0.00     0.133 A 
ATOM     11  C   UNL d   1      62.608  46.757  49.359  0.00  0.00     0.218 A 
ATOM     12  C   UNL d   1      62.851  47.393  49.813  0.00  0.00     0.044 A 
ATOM     13  O   UNL d   1      63.157  46.386  48.887  0.00  0.00    -0.284 OA
ATOM     14  C   UNL d   1      62.317  47.789  50.301  0.00  0.00     0.003 A 
BRANCH  10  15
ATOM     15  O   UNL d   1      61.580  45.844  48.912  0.00  0.00    -0.325 OA
ATOM     16  C   UNL d   1      62.066  45.182  48.838  0.00  0.00     0.181 C 
ENDBRANCH  10  15
ENDBRANCH   3   8
BRANCH   2  17
ATOM     17  C   UNL d   1      60.769  48.882  49.767  0.00  0.00     0.124 C 
ATOM     18  N   UNL d   1      61.208  49.586  49.656  0.00  0.00    -0.146 N 
ENDBRANCH   2  17
BRANCH   1  19
ATOM     19  C   UNL d   1      61.250  46.975  51.910  0.00  0.00     0.302 C 
ATOM     20  O   UNL d   1      61.749  47.040  52.558  0.00  0.00    -0.259 OA
BRANCH  19  21
ATOM     21  O   UNL d   1      61.115  46.254  51.560  0.00  0.00    -0.271 OA
BRANCH  21  22
ATOM     22  C   UNL d   1      60.808  45.622  51.995  0.00  0.00     0.126 C 
BRANCH  22  23
ATOM     23  C   UNL d   1      60.789  44.878  51.656  0.00  0.00     0.027 C 
ATOM     24  C   UNL d   1      60.110  44.565  51.368  0.00  0.00     0.002 C 
ENDBRANCH  22  23
ENDBRANCH  21  22
ENDBRANCH  19  21
ENDBRANCH   1  19
BRANCH   4  25
ATOM     25  S   UNL d   1      59.687  49.664  50.787  0.00  0.00    -0.062 SA
BRANCH  25  26
ATOM     26  C   UNL d   1      59.173  49.613  50.162  0.00  0.00     0.105 C 
BRANCH  26  27
ATOM     27  C   UNL d   1      58.359  49.605  50.311  0.00  0.00     0.307 C 
ATOM     28  O   UNL d   1      58.082  49.504  51.076  0.00  0.00    -0.258 OA
BRANCH  27  29
ATOM     29  O   UNL d   1      57.840  49.698  49.688  0.00  0.00    -0.271 OA
BRANCH  29  30
ATOM     30  C   UNL d   1      57.195  49.201  49.638  0.00  0.00     0.126 C 
ATOM     31  C   UNL d   1      56.645  49.186  50.238  0.00  0.00     0.029 C 
ENDBRANCH  29  30
ENDBRANCH  27  29
ENDBRANCH  26  27
ENDBRANCH  25  26
ENDBRANCH   4  25
TORSDOF 12
ENDMDL
