MODEL 1
REMARK VINA RESULT:      -3.1      0.000      0.000
REMARK  4 active torsions:
REMARK  status: ('A' for Active; 'I' for Inactive)
REMARK    1  A    between atoms: C_6  and  C_1 
REMARK    2  A    between atoms: C_4  and  C_8 
REMARK    3  A    between atoms: O_18  and  C_6 
REMARK    4  A    between atoms: C_19  and  O_18 
ROOT
ATOM      1  C   UNL d   1      31.826  17.371 -24.046  0.00  0.00     0.121 A 
ATOM      2  C   UNL d   1      30.570  16.702 -23.971  0.00  0.00     0.057 A 
ATOM      3  C   UNL d   1      31.032  17.330 -24.243  0.00  0.00     0.204 A 
ATOM      4  C   UNL d   1      29.772  16.667 -24.172  0.00  0.00     0.009 A 
ATOM      5  N   UNL d   1      31.708  16.151 -23.299  0.00  0.00    -0.244 NA
ATOM      6  C   UNL d   1      29.309  16.042 -23.903  0.00  0.00     0.072 A 
ATOM      7  C   UNL d   1      32.170  16.779 -23.571  0.00  0.00     0.107 A 
ATOM      8  C   UNL d   1      30.904  16.112 -23.500  0.00  0.00     0.085 A 
ATOM      9  C   UNL d   1      29.643  15.453 -23.432  0.00  0.00     0.005 A 
ATOM     10  C   UNL d   1      30.440  15.488 -23.231  0.00  0.00     0.019 A 
ATOM     11  O   UNL d   1      30.694  17.917 -24.713  0.00  0.00    -0.286 OA
ENDROOT
BRANCH   1  12
ATOM     12  C   UNL d   1      32.290  17.995 -24.315  0.00  0.00     0.305 C 
ATOM     13  O   UNL d   1      32.553  18.007 -25.097  0.00  0.00    -0.259 OA
BRANCH  12  14
ATOM     14  O   UNL d   1      32.495  18.615 -23.806  0.00  0.00    -0.271 OA
BRANCH  14  15
ATOM     15  C   UNL d   1      33.066  19.164 -24.038  0.00  0.00     0.126 C 
ATOM     16  C   UNL d   1      33.240  19.804 -23.545  0.00  0.00     0.029 C 
ENDBRANCH  14  15
ENDBRANCH  12  14
ENDBRANCH   1  12
BRANCH   6  17
ATOM     17  C   UNL d   1      28.511  16.007 -24.105  0.00  0.00     0.419 C 
ATOM     18  F   UNL d   1      28.288  15.871 -24.887  0.00  0.00    -0.166 F 
ATOM     19  F   UNL d   1      27.933  16.109 -23.522  0.00  0.00    -0.166 F 
ATOM     20  F   UNL d   1      28.730  16.143 -23.321  0.00  0.00    -0.166 F 
ENDBRANCH   6  17
TORSDOF 4
ENDMDL
MODEL 2
REMARK VINA RESULT:      -3.1      2.275      3.884
REMARK  4 active torsions:
REMARK  status: ('A' for Active; 'I' for Inactive)
REMARK    1  A    between atoms: C_6  and  C_1 
REMARK    2  A    between atoms: C_4  and  C_8 
REMARK    3  A    between atoms: O_18  and  C_6 
REMARK    4  A    between atoms: C_19  and  O_18 
ROOT
ATOM      1  C   UNL d   1      30.718  16.332 -24.029  0.00  0.00     0.121 A 
ATOM      2  C   UNL d   1      31.743  17.307 -23.860  0.00  0.00     0.057 A 
ATOM      3  C   UNL d   1      30.992  17.097 -24.131  0.00  0.00     0.204 A 
ATOM      4  C   UNL d   1      32.012  18.079 -23.967  0.00  0.00     0.009 A 
ATOM      5  N   UNL d   1      31.947  15.974 -23.380  0.00  0.00    -0.244 NA
ATOM      6  C   UNL d   1      32.761  18.292 -23.698  0.00  0.00     0.072 A 
ATOM      7  C   UNL d   1      31.196  15.764 -23.651  0.00  0.00     0.107 A 
ATOM      8  C   UNL d   1      32.222  16.750 -23.486  0.00  0.00     0.085 A 
ATOM      9  C   UNL d   1      33.240  17.734 -23.323  0.00  0.00     0.005 A 
ATOM     10  C   UNL d   1      32.971  16.964 -23.217  0.00  0.00     0.019 A 
ATOM     11  O   UNL d   1      30.516  17.657 -24.505  0.00  0.00    -0.286 OA
ENDROOT
BRANCH   1  12
ATOM     12  C   UNL d   1      29.970  16.118 -24.297  0.00  0.00     0.305 C 
ATOM     13  O   UNL d   1      29.849  15.958 -25.097  0.00  0.00    -0.259 OA
BRANCH  12  14
ATOM     14  O   UNL d   1      29.335  16.062 -23.768  0.00  0.00    -0.271 OA
BRANCH  14  15
ATOM     15  C   UNL d   1      28.629  15.712 -24.012  0.00  0.00     0.126 C 
ATOM     16  C   UNL d   1      27.990  15.676 -23.489  0.00  0.00     0.029 C 
ENDBRANCH  14  15
ENDBRANCH  12  14
ENDBRANCH   1  12
BRANCH   6  17
ATOM     17  C   UNL d   1      33.030  19.063 -23.804  0.00  0.00     0.419 C 
ATOM     18  F   UNL d   1      33.197  19.342 -24.563  0.00  0.00    -0.166 F 
ATOM     19  F   UNL d   1      33.133  19.558 -23.150  0.00  0.00    -0.166 F 
ATOM     20  F   UNL d   1      32.864  18.788 -23.045  0.00  0.00    -0.166 F 
ENDBRANCH   6  17
TORSDOF 4
ENDMDL
MODEL 3
REMARK VINA RESULT:      -2.3      2.435      4.006
REMARK  4 active torsions:
REMARK  status: ('A' for Active; 'I' for Inactive)
REMARK    1  A    between atoms: C_6  and  C_1 
REMARK    2  A    between atoms: C_4  and  C_8 
REMARK    3  A    between atoms: O_18  and  C_6 
REMARK    4  A    between atoms: C_19  and  O_18 
ROOT
ATOM      1  C   UNL d   1      29.599  16.569 -24.498  0.00  0.00     0.121 A 
ATOM      2  C   UNL d   1      30.893  16.988 -24.075  0.00  0.00     0.057 A 
ATOM      3  C   UNL d   1      30.256  16.466 -24.020  0.00  0.00     0.204 A 
ATOM      4  C   UNL d   1      31.551  16.879 -23.591  0.00  0.00     0.009 A 
ATOM      5  N   UNL d   1      30.208  17.722 -25.095  0.00  0.00    -0.244 NA
ATOM      6  C   UNL d   1      32.187  17.398 -23.643  0.00  0.00     0.072 A 
ATOM      7  C   UNL d   1      29.571  17.200 -25.041  0.00  0.00     0.107 A 
ATOM      8  C   UNL d   1      30.873  17.616 -24.610  0.00  0.00     0.085 A 
ATOM      9  C   UNL d   1      32.167  18.026 -24.178  0.00  0.00     0.005 A 
ATOM     10  C   UNL d   1      31.510  18.135 -24.661  0.00  0.00     0.019 A 
ATOM     11  O   UNL d   1      30.280  15.840 -23.484  0.00  0.00    -0.286 OA
ENDROOT
BRANCH   1  12
ATOM     12  C   UNL d   1      28.962  16.050 -24.447  0.00  0.00     0.305 C 
ATOM     13  O   UNL d   1      28.869  15.453 -25.008  0.00  0.00    -0.259 OA
BRANCH  12  14
ATOM     14  O   UNL d   1      28.410  16.123 -23.833  0.00  0.00    -0.271 OA
BRANCH  14  15
ATOM     15  C   UNL d   1      27.748  15.630 -23.817  0.00  0.00     0.126 C 
ATOM     16  C   UNL d   1      27.162  15.755 -23.248  0.00  0.00     0.029 C 
ENDBRANCH  14  15
ENDBRANCH  12  14
ENDBRANCH   1  12
BRANCH   6  17
ATOM     17  C   UNL d   1      32.845  17.289 -23.159  0.00  0.00     0.419 C 
ATOM     18  F   UNL d   1      33.241  16.565 -23.156  0.00  0.00    -0.166 F 
ATOM     19  F   UNL d   1      33.109  17.906 -22.675  0.00  0.00    -0.166 F 
ATOM     20  F   UNL d   1      32.452  18.014 -23.159  0.00  0.00    -0.166 F 
ENDBRANCH   6  17
TORSDOF 4
ENDMDL
MODEL 4
REMARK VINA RESULT:      -2.2      2.706      4.247
REMARK  4 active torsions:
REMARK  status: ('A' for Active; 'I' for Inactive)
REMARK    1  A    between atoms: C_6  and  C_1 
REMARK    2  A    between atoms: C_4  and  C_8 
REMARK    3  A    between atoms: O_18  and  C_6 
REMARK    4  A    between atoms: C_19  and  O_18 
ROOT
ATOM      1  C   UNL d   1      31.762  17.009 -24.326  0.00  0.00     0.121 A 
ATOM      2  C   UNL d   1      32.373  18.100 -23.642  0.00  0.00     0.057 A 
ATOM      3  C   UNL d   1      31.938  17.399 -23.627  0.00  0.00     0.204 A 
ATOM      4  C   UNL d   1      32.547  18.486 -22.935  0.00  0.00     0.009 A 
ATOM      5  N   UNL d   1      32.457  18.021 -25.069  0.00  0.00    -0.244 NA
ATOM      6  C   UNL d   1      32.980  19.186 -22.947  0.00  0.00     0.072 A 
ATOM      7  C   UNL d   1      32.022  17.319 -25.054  0.00  0.00     0.107 A 
ATOM      8  C   UNL d   1      32.634  18.413 -24.359  0.00  0.00     0.085 A 
ATOM      9  C   UNL d   1      33.240  19.499 -23.664  0.00  0.00     0.005 A 
ATOM     10  C   UNL d   1      33.067  19.113 -24.370  0.00  0.00     0.019 A 
ATOM     11  O   UNL d   1      31.680  17.088 -22.908  0.00  0.00    -0.286 OA
ENDROOT
BRANCH   1  12
ATOM     12  C   UNL d   1      31.329  16.310 -24.315  0.00  0.00     0.305 C 
ATOM     13  O   UNL d   1      31.693  15.601 -24.100  0.00  0.00    -0.259 OA
BRANCH  12  14
ATOM     14  O   UNL d   1      30.526  16.310 -24.519  0.00  0.00    -0.271 OA
BRANCH  14  15
ATOM     15  C   UNL d   1      30.073  15.631 -24.401  0.00  0.00     0.126 C 
ATOM     16  C   UNL d   1      29.259  15.654 -24.544  0.00  0.00     0.029 C 
ENDBRANCH  14  15
ENDBRANCH  12  14
ENDBRANCH   1  12
BRANCH   6  17
ATOM     17  C   UNL d   1      33.153  19.572 -22.240  0.00  0.00     0.419 C 
ATOM     18  F   UNL d   1      33.241  19.139 -21.543  0.00  0.00    -0.166 F 
ATOM     19  F   UNL d   1      33.240  20.394 -22.229  0.00  0.00    -0.166 F 
ATOM     20  F   UNL d   1      33.067  20.008 -22.935  0.00  0.00    -0.166 F 
ENDBRANCH   6  17
TORSDOF 4
ENDMDL
MODEL 5
REMARK VINA RESULT:      -1.8      1.142      1.581
REMARK  4 active torsions:
REMARK  status: ('A' for Active; 'I' for Inactive)
REMARK    1  A    between atoms: C_6  and  C_1 
REMARK    2  A    between atoms: C_4  and  C_8 
REMARK    3  A    between atoms: O_18  and  C_6 
REMARK    4  A    between atoms: C_19  and  O_18 
ROOT
ATOM      1  C   UNL d   1      31.463  17.759 -24.239  0.00  0.00     0.121 A 
ATOM      2  C   UNL d   1      30.198  17.102 -24.236  0.00  0.00     0.057 A 
ATOM      3  C   UNL d   1      30.988  17.135 -24.000  0.00  0.00     0.204 A 
ATOM      4  C   UNL d   1      29.727  16.472 -23.992  0.00  0.00     0.009 A 
ATOM      5  N   UNL d   1      30.358  18.329 -24.956  0.00  0.00    -0.244 NA
ATOM      6  C   UNL d   1      28.938  16.436 -24.225  0.00  0.00     0.072 A 
ATOM      7  C   UNL d   1      31.149  18.362 -24.720  0.00  0.00     0.107 A 
ATOM      8  C   UNL d   1      29.880  17.696 -24.712  0.00  0.00     0.085 A 
ATOM      9  C   UNL d   1      28.620  17.030 -24.702  0.00  0.00     0.005 A 
ATOM     10  C   UNL d   1      29.091  17.659 -24.945  0.00  0.00     0.019 A 
ATOM     11  O   UNL d   1      31.303  16.540 -23.524  0.00  0.00    -0.286 OA
ENDROOT
BRANCH   1  12
ATOM     12  C   UNL d   1      32.251  17.796 -24.006  0.00  0.00     0.305 C 
ATOM     13  O   UNL d   1      32.849  17.606 -24.542  0.00  0.00    -0.259 OA
BRANCH  12  14
ATOM     14  O   UNL d   1      32.451  18.023 -23.235  0.00  0.00    -0.271 OA
BRANCH  14  15
ATOM     15  C   UNL d   1      33.181  18.379 -23.089  0.00  0.00     0.126 C 
ATOM     16  C   UNL d   1      33.232  18.991 -22.536  0.00  0.00     0.029 C 
ENDBRANCH  14  15
ENDBRANCH  12  14
ENDBRANCH   1  12
BRANCH   6  17
ATOM     17  C   UNL d   1      28.467  15.806 -23.981  0.00  0.00     0.419 C 
ATOM     18  F   UNL d   1      28.519  15.527 -23.207  0.00  0.00    -0.166 F 
ATOM     19  F   UNL d   1      27.943  15.452 -24.514  0.00  0.00    -0.166 F 
ATOM     20  F   UNL d   1      28.413  16.082 -24.757  0.00  0.00    -0.166 F 
ENDBRANCH   6  17
TORSDOF 4
ENDMDL
MODEL 6
REMARK VINA RESULT:      -1.6      1.551      2.232
REMARK  4 active torsions:
REMARK  status: ('A' for Active; 'I' for Inactive)
REMARK    1  A    between atoms: C_6  and  C_1 
REMARK    2  A    between atoms: C_4  and  C_8 
REMARK    3  A    between atoms: O_18  and  C_6 
REMARK    4  A    between atoms: C_19  and  O_18 
ROOT
ATOM      1  C   UNL d   1      32.853  18.775 -23.013  0.00  0.00     0.121 A 
ATOM      2  C   UNL d   1      32.056  17.762 -23.620  0.00  0.00     0.057 A 
ATOM      3  C   UNL d   1      32.265  18.556 -23.540  0.00  0.00     0.204 A 
ATOM      4  C   UNL d   1      31.464  17.549 -24.152  0.00  0.00     0.009 A 
ATOM      5  N   UNL d   1      33.031  17.402 -22.636  0.00  0.00    -0.244 NA
ATOM      6  C   UNL d   1      31.252  16.758 -24.233  0.00  0.00     0.072 A 
ATOM      7  C   UNL d   1      33.241  18.197 -22.556  0.00  0.00     0.107 A 
ATOM      8  C   UNL d   1      32.435  17.183 -23.170  0.00  0.00     0.085 A 
ATOM      9  C   UNL d   1      31.631  16.179 -23.784  0.00  0.00     0.005 A 
ATOM     10  C   UNL d   1      32.222  16.392 -23.253  0.00  0.00     0.019 A 
ATOM     11  O   UNL d   1      31.884  19.131 -23.992  0.00  0.00    -0.286 OA
ENDROOT
BRANCH   1  12
ATOM     12  C   UNL d   1      33.065  19.566 -22.931  0.00  0.00     0.305 C 
ATOM     13  O   UNL d   1      33.186  20.033 -23.600  0.00  0.00    -0.259 OA
BRANCH  12  14
ATOM     14  O   UNL d   1      33.159  19.899 -22.179  0.00  0.00    -0.271 OA
BRANCH  14  15
ATOM     15  C   UNL d   1      33.217  20.718 -22.098  0.00  0.00     0.126 C 
ATOM     16  C   UNL d   1      33.231  21.053 -21.342  0.00  0.00     0.029 C 
ENDBRANCH  14  15
ENDBRANCH  12  14
ENDBRANCH   1  12
BRANCH   6  17
ATOM     17  C   UNL d   1      30.660  16.545 -24.765  0.00  0.00     0.419 C 
ATOM     18  F   UNL d   1      30.071  17.087 -24.968  0.00  0.00    -0.166 F 
ATOM     19  F   UNL d   1      30.656  15.788 -25.097  0.00  0.00    -0.166 F 
ATOM     20  F   UNL d   1      31.247  16.000 -24.565  0.00  0.00    -0.166 F 
ENDBRANCH   6  17
TORSDOF 4
ENDMDL
MODEL 7
REMARK VINA RESULT:      -1.5      3.096      4.735
REMARK  4 active torsions:
REMARK  status: ('A' for Active; 'I' for Inactive)
REMARK    1  A    between atoms: C_6  and  C_1 
REMARK    2  A    between atoms: C_4  and  C_8 
REMARK    3  A    between atoms: O_18  and  C_6 
REMARK    4  A    between atoms: C_19  and  O_18 
ROOT
ATOM      1  C   UNL d   1      32.767  18.228 -23.880  0.00  0.00     0.121 A 
ATOM      2  C   UNL d   1      32.949  19.182 -22.837  0.00  0.00     0.057 A 
ATOM      3  C   UNL d   1      32.802  18.407 -23.081  0.00  0.00     0.204 A 
ATOM      4  C   UNL d   1      32.982  19.354 -22.032  0.00  0.00     0.009 A 
ATOM      5  N   UNL d   1      33.027  19.602 -24.202  0.00  0.00    -0.244 NA
ATOM      6  C   UNL d   1      33.128  20.126 -21.785  0.00  0.00     0.072 A 
ATOM      7  C   UNL d   1      32.880  18.827 -24.448  0.00  0.00     0.107 A 
ATOM      8  C   UNL d   1      33.061  19.780 -23.393  0.00  0.00     0.085 A 
ATOM      9  C   UNL d   1      33.241  20.724 -22.341  0.00  0.00     0.005 A 
ATOM     10  C   UNL d   1      33.207  20.551 -23.145  0.00  0.00     0.019 A 
ATOM     11  O   UNL d   1      32.690  17.811 -22.521  0.00  0.00    -0.286 OA
ENDROOT
BRANCH   1  12
ATOM     12  C   UNL d   1      32.621  17.457 -24.127  0.00  0.00     0.305 C 
ATOM     13  O   UNL d   1      33.240  16.988 -24.406  0.00  0.00    -0.259 OA
BRANCH  12  14
ATOM     14  O   UNL d   1      31.854  17.145 -24.099  0.00  0.00    -0.271 OA
BRANCH  14  15
ATOM     15  C   UNL d   1      31.697  16.413 -24.444  0.00  0.00     0.126 C 
ATOM     16  C   UNL d   1      31.022  15.992 -24.217  0.00  0.00     0.029 C 
ENDBRANCH  14  15
ENDBRANCH  12  14
ENDBRANCH   1  12
BRANCH   6  17
ATOM     17  C   UNL d   1      33.162  20.299 -20.980  0.00  0.00     0.419 C 
ATOM     18  F   UNL d   1      33.207  19.688 -20.427  0.00  0.00    -0.166 F 
ATOM     19  F   UNL d   1      33.151  21.085 -20.726  0.00  0.00    -0.166 F 
ATOM     20  F   UNL d   1      33.117  20.912 -21.529  0.00  0.00    -0.166 F 
ENDBRANCH   6  17
TORSDOF 4
ENDMDL
MODEL 8
REMARK VINA RESULT:      -1.3      2.153      3.940
REMARK  4 active torsions:
REMARK  status: ('A' for Active; 'I' for Inactive)
REMARK    1  A    between atoms: C_6  and  C_1 
REMARK    2  A    between atoms: C_4  and  C_8 
REMARK    3  A    between atoms: O_18  and  C_6 
REMARK    4  A    between atoms: C_19  and  O_18 
ROOT
ATOM      1  C   UNL d   1      29.276  16.090 -23.981  0.00  0.00     0.121 A 
ATOM      2  C   UNL d   1      30.474  16.857 -24.059  0.00  0.00     0.057 A 
ATOM      3  C   UNL d   1      29.661  16.785 -24.179  0.00  0.00     0.204 A 
ATOM      4  C   UNL d   1      30.855  17.559 -24.261  0.00  0.00     0.009 A 
ATOM      5  N   UNL d   1      30.518  15.525 -23.536  0.00  0.00    -0.244 NA
ATOM      6  C   UNL d   1      31.666  17.634 -24.141  0.00  0.00     0.072 A 
ATOM      7  C   UNL d   1      29.704  15.453 -23.657  0.00  0.00     0.107 A 
ATOM      8  C   UNL d   1      30.905  16.230 -23.738  0.00  0.00     0.085 A 
ATOM      9  C   UNL d   1      32.097  17.007 -23.821  0.00  0.00     0.005 A 
ATOM     10  C   UNL d   1      31.716  16.306 -23.619  0.00  0.00     0.019 A 
ATOM     11  O   UNL d   1      29.234  17.414 -24.500  0.00  0.00    -0.286 OA
ENDROOT
BRANCH   1  12
ATOM     12  C   UNL d   1      28.465  16.014 -24.099  0.00  0.00     0.305 C 
ATOM     13  O   UNL d   1      28.149  16.101 -24.856  0.00  0.00    -0.259 OA
BRANCH  12  14
ATOM     14  O   UNL d   1      27.961  15.852 -23.463  0.00  0.00    -0.271 OA
BRANCH  14  15
ATOM     15  C   UNL d   1      27.248  15.459 -23.594  0.00  0.00     0.126 C 
ATOM     16  C   UNL d   1      26.634  15.533 -23.046  0.00  0.00     0.029 C 
ENDBRANCH  14  15
ENDBRANCH  12  14
ENDBRANCH   1  12
BRANCH   6  17
ATOM     17  C   UNL d   1      32.047  18.336 -24.343  0.00  0.00     0.419 C 
ATOM     18  F   UNL d   1      32.000  18.990 -23.843  0.00  0.00    -0.166 F 
ATOM     19  F   UNL d   1      32.476  18.384 -25.048  0.00  0.00    -0.166 F 
ATOM     20  F   UNL d   1      32.096  17.683 -24.846  0.00  0.00    -0.166 F 
ENDBRANCH   6  17
TORSDOF 4
ENDMDL
