MODEL 1
REMARK VINA RESULT:      40.7      0.000      0.000
REMARK  4 active torsions:
REMARK  status: ('A' for Active; 'I' for Inactive)
REMARK    1  A    between atoms: C_2  and  N_1 
REMARK       I    between atoms: C_4  and  N_1 
REMARK    2  A    between atoms: C_3  and  C_2 
REMARK    3  A    between atoms: N_5  and  C_2 
REMARK    4  A    between atoms: C_6  and  C_4 
ROOT
ATOM      1  C   UNL d   1     -55.653 -99.226 -44.094  0.00  0.00     0.170 C 
ENDROOT
BRANCH   1   2
ATOM      2  N   UNL d   1     -55.398 -99.430 -43.318  0.00  0.00    -0.191 NA
ATOM      3  C   UNL d   1     -55.101-100.210 -43.156  0.00  0.00     0.280 C 
ATOM      4  O   UNL d   1     -54.834-100.434 -42.358  0.00  0.00    -0.265 OA
BRANCH   3   5
ATOM      5  C   UNL d   1     -55.070-100.761 -43.779  0.00  0.00     0.058 A 
ATOM      6  C   UNL d   1     -54.735-100.569 -44.519  0.00  0.00     0.007 A 
ATOM      7  C   UNL d   1     -54.714-101.134 -45.125  0.00  0.00     0.030 A 
ATOM      8  C   UNL d   1     -55.020-101.892 -45.014  0.00  0.00     0.140 A 
ATOM      9  C   UNL d   1     -55.355-102.084 -44.273  0.00  0.00     0.030 A 
ATOM     10  F   UNL d   1     -55.009-102.415 -45.553  0.00  0.00    -0.204 F 
ATOM     11  C   UNL d   1     -55.380-101.507 -43.644  0.00  0.00     0.007 A 
ENDBRANCH   3   5
ENDBRANCH   1   2
BRANCH   1  12
ATOM     12  C   UNL d   1     -55.234 -99.126 -44.753  0.00  0.00     0.249 C 
ATOM     13 CL   UNL d   1     -54.866 -98.922 -45.658  0.00  0.00    -0.075 Cl
ATOM     14 CL   UNL d   1     -55.686 -98.762 -45.368  0.00  0.00    -0.075 Cl
ATOM     15 CL   UNL d   1     -54.714 -99.326 -44.657  0.00  0.00    -0.075 Cl
ENDBRANCH   1  12
BRANCH   1  16
ATOM     16  N   UNL d   1     -56.440 -99.106 -44.227  0.00  0.00    -0.286 N 
ATOM     17  C   UNL d   1     -56.973 -99.108 -43.623  0.00  0.00     0.108 A 
ATOM     18  C   UNL d   1     -57.767 -98.987 -43.765  0.00  0.00     0.142 A 
ATOM     19  O   UNL d   1     -58.018 -98.863 -44.525  0.00  0.00    -0.300 OA
ATOM     20  C   UNL d   1     -57.494 -98.860 -45.123  0.00  0.00     0.142 A 
ATOM     21  C   UNL d   1     -56.706 -98.982 -44.971  0.00  0.00     0.108 A 
ENDBRANCH   1  16
TORSDOF 4
ENDMDL
