MODEL 1
REMARK VINA RESULT:      72.5      0.000      0.000
REMARK  8 active torsions:
REMARK  status: ('A' for Active; 'I' for Inactive)
REMARK    1  A    between atoms: C_7  and  C_1 
REMARK    2  A    between atoms: N_5  and  C_2 
REMARK       I    between atoms: C_8  and  N_5 
REMARK    3  A    between atoms: N_9  and  C_7 
REMARK    4  A    between atoms: C_12  and  C_7 
REMARK    5  A    between atoms: C_10  and  C_8 
REMARK    6  A    between atoms: C_11  and  C_14 
REMARK    7  A    between atoms: O_25  and  C_11 
REMARK    8  A    between atoms: C_31  and  O_25 
ROOT
ATOM      1  C   UNL d   1      13.960  14.387  -3.895  0.00  0.00     0.068 C 
ENDROOT
BRANCH   1   2
ATOM      2  C   UNL d   1      13.740  13.587  -3.836  0.00  0.00     0.041 A 
ATOM      3  C   UNL d   1      13.869  13.032  -3.245  0.00  0.00     0.115 A 
ATOM      4  S   UNL d   1      13.522  12.325  -3.490  0.00  0.00    -0.068 SA
ATOM      5  C   UNL d   1      13.183  12.452  -4.228  0.00  0.00     0.031 A 
ATOM      6  C   UNL d   1      13.317  13.247  -4.453  0.00  0.00     0.009 A 
ATOM      7  C   UNL d   1      12.773  11.874  -4.676  0.00  0.00     0.007 C 
ATOM      8  C   UNL d   1      13.072  13.609  -5.152  0.00  0.00     0.001 C 
BRANCH   3   9
ATOM      9  N   UNL d   1      14.279  13.148  -2.515  0.00  0.00    -0.200 NA
ATOM     10  C   UNL d   1      14.363  12.507  -1.975  0.00  0.00     0.302 C 
ATOM     11  O   UNL d   1      14.048  11.788  -2.165  0.00  0.00    -0.263 OA
BRANCH  10  12
ATOM     12  C   UNL d   1      14.770  12.636  -1.259  0.00  0.00     0.158 A 
ATOM     13  O   UNL d   1      14.525  13.005  -0.560  0.00  0.00    -0.300 OA
ATOM     14  C   UNL d   1      15.165  12.970  -0.032  0.00  0.00     0.123 A 
ATOM     15  C   UNL d   1      15.799  12.571  -0.437  0.00  0.00     0.029 A 
ATOM     16  C   UNL d   1      15.528  12.377  -1.188  0.00  0.00     0.032 A 
ENDBRANCH  10  12
ENDBRANCH   3   9
ENDBRANCH   1   2
BRANCH   1  17
ATOM     17  N   UNL d   1      14.191  14.831  -3.216  0.00  0.00    -0.304 N 
ATOM     18  C   UNL d   1      14.984  15.005  -3.054  0.00  0.00     0.080 A 
ATOM     19  C   UNL d   1      15.175  15.439  -2.386  0.00  0.00     0.024 A 
ATOM     20  C   UNL d   1      14.593  15.699  -1.883  0.00  0.00     0.067 A 
ATOM     21  C   UNL d   1      13.798  15.542  -2.017  0.00  0.00     0.024 A 
ATOM     22  C   UNL d   1      13.589  15.104  -2.690  0.00  0.00     0.080 A 
BRANCH  20  23
ATOM     23  C   UNL d   1      14.825  16.124  -1.235  0.00  0.00     0.300 C 
ATOM     24  O   UNL d   1      15.097  15.760  -0.550  0.00  0.00    -0.259 OA
BRANCH  23  25
ATOM     25  O   UNL d   1      14.801  16.958  -1.226  0.00  0.00    -0.271 OA
BRANCH  25  26
ATOM     26  C   UNL d   1      15.621  17.243  -0.919  0.00  0.00     0.126 C 
ATOM     27  C   UNL d   1      15.554  17.839  -0.435  0.00  0.00     0.029 C 
ENDBRANCH  25  26
ENDBRANCH  23  25
ENDBRANCH  20  23
ENDBRANCH   1  17
BRANCH   1  28
ATOM     28  C   UNL d   1      13.962  14.788  -4.635  0.00  0.00     0.035 A 
ATOM     29  C   UNL d   1      13.260  15.106  -4.926  0.00  0.00     0.100 A 
ATOM     30  N   UNL d   1      13.259  15.497  -5.645  0.00  0.00    -0.242 NA
ATOM     31  C   UNL d   1      14.004  15.573  -6.097  0.00  0.00     0.099 A 
ATOM     32  C   UNL d   1      14.695  15.233  -5.759  0.00  0.00     0.021 A 
ATOM     33  C   UNL d   1      14.679  14.851  -5.049  0.00  0.00     0.005 A 
ENDBRANCH   1  28
TORSDOF 8
ENDMDL
MODEL 2
REMARK VINA RESULT:      72.9      1.591      3.706
REMARK  8 active torsions:
REMARK  status: ('A' for Active; 'I' for Inactive)
REMARK    1  A    between atoms: C_7  and  C_1 
REMARK    2  A    between atoms: N_5  and  C_2 
REMARK       I    between atoms: C_8  and  N_5 
REMARK    3  A    between atoms: N_9  and  C_7 
REMARK    4  A    between atoms: C_12  and  C_7 
REMARK    5  A    between atoms: C_10  and  C_8 
REMARK    6  A    between atoms: C_11  and  C_14 
REMARK    7  A    between atoms: O_25  and  C_11 
REMARK    8  A    between atoms: C_31  and  O_25 
ROOT
ATOM      1  C   UNL d   1      14.764  15.694  -3.458  0.00  0.00     0.068 C 
ENDROOT
BRANCH   1   2
ATOM      2  C   UNL d   1      14.736  16.080  -2.723  0.00  0.00     0.041 A 
ATOM      3  C   UNL d   1      14.803  15.794  -1.956  0.00  0.00     0.115 A 
ATOM      4  S   UNL d   1      14.731  16.436  -1.444  0.00  0.00    -0.068 SA
ATOM      5  C   UNL d   1      14.621  17.112  -1.901  0.00  0.00     0.031 A 
ATOM      6  C   UNL d   1      14.623  16.894  -2.708  0.00  0.00     0.009 A 
ATOM      7  C   UNL d   1      14.524  17.887  -1.597  0.00  0.00     0.007 C 
ATOM      8  C   UNL d   1      14.531  17.399  -3.354  0.00  0.00     0.001 C 
BRANCH   3   9
ATOM      9  N   UNL d   1      14.923  14.991  -1.720  0.00  0.00    -0.200 NA
ATOM     10  C   UNL d   1      14.776  14.763  -0.922  0.00  0.00     0.302 C 
ATOM     11  O   UNL d   1      14.522  15.319  -0.394  0.00  0.00    -0.263 OA
BRANCH  10  12
ATOM     12  C   UNL d   1      14.899  13.968  -0.703  0.00  0.00     0.158 A 
ATOM     13  O   UNL d   1      14.514  13.278  -0.947  0.00  0.00    -0.300 OA
ATOM     14  C   UNL d   1      14.871  12.646  -0.542  0.00  0.00     0.123 A 
ATOM     15  C   UNL d   1      15.480  12.982  -0.049  0.00  0.00     0.029 A 
ATOM     16  C   UNL d   1      15.474  13.794  -0.168  0.00  0.00     0.032 A 
ENDBRANCH  10  12
ENDBRANCH   3   9
ENDBRANCH   1   2
BRANCH   1  17
ATOM     17  N   UNL d   1      14.309  14.999  -3.608  0.00  0.00    -0.304 N 
ATOM     18  C   UNL d   1      13.505  15.035  -3.799  0.00  0.00     0.080 A 
ATOM     19  C   UNL d   1      13.091  14.342  -3.939  0.00  0.00     0.024 A 
ATOM     20  C   UNL d   1      13.464  13.623  -3.891  0.00  0.00     0.067 A 
ATOM     21  C   UNL d   1      14.260  13.555  -3.703  0.00  0.00     0.024 A 
ATOM     22  C   UNL d   1      14.692  14.249  -3.559  0.00  0.00     0.080 A 
BRANCH  20  23
ATOM     23  C   UNL d   1      13.017  12.963  -4.037  0.00  0.00     0.300 C 
ATOM     24  O   UNL d   1      12.779  12.458  -3.434  0.00  0.00    -0.259 OA
BRANCH  23  25
ATOM     25  O   UNL d   1      12.775  12.760  -4.809  0.00  0.00    -0.271 OA
BRANCH  25  26
ATOM     26  C   UNL d   1      12.985  11.871  -4.927  0.00  0.00     0.126 C 
ATOM     27  C   UNL d   1      13.699  11.780  -5.201  0.00  0.00     0.029 C 
ENDBRANCH  25  26
ENDBRANCH  23  25
ENDBRANCH  20  23
ENDBRANCH   1  17
BRANCH   1  28
ATOM     28  C   UNL d   1      15.248  15.978  -4.085  0.00  0.00     0.035 A 
ATOM     29  C   UNL d   1      16.067  15.926  -4.022  0.00  0.00     0.100 A 
ATOM     30  N   UNL d   1      16.541  16.201  -4.631  0.00  0.00    -0.242 NA
ATOM     31  C   UNL d   1      16.170  16.547  -5.343  0.00  0.00     0.099 A 
ATOM     32  C   UNL d   1      15.331  16.579  -5.363  0.00  0.00     0.021 A 
ATOM     33  C   UNL d   1      14.878  16.303  -4.754  0.00  0.00     0.005 A 
ENDBRANCH   1  28
TORSDOF 8
ENDMDL
MODEL 3
REMARK VINA RESULT:      74.1      2.730      4.038
REMARK  8 active torsions:
REMARK  status: ('A' for Active; 'I' for Inactive)
REMARK    1  A    between atoms: C_7  and  C_1 
REMARK    2  A    between atoms: N_5  and  C_2 
REMARK       I    between atoms: C_8  and  N_5 
REMARK    3  A    between atoms: N_9  and  C_7 
REMARK    4  A    between atoms: C_12  and  C_7 
REMARK    5  A    between atoms: C_10  and  C_8 
REMARK    6  A    between atoms: C_11  and  C_14 
REMARK    7  A    between atoms: O_25  and  C_11 
REMARK    8  A    between atoms: C_31  and  O_25 
ROOT
ATOM      1  C   UNL d   1      14.879  16.484  -5.164  0.00  0.00     0.068 C 
ENDROOT
BRANCH   1   2
ATOM      2  C   UNL d   1      14.377  15.978  -4.736  0.00  0.00     0.041 A 
ATOM      3  C   UNL d   1      14.267  15.879  -3.929  0.00  0.00     0.115 A 
ATOM      4  S   UNL d   1      13.694  15.295  -3.826  0.00  0.00    -0.068 SA
ATOM      5  C   UNL d   1      13.456  15.041  -4.571  0.00  0.00     0.031 A 
ATOM      6  C   UNL d   1      13.883  15.468  -5.150  0.00  0.00     0.009 A 
ATOM      7  C   UNL d   1      12.880  14.450  -4.717  0.00  0.00     0.007 C 
ATOM      8  C   UNL d   1      13.818  15.388  -5.969  0.00  0.00     0.001 C 
BRANCH   3   9
ATOM      9  N   UNL d   1      14.662  16.292  -3.305  0.00  0.00    -0.200 NA
ATOM     10  C   UNL d   1      14.584  16.024  -2.510  0.00  0.00     0.302 C 
ATOM     11  O   UNL d   1      14.130  15.373  -2.357  0.00  0.00    -0.263 OA
BRANCH  10  12
ATOM     12  C   UNL d   1      14.979  16.440  -1.905  0.00  0.00     0.158 A 
ATOM     13  O   UNL d   1      15.109  17.251  -1.808  0.00  0.00    -0.300 OA
ATOM     14  C   UNL d   1      15.535  17.344  -1.100  0.00  0.00     0.123 A 
ATOM     15  C   UNL d   1      15.653  16.564  -0.779  0.00  0.00     0.029 A 
ATOM     16  C   UNL d   1      15.301  16.029  -1.294  0.00  0.00     0.032 A 
ENDBRANCH  10  12
ENDBRANCH   3   9
ENDBRANCH   1   2
BRANCH   1  17
ATOM     17  N   UNL d   1      14.623  17.247  -5.417  0.00  0.00    -0.304 N 
ATOM     18  C   UNL d   1      14.821  17.936  -5.003  0.00  0.00     0.080 A 
ATOM     19  C   UNL d   1      14.557  18.662  -5.275  0.00  0.00     0.024 A 
ATOM     20  C   UNL d   1      14.103  18.710  -5.946  0.00  0.00     0.067 A 
ATOM     21  C   UNL d   1      13.889  18.045  -6.378  0.00  0.00     0.024 A 
ATOM     22  C   UNL d   1      14.150  17.302  -6.114  0.00  0.00     0.080 A 
BRANCH  20  23
ATOM     23  C   UNL d   1      13.863  19.447  -6.179  0.00  0.00     0.300 C 
ATOM     24  O   UNL d   1      13.068  19.651  -6.226  0.00  0.00    -0.259 OA
BRANCH  23  25
ATOM     25  O   UNL d   1      14.411  20.042  -6.386  0.00  0.00    -0.271 OA
BRANCH  25  26
ATOM     26  C   UNL d   1      14.302  20.724  -5.777  0.00  0.00     0.126 C 
ATOM     27  C   UNL d   1      14.890  21.221  -5.797  0.00  0.00     0.029 C 
ENDBRANCH  25  26
ENDBRANCH  23  25
ENDBRANCH  20  23
ENDBRANCH   1  17
BRANCH   1  28
ATOM     28  C   UNL d   1      15.664  16.257  -5.365  0.00  0.00     0.035 A 
ATOM     29  C   UNL d   1      16.300  16.613  -4.982  0.00  0.00     0.100 A 
ATOM     30  N   UNL d   1      17.065  16.395  -5.175  0.00  0.00    -0.242 NA
ATOM     31  C   UNL d   1      17.198  15.785  -5.787  0.00  0.00     0.099 A 
ATOM     32  C   UNL d   1      16.519  15.449  -6.150  0.00  0.00     0.021 A 
ATOM     33  C   UNL d   1      15.771  15.676  -5.948  0.00  0.00     0.005 A 
ENDBRANCH   1  28
TORSDOF 8
ENDMDL
MODEL 4
REMARK VINA RESULT:      74.1      1.336      3.504
REMARK  8 active torsions:
REMARK  status: ('A' for Active; 'I' for Inactive)
REMARK    1  A    between atoms: C_7  and  C_1 
REMARK    2  A    between atoms: N_5  and  C_2 
REMARK       I    between atoms: C_8  and  N_5 
REMARK    3  A    between atoms: N_9  and  C_7 
REMARK    4  A    between atoms: C_12  and  C_7 
REMARK    5  A    between atoms: C_10  and  C_8 
REMARK    6  A    between atoms: C_11  and  C_14 
REMARK    7  A    between atoms: O_25  and  C_11 
REMARK    8  A    between atoms: C_31  and  O_25 
ROOT
ATOM      1  C   UNL d   1      14.391  13.441  -1.879  0.00  0.00     0.068 C 
ENDROOT
BRANCH   1   2
ATOM      2  C   UNL d   1      13.989  13.206  -2.567  0.00  0.00     0.041 A 
ATOM      3  C   UNL d   1      13.912  13.568  -3.301  0.00  0.00     0.115 A 
ATOM      4  S   UNL d   1      13.446  13.076  -3.772  0.00  0.00    -0.068 SA
ATOM      5  C   UNL d   1      13.241  12.418  -3.323  0.00  0.00     0.031 A 
ATOM      6  C   UNL d   1      13.580  12.493  -2.563  0.00  0.00     0.009 A 
ATOM      7  C   UNL d   1      12.769  11.780  -3.594  0.00  0.00     0.007 C 
ATOM      8  C   UNL d   1      13.514  11.958  -1.939  0.00  0.00     0.001 C 
BRANCH   3   9
ATOM      9  N   UNL d   1      14.243  14.307  -3.543  0.00  0.00    -0.200 NA
ATOM     10  C   UNL d   1      14.139  14.572  -4.336  0.00  0.00     0.302 C 
ATOM     11  O   UNL d   1      13.722  14.113  -4.854  0.00  0.00    -0.263 OA
BRANCH  10  12
ATOM     12  C   UNL d   1      14.471  15.303  -4.561  0.00  0.00     0.158 A 
ATOM     13  O   UNL d   1      14.386  16.057  -4.231  0.00  0.00    -0.300 OA
ATOM     14  C   UNL d   1      14.848  16.574  -4.690  0.00  0.00     0.123 A 
ATOM     15  C   UNL d   1      15.210  16.105  -5.302  0.00  0.00     0.029 A 
ATOM     16  C   UNL d   1      14.961  15.329  -5.199  0.00  0.00     0.032 A 
ENDBRANCH  10  12
ENDBRANCH   3   9
ENDBRANCH   1   2
BRANCH   1  17
ATOM     17  N   UNL d   1      14.537  14.256  -1.710  0.00  0.00    -0.304 N 
ATOM     18  C   UNL d   1      14.090  14.861  -2.054  0.00  0.00     0.080 A 
ATOM     19  C   UNL d   1      14.257  15.642  -1.869  0.00  0.00     0.024 A 
ATOM     20  C   UNL d   1      14.856  15.823  -1.353  0.00  0.00     0.067 A 
ATOM     21  C   UNL d   1      15.317  15.245  -0.996  0.00  0.00     0.024 A 
ATOM     22  C   UNL d   1      15.159  14.449  -1.174  0.00  0.00     0.080 A 
BRANCH  20  23
ATOM     23  C   UNL d   1      14.988  16.607  -1.198  0.00  0.00     0.300 C 
ATOM     24  O   UNL d   1      14.669  17.203  -1.667  0.00  0.00    -0.259 OA
BRANCH  23  25
ATOM     25  O   UNL d   1      15.455  16.854  -0.552  0.00  0.00    -0.271 OA
BRANCH  25  26
ATOM     26  C   UNL d   1      15.279  17.749  -0.425  0.00  0.00     0.126 C 
ATOM     27  C   UNL d   1      15.783  18.195  -0.798  0.00  0.00     0.029 C 
ENDBRANCH  25  26
ENDBRANCH  23  25
ENDBRANCH  20  23
ENDBRANCH   1  17
BRANCH   1  28
ATOM     28  C   UNL d   1      14.671  12.878  -1.320  0.00  0.00     0.035 A 
ATOM     29  C   UNL d   1      15.306  12.392  -1.516  0.00  0.00     0.100 A 
ATOM     30  N   UNL d   1      15.580  11.843  -0.974  0.00  0.00    -0.242 NA
ATOM     31  C   UNL d   1      15.196  11.779  -0.191  0.00  0.00     0.099 A 
ATOM     32  C   UNL d   1      14.552  12.297  -0.036  0.00  0.00     0.021 A 
ATOM     33  C   UNL d   1      14.293  12.832  -0.582  0.00  0.00     0.005 A 
ENDBRANCH   1  28
TORSDOF 8
ENDMDL
