MODEL 1
REMARK VINA RESULT:      76.4      0.000      0.000
REMARK  5 active torsions:
REMARK  status: ('A' for Active; 'I' for Inactive)
REMARK    1  A    between atoms: C_12  and  N_3 
REMARK    2  A    between atoms: C_11  and  C_5 
REMARK       I    between atoms: N_16  and  C_11 
REMARK    3  A    between atoms: C_15  and  C_12 
REMARK    4  A    between atoms: C_26  and  N_16 
REMARK    5  A    between atoms: C_27  and  C_26 
ROOT
ATOM      1  C   UNL d   1      13.868  13.333  -2.754  0.00  0.00     0.155 A 
ATOM      2  C   UNL d   1      14.225  14.027  -2.486  0.00  0.00     0.091 A 
ATOM      3  N   UNL d   1      13.404  13.333  -3.426  0.00  0.00    -0.272 N 
ATOM      4  N   UNL d   1      13.984  12.628  -2.332  0.00  0.00    -0.210 NA
ATOM      5  C   UNL d   1      13.642  14.736  -3.586  0.00  0.00     0.094 A 
ATOM      6  C   UNL d   1      13.288  14.038  -3.848  0.00  0.00     0.175 A 
ATOM      7  C   UNL d   1      14.692  14.023  -1.808  0.00  0.00     0.269 A 
ATOM      8  N   UNL d   1      14.805  13.322  -1.392  0.00  0.00    -0.258 N 
ATOM      9  C   UNL d   1      14.452  12.624  -1.654  0.00  0.00     0.152 A 
ATOM     10  C   UNL d   1      14.112  14.728  -2.902  0.00  0.00     0.016 A 
ATOM     11  N   UNL d   1      12.816  14.037  -4.532  0.00  0.00    -0.128 N 
ATOM     12  C   UNL d   1      15.272  13.318  -0.714  0.00  0.00     0.084 A 
ATOM     13  O   UNL d   1      15.045  14.721  -1.546  0.00  0.00    -0.266 OA
ATOM     14  C   UNL d   1      14.564  11.922  -1.238  0.00  0.00     0.038 A 
ATOM     15  C   UNL d   1      15.387  12.615  -0.294  0.00  0.00     0.019 A 
ATOM     16  C   UNL d   1      15.033  11.917  -0.557  0.00  0.00     0.005 A 
ENDROOT
BRANCH   5  17
ATOM     17  C   UNL d   1      13.527  15.439  -4.005  0.00  0.00     0.282 C 
ATOM     18  N   UNL d   1      14.169  15.829  -4.342  0.00  0.00    -0.206 NA
ATOM     19  O   UNL d   1      12.770  15.757  -4.091  0.00  0.00    -0.265 OA
BRANCH  18  20
ATOM     20  C   UNL d   1      14.929  15.519  -4.261  0.00  0.00     0.102 C 
BRANCH  20  21
ATOM     21  C   UNL d   1      15.560  15.832  -4.694  0.00  0.00     0.019 A 
ATOM     22  C   UNL d   1      15.806  16.607  -4.537  0.00  0.00     0.002 A 
ATOM     23  C   UNL d   1      16.439  16.932  -4.966  0.00  0.00     0.000 A 
ATOM     24  C   UNL d   1      16.821  16.477  -5.550  0.00  0.00     0.000 A 
ATOM     25  C   UNL d   1      16.566  15.701  -5.699  0.00  0.00     0.000 A 
ATOM     26  C   UNL d   1      15.938  15.381  -5.273  0.00  0.00     0.002 A 
ENDBRANCH  20  21
ENDBRANCH  18  20
ENDBRANCH   5  17
BRANCH   3  27
ATOM     27  C   UNL d   1      13.051  12.635  -3.689  0.00  0.00     0.107 C 
BRANCH  27  28
ATOM     28  C   UNL d   1      13.220  12.344  -4.439  0.00  0.00     0.118 A 
ATOM     29  O   UNL d   1      13.969  12.026  -4.604  0.00  0.00    -0.304 OA
ATOM     30  C   UNL d   1      13.976  11.779  -5.399  0.00  0.00     0.123 A 
ATOM     31  C   UNL d   1      13.241  11.946  -5.712  0.00  0.00     0.029 A 
ATOM     32  C   UNL d   1      12.769  12.293  -5.131  0.00  0.00     0.028 A 
ENDBRANCH  27  28
ENDBRANCH   3  27
TORSDOF 5
ENDMDL
MODEL 2
REMARK VINA RESULT:      76.5      1.415      2.717
REMARK  5 active torsions:
REMARK  status: ('A' for Active; 'I' for Inactive)
REMARK    1  A    between atoms: C_12  and  N_3 
REMARK    2  A    between atoms: C_11  and  C_5 
REMARK       I    between atoms: N_16  and  C_11 
REMARK    3  A    between atoms: C_15  and  C_12 
REMARK    4  A    between atoms: C_26  and  N_16 
REMARK    5  A    between atoms: C_27  and  C_26 
ROOT
ATOM      1  C   UNL d   1      14.278  13.353  -2.246  0.00  0.00     0.155 A 
ATOM      2  C   UNL d   1      14.142  14.053  -2.661  0.00  0.00     0.091 A 
ATOM      3  N   UNL d   1      14.037  12.633  -2.548  0.00  0.00    -0.272 N 
ATOM      4  N   UNL d   1      14.667  13.384  -1.514  0.00  0.00    -0.210 NA
ATOM      5  C   UNL d   1      13.508  13.298  -3.701  0.00  0.00     0.094 A 
ATOM      6  C   UNL d   1      13.648  12.602  -3.280  0.00  0.00     0.175 A 
ATOM      7  C   UNL d   1      14.386  14.776  -2.354  0.00  0.00     0.269 A 
ATOM      8  N   UNL d   1      14.772  14.804  -1.626  0.00  0.00    -0.258 N 
ATOM      9  C   UNL d   1      14.912  14.108  -1.206  0.00  0.00     0.152 A 
ATOM     10  C   UNL d   1      13.756  14.025  -3.388  0.00  0.00     0.016 A 
ATOM     11  N   UNL d   1      13.403  11.869  -3.586  0.00  0.00    -0.128 N 
ATOM     12  C   UNL d   1      15.016  15.527  -1.319  0.00  0.00     0.084 A 
ATOM     13  O   UNL d   1      14.246  15.472  -2.774  0.00  0.00    -0.266 OA
ATOM     14  C   UNL d   1      15.297  14.135  -0.479  0.00  0.00     0.038 A 
ATOM     15  C   UNL d   1      15.404  15.558  -0.589  0.00  0.00     0.019 A 
ATOM     16  C   UNL d   1      15.544  14.862  -0.169  0.00  0.00     0.005 A 
ENDROOT
BRANCH   5  17
ATOM     17  C   UNL d   1      13.121  13.268  -4.431  0.00  0.00     0.282 C 
ATOM     18  N   UNL d   1      13.084  13.939  -4.907  0.00  0.00    -0.206 NA
ATOM     19  O   UNL d   1      12.769  12.568  -4.689  0.00  0.00    -0.265 OA
BRANCH  18  20
ATOM     20  C   UNL d   1      13.433  14.643  -4.655  0.00  0.00     0.102 C 
BRANCH  20  21
ATOM     21  C   UNL d   1      13.505  15.285  -5.172  0.00  0.00     0.019 A 
ATOM     22  C   UNL d   1      14.236  15.424  -5.536  0.00  0.00     0.002 A 
ATOM     23  C   UNL d   1      14.320  16.066  -6.056  0.00  0.00     0.000 A 
ATOM     24  C   UNL d   1      13.669  16.563  -6.209  0.00  0.00     0.000 A 
ATOM     25  C   UNL d   1      12.941  16.414  -5.839  0.00  0.00     0.000 A 
ATOM     26  C   UNL d   1      12.861  15.777  -5.323  0.00  0.00     0.002 A 
ENDBRANCH  20  21
ENDBRANCH  18  20
ENDBRANCH   5  17
BRANCH   3  27
ATOM     27  C   UNL d   1      14.177  11.937  -2.128  0.00  0.00     0.107 C 
BRANCH  27  28
ATOM     28  C   UNL d   1      13.945  11.877  -1.341  0.00  0.00     0.118 A 
ATOM     29  O   UNL d   1      13.139  11.838  -1.145  0.00  0.00    -0.304 OA
ATOM     30  C   UNL d   1      13.076  11.780  -0.318  0.00  0.00     0.123 A 
ATOM     31  C   UNL d   1      13.834  11.784  -0.014  0.00  0.00     0.029 A 
ATOM     32  C   UNL d   1      14.375  11.843  -0.634  0.00  0.00     0.028 A 
ENDBRANCH  27  28
ENDBRANCH   3  27
TORSDOF 5
ENDMDL
