MODEL 1
REMARK VINA RESULT:      35.0      0.000      0.000
REMARK  4 active torsions:
REMARK  status: ('A' for Active; 'I' for Inactive)
REMARK    1  A    between atoms: C_6  and  C_2 
REMARK    2  A    between atoms: C_7  and  C_5 
REMARK    3  A    between atoms: O_8  and  C_7 
REMARK    4  A    between atoms: C_9  and  O_8 
ROOT
ATOM      1  N   UNL d   1     -55.081-102.501 -42.291  0.00  0.00    -0.121 NA
ATOM      2  C   UNL d   1     -54.941-101.699 -42.202  0.00  0.00     0.204 A 
ATOM      3  O   UNL d   1     -54.792-101.556 -41.397  0.00  0.00    -0.267 OA
ATOM      4  N   UNL d   1     -55.021-102.861 -41.552  0.00  0.00    -0.119 NA
ATOM      5  C   UNL d   1     -54.843-102.276 -40.997  0.00  0.00     0.230 A 
ENDROOT
BRANCH   5   6
ATOM      6  C   UNL d   1     -54.734-102.397 -40.189  0.00  0.00     0.169 C 
BRANCH   6   7
ATOM      7  O   UNL d   1     -55.187-101.974 -39.640  0.00  0.00    -0.301 OA
BRANCH   7   8
ATOM      8  C   UNL d   1     -55.028-102.055 -38.831  0.00  0.00     0.100 A 
ATOM      9  C   UNL d   1     -54.868-102.799 -38.513  0.00  0.00     0.025 A 
ATOM     10  C   UNL d   1     -54.711-102.873 -37.709  0.00  0.00     0.002 A 
ATOM     11  C   UNL d   1     -54.714-102.208 -37.221  0.00  0.00     0.000 A 
ATOM     12  C   UNL d   1     -54.875-101.463 -37.544  0.00  0.00     0.002 A 
ATOM     13  C   UNL d   1     -55.034-101.378 -38.350  0.00  0.00     0.025 A 
ENDBRANCH   7   8
ENDBRANCH   6   7
ENDBRANCH   5   6
BRANCH   2  14
ATOM     14  C   UNL d   1     -54.946-101.130 -42.799  0.00  0.00     0.043 A 
ATOM     15  C   UNL d   1     -55.123-101.348 -43.577  0.00  0.00     0.004 A 
ATOM     16  C   UNL d   1     -55.128-100.779 -44.174  0.00  0.00     0.000 A 
ATOM     17  C   UNL d   1     -54.956 -99.993 -43.995  0.00  0.00     0.000 A 
ATOM     18  C   UNL d   1     -54.778 -99.775 -43.217  0.00  0.00     0.000 A 
ATOM     19  C   UNL d   1     -54.774-100.343 -42.620  0.00  0.00     0.004 A 
ENDBRANCH   2  14
TORSDOF 4
ENDMDL
