MODEL 1
REMARK VINA RESULT:      -5.1      0.000      0.000
REMARK  3 active torsions:
REMARK  status: ('A' for Active; 'I' for Inactive)
REMARK    1  A    between atoms: S_6  and  C_1 
REMARK    2  A    between atoms: C_3  and  C_9 
REMARK       I    between atoms: N_4  and  C_3 
REMARK    3  A    between atoms: C_9  and  S_6 
ROOT
ATOM      1  C   UNL d   1     -41.477-122.693 -53.408  0.00  0.00     0.114 A 
ATOM      2  C   UNL d   1     -41.806-122.327 -54.067  0.00  0.00     0.042 A 
ATOM      3  N   UNL d   1     -41.135-123.440 -53.485  0.00  0.00    -0.217 NA
ATOM      4  N   UNL d   1     -41.453-123.448 -54.880  0.00  0.00    -0.224 NA
ATOM      5  C   UNL d   1     -41.123-123.818 -54.220  0.00  0.00     0.200 A 
ATOM      6  C   UNL d   1     -41.794-122.705 -54.803  0.00  0.00     0.085 A 
ATOM      7  C   UNL d   1     -42.149-121.580 -53.991  0.00  0.00     0.004 A 
ATOM      8  C   UNL d   1     -42.125-122.336 -55.462  0.00  0.00     0.019 A 
ATOM      9  C   UNL d   1     -42.479-121.211 -54.651  0.00  0.00     0.000 A 
ATOM     10  C   UNL d   1     -42.467-121.589 -55.387  0.00  0.00     0.002 A 
ENDROOT
BRANCH   1  11
ATOM     11  S   UNL d   1     -41.489-122.316 -52.674  0.00  0.00    -0.062 SA
BRANCH  11  12
ATOM     12  C   UNL d   1     -41.330-122.736 -51.990  0.00  0.00     0.098 C 
BRANCH  12  13
ATOM     13  C   UNL d   1     -41.355-122.364 -51.253  0.00  0.00     0.271 C 
ATOM     14  N   UNL d   1     -41.564-122.797 -50.574  0.00  0.00    -0.272 N 
ATOM     15  C   UNL d   1     -41.757-123.586 -50.550  0.00  0.00     0.083 A 
ATOM     16  C   UNL d   1     -41.611-122.499 -49.808  0.00  0.00     0.083 A 
ATOM     17  C   UNL d   1     -41.927-123.790 -49.766  0.00  0.00     0.021 A 
ATOM     18  C   UNL d   1     -41.833-123.106 -49.314  0.00  0.00     0.021 A 
ATOM     19  O   UNL d   1     -41.175-121.573 -51.191  0.00  0.00    -0.266 OA
ENDBRANCH  12  13
ENDBRANCH  11  12
ENDBRANCH   1  11
TORSDOF 3
ENDMDL
MODEL 2
REMARK VINA RESULT:      -4.3      1.461      4.795
REMARK  3 active torsions:
REMARK  status: ('A' for Active; 'I' for Inactive)
REMARK    1  A    between atoms: S_6  and  C_1 
REMARK    2  A    between atoms: C_3  and  C_9 
REMARK       I    between atoms: N_4  and  C_3 
REMARK    3  A    between atoms: C_9  and  S_6 
ROOT
ATOM      1  C   UNL d   1     -42.316-123.096 -49.806  0.00  0.00     0.114 A 
ATOM      2  C   UNL d   1     -42.093-123.196 -49.021  0.00  0.00     0.042 A 
ATOM      3  N   UNL d   1     -43.058-123.357 -50.056  0.00  0.00    -0.217 NA
ATOM      4  N   UNL d   1     -43.347-123.817 -48.732  0.00  0.00    -0.224 NA
ATOM      5  C   UNL d   1     -43.573-123.718 -49.519  0.00  0.00     0.200 A 
ATOM      6  C   UNL d   1     -42.608-123.557 -48.484  0.00  0.00     0.085 A 
ATOM      7  C   UNL d   1     -41.351-122.935 -48.771  0.00  0.00     0.004 A 
ATOM      8  C   UNL d   1     -42.382-123.656 -47.697  0.00  0.00     0.019 A 
ATOM      9  C   UNL d   1     -41.125-123.035 -47.983  0.00  0.00     0.000 A 
ATOM     10  C   UNL d   1     -41.641-123.395 -47.446  0.00  0.00     0.002 A 
ENDROOT
BRANCH   1  11
ATOM     11  S   UNL d   1     -41.801-122.736 -50.342  0.00  0.00    -0.062 SA
BRANCH  11  12
ATOM     12  C   UNL d   1     -41.717-123.034 -51.099  0.00  0.00     0.098 C 
BRANCH  12  13
ATOM     13  C   UNL d   1     -41.476-122.545 -51.719  0.00  0.00     0.271 C 
ATOM     14  N   UNL d   1     -41.382-122.856 -52.485  0.00  0.00    -0.272 N 
ATOM     15  C   UNL d   1     -41.507-123.628 -52.707  0.00  0.00     0.083 A 
ATOM     16  C   UNL d   1     -41.146-122.434 -53.151  0.00  0.00     0.083 A 
ATOM     17  C   UNL d   1     -41.350-123.696 -53.517  0.00  0.00     0.021 A 
ATOM     18  C   UNL d   1     -41.127-122.947 -53.781  0.00  0.00     0.021 A 
ATOM     19  O   UNL d   1     -41.330-121.756 -51.580  0.00  0.00    -0.266 OA
ENDBRANCH  12  13
ENDBRANCH  11  12
ENDBRANCH   1  11
TORSDOF 3
ENDMDL
MODEL 3
REMARK VINA RESULT:      -4.1      1.737      2.644
REMARK  3 active torsions:
REMARK  status: ('A' for Active; 'I' for Inactive)
REMARK    1  A    between atoms: S_6  and  C_1 
REMARK    2  A    between atoms: C_3  and  C_9 
REMARK       I    between atoms: N_4  and  C_3 
REMARK    3  A    between atoms: C_9  and  S_6 
ROOT
ATOM      1  C   UNL d   1     -41.612-122.583 -51.213  0.00  0.00     0.114 A 
ATOM      2  C   UNL d   1     -41.502-122.804 -51.997  0.00  0.00     0.042 A 
ATOM      3  N   UNL d   1     -41.478-121.801 -50.986  0.00  0.00    -0.217 NA
ATOM      4  N   UNL d   1     -41.123-121.467 -52.331  0.00  0.00    -0.224 NA
ATOM      5  C   UNL d   1     -41.233-121.243 -51.545  0.00  0.00     0.200 A 
ATOM      6  C   UNL d   1     -41.257-122.246 -52.556  0.00  0.00     0.085 A 
ATOM      7  C   UNL d   1     -41.636-123.586 -52.224  0.00  0.00     0.004 A 
ATOM      8  C   UNL d   1     -41.147-122.470 -53.342  0.00  0.00     0.019 A 
ATOM      9  C   UNL d   1     -41.526-123.809 -53.011  0.00  0.00     0.000 A 
ATOM     10  C   UNL d   1     -41.281-123.251 -53.570  0.00  0.00     0.002 A 
ENDROOT
BRANCH   1  11
ATOM     11  S   UNL d   1     -41.857-123.141 -50.655  0.00  0.00    -0.062 SA
BRANCH  11  12
ATOM     12  C   UNL d   1     -41.783-122.985 -49.854  0.00  0.00     0.098 C 
BRANCH  12  13
ATOM     13  C   UNL d   1     -42.283-123.350 -49.308  0.00  0.00     0.271 C 
ATOM     14  N   UNL d   1     -42.068-123.386 -48.505  0.00  0.00    -0.272 N 
ATOM     15  C   UNL d   1     -41.387-123.087 -48.177  0.00  0.00     0.083 A 
ATOM     16  C   UNL d   1     -42.511-123.731 -47.903  0.00  0.00     0.083 A 
ATOM     17  C   UNL d   1     -41.397-123.243 -47.365  0.00  0.00     0.021 A 
ATOM     18  C   UNL d   1     -42.100-123.644 -47.206  0.00  0.00     0.021 A 
ATOM     19  O   UNL d   1     -42.987-123.676 -49.556  0.00  0.00    -0.266 OA
ENDBRANCH  12  13
ENDBRANCH  11  12
ENDBRANCH   1  11
TORSDOF 3
ENDMDL
