MODEL 1
REMARK VINA RESULT:      41.4      0.000      0.000
REMARK  3 active torsions:
REMARK  status: ('A' for Active; 'I' for Inactive)
REMARK    1  A    between atoms: N_2  and  C_1 
REMARK    2  A    between atoms: C_4  and  C_8 
REMARK    3  A    between atoms: N_14  and  C_5 
ROOT
ATOM      1  C   UNL d   1     -55.986-100.008 -44.340  0.00  0.00     0.143 A 
ATOM      2  C   UNL d   1     -55.809 -99.525 -44.982  0.00  0.00     0.086 A 
ATOM      3  C   UNL d   1     -56.680 -99.884 -43.903  0.00  0.00     0.027 A 
ATOM      4  C   UNL d   1     -57.197 -99.267 -44.115  0.00  0.00     0.021 A 
ATOM      5  C   UNL d   1     -56.321 -98.914 -45.192  0.00  0.00     0.019 A 
ATOM      6  C   UNL d   1     -57.016 -98.781 -44.763  0.00  0.00     0.003 A 
ENDROOT
BRANCH   4   7
ATOM      7  C   UNL d   1     -57.886 -99.140 -43.684  0.00  0.00     0.103 A 
ATOM      8  N   UNL d   1     -57.869 -99.173 -42.859  0.00  0.00    -0.145 NA
ATOM      9  N   UNL d   1     -58.558 -99.046 -42.428  0.00  0.00    -0.106 NA
ATOM     10  C   UNL d   1     -59.266 -98.887 -42.819  0.00  0.00     0.297 A 
ATOM     11  C   UNL d   1     -59.283 -98.853 -43.644  0.00  0.00     0.066 A 
ATOM     12  O   UNL d   1     -59.954 -98.760 -42.387  0.00  0.00    -0.264 OA
ATOM     13  C   UNL d   1     -58.590 -98.981 -44.082  0.00  0.00     0.024 A 
ATOM     14  C   UNL d   1     -58.609 -98.947 -44.903  0.00  0.00     0.002 C 
ENDBRANCH   4   7
BRANCH   1  15
ATOM     15  N   UNL d   1     -55.476-100.624 -44.123  0.00  0.00    -0.112 N 
ATOM     16  O   UNL d   1     -54.871-100.474 -43.576  0.00  0.00    -0.532 OA
ATOM     17  O   UNL d   1     -55.566-101.375 -44.445  0.00  0.00    -0.532 OA
ENDBRANCH   1  15
BRANCH   2  18
ATOM     18  N   UNL d   1     -55.121 -99.652 -45.412  0.00  0.00    -0.300 N 
ATOM     19  C   UNL d   1     -54.713 -99.012 -45.731  0.00  0.00     0.100 C 
ATOM     20  C   UNL d   1     -54.840-100.418 -45.525  0.00  0.00     0.100 C 
ENDBRANCH   2  18
TORSDOF 3
ENDMDL
