MODEL 1
REMARK VINA RESULT:      35.8      0.000      0.000
REMARK  6 active torsions:
REMARK  status: ('A' for Active; 'I' for Inactive)
REMARK    1  A    between atoms: C_7  and  C_1 
REMARK    2  A    between atoms: C_6  and  C_2 
REMARK       I    between atoms: N_9  and  C_6 
REMARK    3  A    between atoms: O_16  and  C_7 
REMARK       I    between atoms: C_8  and  N_10 
REMARK    4  A    between atoms: C_14  and  C_8 
REMARK    5  A    between atoms: N_10  and  N_9 
REMARK    6  A    between atoms: C_20  and  O_16 
ROOT
ATOM      1  C   UNL d   1      14.359  12.286  -1.137  0.00  0.00     0.083 A 
ATOM      2  C   UNL d   1      13.692  12.323  -2.285  0.00  0.00     0.141 A 
ATOM      3  C   UNL d   1      14.423  12.473  -1.937  0.00  0.00     0.029 A 
ATOM      4  N   UNL d   1      13.183  12.048  -1.711  0.00  0.00    -0.240 NA
ATOM      5  C   UNL d   1      13.588  12.021  -0.991  0.00  0.00     0.087 A 
ATOM      6  C   UNL d   1      15.101  12.758  -2.314  0.00  0.00     0.002 C 
ATOM      7  C   UNL d   1      13.284  11.779  -0.275  0.00  0.00     0.021 C 
ENDROOT
BRANCH   2   8
ATOM      8  C   UNL d   1      13.510  12.435  -3.088  0.00  0.00     0.314 C 
ATOM      9  N   UNL d   1      13.508  13.192  -3.407  0.00  0.00    -0.101 NA
ATOM     10  O   UNL d   1      13.332  11.786  -3.564  0.00  0.00    -0.262 OA
BRANCH   9  11
ATOM     11  N   UNL d   1      13.328  13.307  -4.205  0.00  0.00    -0.102 NA
ATOM     12  C   UNL d   1      13.436  14.043  -4.557  0.00  0.00     0.297 C 
ATOM     13  O   UNL d   1      13.252  14.147  -5.356  0.00  0.00    -0.264 OA
BRANCH  12  14
ATOM     14  C   UNL d   1      13.726  14.667  -4.108  0.00  0.00     0.059 A 
ATOM     15  C   UNL d   1      14.382  15.088  -4.385  0.00  0.00     0.005 A 
ATOM     16  C   UNL d   1      14.680  15.721  -3.934  0.00  0.00     0.000 A 
ATOM     17  C   UNL d   1      14.315  15.916  -3.220  0.00  0.00     0.000 A 
ATOM     18  C   UNL d   1      13.665  15.494  -2.951  0.00  0.00     0.000 A 
ATOM     19  C   UNL d   1      13.369  14.865  -3.399  0.00  0.00     0.005 A 
ENDBRANCH  12  14
ENDBRANCH   9  11
ENDBRANCH   2   8
BRANCH   1  20
ATOM     20  C   UNL d   1      14.961  12.352  -0.572  0.00  0.00     0.302 C 
ATOM     21  O   UNL d   1      15.558  11.783  -0.540  0.00  0.00    -0.259 OA
BRANCH  20  22
ATOM     22  O   UNL d   1      14.964  12.986  -0.039  0.00  0.00    -0.271 OA
BRANCH  22  23
ATOM     23  C   UNL d   1      15.602  13.491  -0.016  0.00  0.00     0.126 C 
ATOM     24  C   UNL d   1      15.488  14.308  -0.044  0.00  0.00     0.029 C 
ENDBRANCH  22  23
ENDBRANCH  20  22
ENDBRANCH   1  20
TORSDOF 6
ENDMDL
MODEL 2
REMARK VINA RESULT:      38.8      1.943      3.154
REMARK  6 active torsions:
REMARK  status: ('A' for Active; 'I' for Inactive)
REMARK    1  A    between atoms: C_7  and  C_1 
REMARK    2  A    between atoms: C_6  and  C_2 
REMARK       I    between atoms: N_9  and  C_6 
REMARK    3  A    between atoms: O_16  and  C_7 
REMARK       I    between atoms: C_8  and  N_10 
REMARK    4  A    between atoms: C_14  and  C_8 
REMARK    5  A    between atoms: N_10  and  N_9 
REMARK    6  A    between atoms: C_20  and  O_16 
ROOT
ATOM      1  C   UNL d   1      14.665  12.592  -1.198  0.00  0.00     0.083 A 
ATOM      2  C   UNL d   1      15.345  13.687  -0.876  0.00  0.00     0.141 A 
ATOM      3  C   UNL d   1      14.592  13.351  -0.887  0.00  0.00     0.029 A 
ATOM      4  N   UNL d   1      15.875  13.145  -1.174  0.00  0.00    -0.240 NA
ATOM      5  C   UNL d   1      15.463  12.458  -1.378  0.00  0.00     0.087 A 
ATOM      6  C   UNL d   1      13.890  13.706  -0.635  0.00  0.00     0.002 C 
ATOM      7  C   UNL d   1      15.782  11.779  -1.696  0.00  0.00     0.021 C 
ENDROOT
BRANCH   2   8
ATOM      8  C   UNL d   1      15.526  14.451  -0.605  0.00  0.00     0.314 C 
ATOM      9  N   UNL d   1      15.143  15.102  -0.924  0.00  0.00    -0.101 NA
ATOM     10  O   UNL d   1      16.092  14.554  -0.014  0.00  0.00    -0.262 OA
BRANCH   9  11
ATOM     11  N   UNL d   1      15.320  15.863  -0.657  0.00  0.00    -0.102 NA
ATOM     12  C   UNL d   1      15.251  16.511  -1.161  0.00  0.00     0.297 C 
ATOM     13  O   UNL d   1      15.432  17.268  -0.882  0.00  0.00    -0.264 OA
BRANCH  12  14
ATOM     14  C   UNL d   1      15.003  16.397  -1.935  0.00  0.00     0.059 A 
ATOM     15  C   UNL d   1      15.567  16.393  -2.540  0.00  0.00     0.005 A 
ATOM     16  C   UNL d   1      15.321  16.278  -3.326  0.00  0.00     0.000 A 
ATOM     17  C   UNL d   1      14.519  16.169  -3.487  0.00  0.00     0.000 A 
ATOM     18  C   UNL d   1      13.965  16.173  -2.883  0.00  0.00     0.000 A 
ATOM     19  C   UNL d   1      14.209  16.288  -2.101  0.00  0.00     0.005 A 
ENDBRANCH  12  14
ENDBRANCH   9  11
ENDBRANCH   2   8
BRANCH   1  20
ATOM     20  C   UNL d   1      14.048  12.051  -1.311  0.00  0.00     0.302 C 
ATOM     21  O   UNL d   1      13.612  11.783  -0.664  0.00  0.00    -0.259 OA
BRANCH  20  22
ATOM     22  O   UNL d   1      13.869  11.779  -2.073  0.00  0.00    -0.271 OA
BRANCH  22  23
ATOM     23  C   UNL d   1      13.136  11.930  -2.393  0.00  0.00     0.126 C 
ATOM     24  C   UNL d   1      12.995  11.789  -3.194  0.00  0.00     0.029 C 
ENDBRANCH  22  23
ENDBRANCH  20  22
ENDBRANCH   1  20
TORSDOF 6
ENDMDL
