MODEL 1
REMARK VINA RESULT:      -4.8      0.000      0.000
REMARK  7 active torsions:
REMARK  status: ('A' for Active; 'I' for Inactive)
REMARK    1  A    between atoms: N_2  and  S_1 
REMARK    2  A    between atoms: C_5  and  S_1 
REMARK    3  A    between atoms: C_3  and  N_2 
REMARK    4  A    between atoms: C_4  and  C_3 
REMARK    5  A    between atoms: C_8  and  C_3 
REMARK    6  A    between atoms: C_17  and  C_8 
REMARK    7  A    between atoms: C_9  and  C_10 
ROOT
ATOM      1  S   UNL d   1      58.008   0.205  29.786  0.00  0.00     0.285 S 
ATOM      2  O   UNL d   1      57.375   0.681  29.579  0.00  0.00    -0.198 OA
ATOM      3  O   UNL d   1      58.359   0.348  29.042  0.00  0.00    -0.198 OA
ENDROOT
BRANCH   1   4
ATOM      4  N   UNL d   1      58.641  -0.270  29.992  0.00  0.00    -0.152 NA
BRANCH   4   5
ATOM      5  C   UNL d   1      59.282  -0.337  29.499  0.00  0.00     0.158 C 
BRANCH   5   6
ATOM      6  C   UNL d   1      59.944   0.129  29.615  0.00  0.00     0.230 C 
ATOM      7  O   UNL d   1      60.226   0.597  29.015  0.00  0.00    -0.643 OA
ATOM      8  O   UNL d   1      60.325   0.125  30.347  0.00  0.00    -0.643 OA
ENDBRANCH   5   6
BRANCH   5   9
ATOM      9  C   UNL d   1      59.266  -0.879  28.877  0.00  0.00     0.026 C 
BRANCH   9  10
ATOM     10  C   UNL d   1      59.594  -1.630  28.969  0.00  0.00     0.002 A 
ATOM     11  C   UNL d   1      60.408  -1.723  29.092  0.00  0.00     0.000 A 
ATOM     12  C   UNL d   1      60.733  -2.473  29.184  0.00  0.00     0.000 A 
ATOM     13  C   UNL d   1      60.247  -3.137  29.153  0.00  0.00     0.000 A 
ATOM     14  C   UNL d   1      59.414  -3.055  29.028  0.00  0.00     0.000 A 
ATOM     15  C   UNL d   1      59.111  -2.290  28.938  0.00  0.00     0.000 A 
ENDBRANCH   9  10
ENDBRANCH   5   9
ENDBRANCH   4   5
ENDBRANCH   1   4
BRANCH   1  16
ATOM     16  C   UNL d   1      57.665   0.064  30.516  0.00  0.00     0.105 A 
ATOM     17  C   UNL d   1      57.400  -0.694  30.705  0.00  0.00     0.013 A 
ATOM     18  C   UNL d   1      57.057  -0.834  31.435  0.00  0.00    -0.004 A 
ATOM     19  C   UNL d   1      56.978  -0.217  31.975  0.00  0.00    -0.023 A 
ATOM     20  C   UNL d   1      57.245   0.558  31.791  0.00  0.00    -0.004 A 
ATOM     21  C   UNL d   1      57.586   0.682  31.057  0.00  0.00     0.013 A 
BRANCH  19  22
ATOM     22  C   UNL d   1      56.628  -0.384  32.706  0.00  0.00     0.019 C 
ATOM     23  C   UNL d   1      56.982   0.287  33.015  0.00  0.00     0.004 C 
ATOM     24  C   UNL d   1      56.286  -0.544  33.424  0.00  0.00     0.004 C 
ATOM     25  C   UNL d   1      56.279  -1.052  32.387  0.00  0.00     0.004 C 
ENDBRANCH  19  22
ENDBRANCH   1  16
TORSDOF 7
ENDMDL
MODEL 2
REMARK VINA RESULT:      -2.1      1.548      2.175
REMARK  7 active torsions:
REMARK  status: ('A' for Active; 'I' for Inactive)
REMARK    1  A    between atoms: N_2  and  S_1 
REMARK    2  A    between atoms: C_5  and  S_1 
REMARK    3  A    between atoms: C_3  and  N_2 
REMARK    4  A    between atoms: C_4  and  C_3 
REMARK    5  A    between atoms: C_8  and  C_3 
REMARK    6  A    between atoms: C_17  and  C_8 
REMARK    7  A    between atoms: C_9  and  C_10 
ROOT
ATOM      1  S   UNL d   1      57.022   0.288  30.712  0.00  0.00     0.285 S 
ATOM      2  O   UNL d   1      56.311   0.680  30.609  0.00  0.00    -0.198 OA
ATOM      3  O   UNL d   1      57.211   0.421  29.909  0.00  0.00    -0.198 OA
ENDROOT
BRANCH   1   4
ATOM      4  N   UNL d   1      57.733  -0.103  30.814  0.00  0.00    -0.152 NA
BRANCH   4   5
ATOM      5  C   UNL d   1      58.238  -0.208  30.188  0.00  0.00     0.158 C 
BRANCH   5   6
ATOM      6  C   UNL d   1      58.306  -0.941  29.830  0.00  0.00     0.230 C 
ATOM      7  O   UNL d   1      58.519  -1.591  30.266  0.00  0.00    -0.643 OA
ATOM      8  O   UNL d   1      58.158  -1.018  29.022  0.00  0.00    -0.643 OA
ENDBRANCH   5   6
BRANCH   5   9
ATOM      9  C   UNL d   1      58.684   0.427  29.909  0.00  0.00     0.026 C 
BRANCH   9  10
ATOM     10  C   UNL d   1      59.498   0.456  30.043  0.00  0.00     0.002 A 
ATOM     11  C   UNL d   1      59.797   0.647  30.793  0.00  0.00     0.000 A 
ATOM     12  C   UNL d   1      60.607   0.675  30.923  0.00  0.00     0.000 A 
ATOM     13  C   UNL d   1      61.128   0.513  30.307  0.00  0.00     0.000 A 
ATOM     14  C   UNL d   1      60.836   0.317  29.537  0.00  0.00     0.000 A 
ATOM     15  C   UNL d   1      60.016   0.295  29.430  0.00  0.00     0.000 A 
ENDBRANCH   9  10
ENDBRANCH   5   9
ENDBRANCH   4   5
ENDBRANCH   1   4
BRANCH   1  16
ATOM     16  C   UNL d   1      56.837   0.158  31.499  0.00  0.00     0.105 A 
ATOM     17  C   UNL d   1      56.379  -0.495  31.709  0.00  0.00     0.013 A 
ATOM     18  C   UNL d   1      56.194  -0.624  32.496  0.00  0.00    -0.004 A 
ATOM     19  C   UNL d   1      56.467  -0.101  33.072  0.00  0.00    -0.023 A 
ATOM     20  C   UNL d   1      56.933   0.566  32.866  0.00  0.00    -0.004 A 
ATOM     21  C   UNL d   1      57.110   0.681  32.075  0.00  0.00     0.013 A 
BRANCH  19  22
ATOM     22  C   UNL d   1      56.267  -0.254  33.860  0.00  0.00     0.019 C 
ATOM     23  C   UNL d   1      55.761  -0.845  33.604  0.00  0.00     0.004 C 
ATOM     24  C   UNL d   1      56.068  -0.407  34.632  0.00  0.00     0.004 C 
ATOM     25  C   UNL d   1      56.775   0.339  34.105  0.00  0.00     0.004 C 
ENDBRANCH  19  22
ENDBRANCH   1  16
TORSDOF 7
ENDMDL
