MODEL 1
REMARK VINA RESULT:      46.9      0.000      0.000
REMARK  4 active torsions:
REMARK  status: ('A' for Active; 'I' for Inactive)
REMARK    1  A    between atoms: C_10  and  C_3 
REMARK    2  A    between atoms: S_8  and  C_4 
REMARK       I    between atoms: N_6  and  C_7 
REMARK    3  A    between atoms: C_7  and  C_9 
REMARK    4  A    between atoms: C_9  and  S_8 
ROOT
ATOM      1  O   UNL d   1     -50.912  25.726  33.315  0.00  0.00    -0.263 OA
ATOM      2  N   UNL d   1     -52.131  26.266  33.313  0.00  0.00    -0.120 NA
ATOM      3  C   UNL d   1     -51.720  25.558  33.317  0.00  0.00     0.205 A 
ATOM      4  C   UNL d   1     -50.825  26.544  33.309  0.00  0.00     0.236 A 
ATOM      5  N   UNL d   1     -51.575  26.881  33.308  0.00  0.00    -0.114 NA
ENDROOT
BRANCH   4   6
ATOM      6  S   UNL d   1     -50.103  26.960  33.306  0.00  0.00    -0.036 SA
BRANCH   6   7
ATOM      7  C   UNL d   1     -49.778  27.226  34.017  0.00  0.00     0.100 C 
BRANCH   7   8
ATOM      8  C   UNL d   1     -48.974  27.400  34.077  0.00  0.00     0.272 C 
ATOM      9  N   UNL d   1     -48.703  27.918  34.655  0.00  0.00    -0.272 N 
ATOM     10  C   UNL d   1     -49.232  28.271  35.183  0.00  0.00     0.083 A 
ATOM     11  C   UNL d   1     -47.888  28.084  34.703  0.00  0.00     0.083 A 
ATOM     12  C   UNL d   1     -48.947  28.790  35.760  0.00  0.00     0.019 A 
ATOM     13  C   UNL d   1     -48.147  28.955  35.810  0.00  0.00     0.003 A 
ATOM     14  C   UNL d   1     -47.618  28.608  35.289  0.00  0.00     0.019 A 
ATOM     15  O   UNL d   1     -48.444  27.047  33.548  0.00  0.00    -0.266 OA
ENDBRANCH   7   8
ENDBRANCH   6   7
ENDBRANCH   4   6
BRANCH   3  16
ATOM     16  C   UNL d   1     -52.023  24.797  33.322  0.00  0.00     0.043 A 
ATOM     17  C   UNL d   1     -52.840  24.684  33.314  0.00  0.00     0.004 A 
ATOM     18  C   UNL d   1     -53.151  23.921  33.319  0.00  0.00     0.000 A 
ATOM     19  C   UNL d   1     -52.632  23.273  33.332  0.00  0.00     0.000 A 
ATOM     20  C   UNL d   1     -51.815  23.385  33.340  0.00  0.00     0.000 A 
ATOM     21  C   UNL d   1     -51.521  24.153  33.335  0.00  0.00     0.004 A 
ENDBRANCH   3  16
TORSDOF 4
ENDMDL
MODEL 2
REMARK VINA RESULT:      48.2      1.023      1.330
REMARK  4 active torsions:
REMARK  status: ('A' for Active; 'I' for Inactive)
REMARK    1  A    between atoms: C_10  and  C_3 
REMARK    2  A    between atoms: S_8  and  C_4 
REMARK       I    between atoms: N_6  and  C_7 
REMARK    3  A    between atoms: C_7  and  C_9 
REMARK    4  A    between atoms: C_9  and  S_8 
ROOT
ATOM      1  O   UNL d   1     -49.956  26.376  33.583  0.00  0.00    -0.263 OA
ATOM      2  N   UNL d   1     -51.150  26.939  33.390  0.00  0.00    -0.120 NA
ATOM      3  C   UNL d   1     -50.758  26.223  33.455  0.00  0.00     0.205 A 
ATOM      4  C   UNL d   1     -49.854  27.192  33.597  0.00  0.00     0.236 A 
ATOM      5  N   UNL d   1     -50.589  27.543  33.479  0.00  0.00    -0.114 NA
ENDROOT
BRANCH   4   6
ATOM      6  S   UNL d   1     -49.134  27.594  33.712  0.00  0.00    -0.036 SA
BRANCH   6   7
ATOM      7  C   UNL d   1     -49.095  28.225  34.244  0.00  0.00     0.100 C 
BRANCH   7   8
ATOM      8  C   UNL d   1     -48.494  28.268  34.807  0.00  0.00     0.272 C 
ATOM      9  N   UNL d   1     -48.189  28.996  35.035  0.00  0.00    -0.272 N 
ATOM     10  C   UNL d   1     -48.480  29.695  34.702  0.00  0.00     0.083 A 
ATOM     11  C   UNL d   1     -47.582  29.024  35.604  0.00  0.00     0.083 A 
ATOM     12  C   UNL d   1     -48.165  30.422  34.939  0.00  0.00     0.019 A 
ATOM     13  C   UNL d   1     -47.569  30.452  35.498  0.00  0.00     0.003 A 
ATOM     14  C   UNL d   1     -47.276  29.763  35.831  0.00  0.00     0.019 A 
ATOM     15  O   UNL d   1     -48.202  27.569  35.140  0.00  0.00    -0.266 OA
ENDBRANCH   7   8
ENDBRANCH   6   7
ENDBRANCH   4   6
BRANCH   3  16
ATOM     16  C   UNL d   1     -51.071  25.468  33.406  0.00  0.00     0.043 A 
ATOM     17  C   UNL d   1     -51.889  25.367  33.399  0.00  0.00     0.004 A 
ATOM     18  C   UNL d   1     -52.211  24.610  33.351  0.00  0.00     0.000 A 
ATOM     19  C   UNL d   1     -51.702  23.956  33.309  0.00  0.00     0.000 A 
ATOM     20  C   UNL d   1     -50.883  24.056  33.317  0.00  0.00     0.000 A 
ATOM     21  C   UNL d   1     -50.578  24.819  33.366  0.00  0.00     0.004 A 
ENDBRANCH   3  16
TORSDOF 4
ENDMDL
