MODEL 1
REMARK VINA RESULT:      24.7      0.000      0.000
REMARK  2 active torsions:
REMARK  status: ('A' for Active; 'I' for Inactive)
REMARK    1  A    between atoms: C_7  and  C_2 
REMARK    2  A    between atoms: C_6  and  N_3 
ROOT
ATOM      1  C   UNL d   1      13.686  12.381  -2.524  0.00  0.00     0.085 A 
ATOM      2  C   UNL d   1      14.469  12.381  -2.305  0.00  0.00     0.019 A 
ATOM      3  C   UNL d   1      14.687  12.182  -1.535  0.00  0.00     0.002 A 
ATOM      4  C   UNL d   1      13.097  12.174  -1.951  0.00  0.00     0.019 A 
ATOM      5  C   UNL d   1      14.113  11.981  -0.977  0.00  0.00     0.000 A 
ATOM      6  C   UNL d   1      13.309  11.974  -1.177  0.00  0.00     0.002 A 
ATOM      7  C   UNL d   1      15.474  12.190  -1.342  0.00  0.00     0.000 A 
ATOM      8  C   UNL d   1      14.314  11.782  -0.213  0.00  0.00     0.000 A 
ATOM      9  C   UNL d   1      15.706  11.996  -0.588  0.00  0.00     0.000 A 
ATOM     10  C   UNL d   1      15.117  11.789  -0.014  0.00  0.00     0.000 A 
ENDROOT
BRANCH   1  11
ATOM     11  N   UNL d   1      13.445  12.577  -3.287  0.00  0.00    -0.210 N 
ATOM     12  C   UNL d   1      13.456  13.291  -3.684  0.00  0.00     0.191 A 
ATOM     13  C   UNL d   1      13.156  13.169  -4.415  0.00  0.00     0.118 A 
ATOM     14  N   UNL d   1      13.729  14.000  -3.374  0.00  0.00    -0.127 N 
ATOM     15  C   UNL d   1      12.951  12.374  -4.492  0.00  0.00     0.129 A 
ATOM     16  N   UNL d   1      13.129  12.019  -3.803  0.00  0.00    -0.162 NA
BRANCH  13  17
ATOM     17  C   UNL d   1      13.070  13.754  -4.994  0.00  0.00     0.301 C 
ATOM     18  O   UNL d   1      13.293  13.574  -5.739  0.00  0.00    -0.263 OA
ATOM     19  N   UNL d   1      12.774  14.471  -4.807  0.00  0.00    -0.102 N 
ENDBRANCH  13  17
ENDBRANCH   1  11
TORSDOF 2
ENDMDL
