MODEL 1
REMARK VINA RESULT:       7.6      0.000      0.000
REMARK  4 active torsions:
REMARK  status: ('A' for Active; 'I' for Inactive)
REMARK    1  A    between atoms: S_6  and  C_1 
REMARK    2  A    between atoms: C_9  and  N_2 
REMARK    3  A    between atoms: C_15  and  S_6 
REMARK    4  A    between atoms: C_14  and  C_9 
ROOT
ATOM      1  C   UNL d   1     -41.681-122.546 -51.287  0.00  0.00     0.145 A 
ATOM      2  N   UNL d   1     -41.423-122.481 -52.586  0.00  0.00    -0.270 N 
ATOM      3  C   UNL d   1     -41.560-121.750 -51.479  0.00  0.00     0.130 A 
ATOM      4  C   UNL d   1     -41.597-122.998 -51.970  0.00  0.00     0.183 A 
ATOM      5  C   UNL d   1     -41.400-121.709 -52.288  0.00  0.00     0.168 A 
ATOM      6  N   UNL d   1     -41.575-121.061 -51.026  0.00  0.00    -0.240 NA
ATOM      7  N   UNL d   1     -41.254-120.981 -52.645  0.00  0.00    -0.225 NA
ATOM      8  C   UNL d   1     -41.429-120.333 -51.383  0.00  0.00     0.099 A 
ATOM      9  C   UNL d   1     -41.268-120.293 -52.192  0.00  0.00     0.101 A 
ATOM     10  N   UNL d   1     -41.671-123.817 -52.038  0.00  0.00    -0.128 N 
ATOM     11  C   UNL d   1     -41.444-119.645 -50.930  0.00  0.00     0.021 A 
ATOM     12  C   UNL d   1     -41.123-119.564 -52.548  0.00  0.00     0.021 A 
ATOM     13  C   UNL d   1     -41.137-118.876 -52.096  0.00  0.00     0.002 A 
ATOM     14  C   UNL d   1     -41.298-118.916 -51.286  0.00  0.00     0.002 A 
ENDROOT
BRANCH   1  15
ATOM     15  S   UNL d   1     -41.858-122.832 -50.532  0.00  0.00     0.214 S 
ATOM     16  O   UNL d   1     -42.583-122.655 -50.876  0.00  0.00    -0.217 OA
ATOM     17  O   UNL d   1     -41.127-123.010 -50.188  0.00  0.00    -0.217 OA
BRANCH  15  18
ATOM     18  C   UNL d   1     -42.048-123.116 -49.783  0.00  0.00     0.088 A 
ATOM     19  C   UNL d   1     -42.855-123.068 -49.606  0.00  0.00     0.011 A 
ATOM     20  C   UNL d   1     -43.129-123.334 -48.869  0.00  0.00     0.001 A 
ATOM     21  C   UNL d   1     -42.600-123.644 -48.315  0.00  0.00     0.000 A 
ATOM     22  C   UNL d   1     -41.796-123.690 -48.495  0.00  0.00     0.001 A 
ATOM     23  C   UNL d   1     -41.518-123.426 -49.230  0.00  0.00     0.011 A 
ENDBRANCH  15  18
ENDBRANCH   1  15
BRANCH   2  24
ATOM     24  C   UNL d   1     -41.293-122.691 -53.375  0.00  0.00     0.108 C 
BRANCH  24  25
ATOM     25  C   UNL d   1     -41.844-122.491 -53.949  0.00  0.00     0.118 A 
ATOM     26  O   UNL d   1     -42.652-122.604 -53.897  0.00  0.00    -0.304 OA
ATOM     27  C   UNL d   1     -42.999-122.324 -54.596  0.00  0.00     0.123 A 
ATOM     28  C   UNL d   1     -42.397-122.042 -55.074  0.00  0.00     0.029 A 
ATOM     29  C   UNL d   1     -41.686-122.147 -54.671  0.00  0.00     0.028 A 
ENDBRANCH  24  25
ENDBRANCH   2  24
TORSDOF 4
ENDMDL
