MODEL 1
REMARK VINA RESULT:      21.4      0.000      0.000
REMARK  4 active torsions:
REMARK  status: ('A' for Active; 'I' for Inactive)
REMARK       I    between atoms: C_2  and  N_1 
REMARK       I    between atoms: C_3  and  N_1 
REMARK    1  A    between atoms: C_4  and  C_2 
REMARK       I    between atoms: N_7  and  C_3 
REMARK    2  A    between atoms: C_15  and  N_7 
REMARK    3  A    between atoms: N_11  and  C_16 
REMARK    4  A    between atoms: C_16  and  C_15 
ROOT
ATOM      1  N   UNL d   1     -54.716-101.415 -42.181  0.00  0.00    -0.152 NA
ATOM      2  C   UNL d   1     -54.721-101.495 -43.006  0.00  0.00     0.283 C 
ATOM      3  C   UNL d   1     -54.716-102.086 -41.697  0.00  0.00     0.371 C 
ATOM      4  O   UNL d   1     -54.725-102.251 -43.348  0.00  0.00    -0.265 OA
ATOM      5  O   UNL d   1     -54.720-102.838 -42.027  0.00  0.00    -0.242 OA
ATOM      6  N   UNL d   1     -54.712-102.004 -40.869  0.00  0.00    -0.188 NA
ENDROOT
BRANCH   2   7
ATOM      7  C   UNL d   1     -54.721-100.828 -43.489  0.00  0.00     0.058 A 
ATOM      8  C   UNL d   1     -54.715-100.918 -44.314  0.00  0.00     0.006 A 
ATOM      9  C   UNL d   1     -54.715-100.257 -44.803  0.00  0.00     0.012 A 
ATOM     10  C   UNL d   1     -54.722 -99.493 -44.471  0.00  0.00     0.058 A 
ATOM     11  C   UNL d   1     -54.728 -99.409 -43.639  0.00  0.00     0.012 A 
ATOM     12 CL   UNL d   1     -54.722 -98.817 -44.946  0.00  0.00    -0.082 Cl
ATOM     13  C   UNL d   1     -54.728-100.079 -43.153  0.00  0.00     0.006 A 
ENDBRANCH   2   7
BRANCH   6  14
ATOM     14  C   UNL d   1     -54.712-102.762 -40.565  0.00  0.00     0.123 C 
BRANCH  14  15
ATOM     15  C   UNL d   1     -54.714-102.879 -39.751  0.00  0.00     0.101 C 
BRANCH  15  16
ATOM     16  N   UNL d   1     -55.419-102.860 -39.335  0.00  0.00    -0.299 N 
ATOM     17  C   UNL d   1     -55.406-102.859 -38.517  0.00  0.00     0.100 C 
ATOM     18  C   UNL d   1     -56.214-102.839 -39.543  0.00  0.00     0.100 C 
ENDBRANCH  15  16
ENDBRANCH  14  15
ENDBRANCH   6  14
TORSDOF 4
ENDMDL
MODEL 2
REMARK VINA RESULT:      22.6      2.173      4.796
REMARK  4 active torsions:
REMARK  status: ('A' for Active; 'I' for Inactive)
REMARK       I    between atoms: C_2  and  N_1 
REMARK       I    between atoms: C_3  and  N_1 
REMARK    1  A    between atoms: C_4  and  C_2 
REMARK       I    between atoms: N_7  and  C_3 
REMARK    2  A    between atoms: C_15  and  N_7 
REMARK    3  A    between atoms: N_11  and  C_16 
REMARK    4  A    between atoms: C_16  and  C_15 
ROOT
ATOM      1  N   UNL d   1     -54.711-101.444 -41.214  0.00  0.00    -0.152 NA
ATOM      2  C   UNL d   1     -54.711-102.160 -40.797  0.00  0.00     0.283 C 
ATOM      3  C   UNL d   1     -54.711-101.442 -42.041  0.00  0.00     0.371 C 
ATOM      4  O   UNL d   1     -54.712-102.879 -41.211  0.00  0.00    -0.265 OA
ATOM      5  O   UNL d   1     -54.711-102.149 -42.459  0.00  0.00    -0.242 OA
ATOM      6  N   UNL d   1     -54.711-100.722 -42.458  0.00  0.00    -0.188 NA
ENDROOT
BRANCH   2   7
ATOM      7  C   UNL d   1     -54.711-102.163 -39.974  0.00  0.00     0.058 A 
ATOM      8  C   UNL d   1     -54.711-101.444 -39.560  0.00  0.00     0.006 A 
ATOM      9  C   UNL d   1     -54.711-101.439 -38.738  0.00  0.00     0.012 A 
ATOM     10  C   UNL d   1     -54.712-102.158 -38.317  0.00  0.00     0.058 A 
ATOM     11  C   UNL d   1     -54.712-102.879 -38.740  0.00  0.00     0.012 A 
ATOM     12 CL   UNL d   1     -54.712-102.173 -37.490  0.00  0.00    -0.082 Cl
ATOM     13  C   UNL d   1     -54.712-102.876 -39.567  0.00  0.00     0.006 A 
ENDBRANCH   2   7
BRANCH   6  14
ATOM     14  C   UNL d   1     -54.711-100.917 -43.251  0.00  0.00     0.123 C 
BRANCH  14  15
ATOM     15  C   UNL d   1     -54.821-100.333 -43.819  0.00  0.00     0.101 C 
BRANCH  15  16
ATOM     16  N   UNL d   1     -54.932-100.539 -44.604  0.00  0.00    -0.299 N 
ATOM     17  C   UNL d   1     -54.890 -99.963 -45.183  0.00  0.00     0.100 C 
ATOM     18  C   UNL d   1     -55.089-101.241 -45.001  0.00  0.00     0.100 C 
ENDBRANCH  15  16
ENDBRANCH  14  15
ENDBRANCH   6  14
TORSDOF 4
ENDMDL
