MODEL 1
REMARK VINA RESULT:       8.3      0.000      0.000
REMARK  1 active torsions:
REMARK  status: ('A' for Active; 'I' for Inactive)
REMARK    1  A    between atoms: N_4  and  C_1 
ROOT
ATOM      1  C   UNL d   1      13.877  12.363  -2.327  0.00  0.00     0.735 A 
ATOM      2  N   UNL d   1      13.939  13.037  -2.799  0.00  0.00    -0.059 NA
ATOM      3  N   UNL d   1      13.473  11.784  -2.761  0.00  0.00    -0.059 NA
ATOM      4  C   UNL d   1      13.574  12.879  -3.526  0.00  0.00     0.118 A 
ATOM      5  C   UNL d   1      13.287  12.106  -3.502  0.00  0.00     0.118 A 
ATOM      6  C   UNL d   1      13.468  13.338  -4.200  0.00  0.00     0.021 A 
ATOM      7  C   UNL d   1      12.891  11.785  -4.153  0.00  0.00     0.021 A 
ATOM      8  C   UNL d   1      12.784  12.244  -4.829  0.00  0.00     0.002 A 
ATOM      9  C   UNL d   1      13.071  13.017  -4.852  0.00  0.00     0.002 A 
ENDROOT
BRANCH   1  10
ATOM     10  N   UNL d   1      14.163  12.270  -1.559  0.00  0.00    -0.134 N 
ATOM     11  C   UNL d   1      14.922  12.530  -1.358  0.00  0.00     0.119 A 
ATOM     12  C   UNL d   1      15.199  12.434  -0.591  0.00  0.00     0.119 A 
ATOM     13  N   UNL d   1      14.724  12.079  -0.019  0.00  0.00    -0.239 NA
ATOM     14  C   UNL d   1      13.964  11.819  -0.218  0.00  0.00     0.119 A 
ATOM     15  C   UNL d   1      13.678  11.912  -0.990  0.00  0.00     0.119 A 
ENDBRANCH   1  10
TORSDOF 1
ENDMDL
MODEL 2
REMARK VINA RESULT:       9.3      0.843      3.465
REMARK  1 active torsions:
REMARK  status: ('A' for Active; 'I' for Inactive)
REMARK    1  A    between atoms: N_4  and  C_1 
ROOT
ATOM      1  C   UNL d   1      13.769  12.296  -2.692  0.00  0.00     0.735 A 
ATOM      2  N   UNL d   1      14.563  12.370  -2.475  0.00  0.00    -0.059 NA
ATOM      3  N   UNL d   1      13.341  12.072  -2.018  0.00  0.00    -0.059 NA
ATOM      4  C   UNL d   1      14.628  12.193  -1.668  0.00  0.00     0.118 A 
ATOM      5  C   UNL d   1      13.875  12.009  -1.387  0.00  0.00     0.118 A 
ATOM      6  C   UNL d   1      15.275  12.176  -1.159  0.00  0.00     0.021 A 
ATOM      7  C   UNL d   1      13.761  11.807  -0.593  0.00  0.00     0.021 A 
ATOM      8  C   UNL d   1      14.407  11.790  -0.083  0.00  0.00     0.002 A 
ATOM      9  C   UNL d   1      15.160  11.974  -0.365  0.00  0.00     0.002 A 
ENDROOT
BRANCH   1  10
ATOM     10  N   UNL d   1      13.449  12.419  -3.442  0.00  0.00    -0.134 N 
ATOM     11  C   UNL d   1      13.473  13.168  -3.791  0.00  0.00     0.119 A 
ATOM     12  C   UNL d   1      13.152  13.283  -4.538  0.00  0.00     0.119 A 
ATOM     13  N   UNL d   1      12.804  12.654  -4.943  0.00  0.00    -0.239 NA
ATOM     14  C   UNL d   1      12.780  11.904  -4.594  0.00  0.00     0.119 A 
ATOM     15  C   UNL d   1      13.102  11.781  -3.840  0.00  0.00     0.119 A 
ENDBRANCH   1  10
TORSDOF 1
ENDMDL
