MODEL 1
REMARK VINA RESULT:      59.8      0.000      0.000
REMARK  7 active torsions:
REMARK  status: ('A' for Active; 'I' for Inactive)
REMARK    1  A    between atoms: C_6  and  N_2 
REMARK    2  A    between atoms: C_7  and  C_3 
REMARK    3  A    between atoms: C_15  and  C_6 
REMARK    4  A    between atoms: C_21  and  C_7 
REMARK    5  A    between atoms: C_8  and  O_14 
REMARK    6  A    between atoms: O_14  and  C_15 
REMARK    7  A    between atoms: C_19  and  C_21 
ROOT
ATOM      1  N   UNL d   1     -59.199 -98.769 -42.535  0.00  0.00    -0.227 NA
ATOM      2  N   UNL d   1     -57.957 -98.763 -43.090  0.00  0.00    -0.287 N 
ATOM      3  C   UNL d   1     -58.379 -98.763 -42.369  0.00  0.00     0.148 A 
ATOM      4  C   UNL d   1     -58.523 -98.770 -43.708  0.00  0.00     0.083 A 
ATOM      5  C   UNL d   1     -59.277 -98.773 -43.368  0.00  0.00     0.099 A 
ATOM      6  C   UNL d   1     -58.447 -98.773 -44.533  0.00  0.00     0.019 A 
ATOM      7  C   UNL d   1     -59.951 -98.779 -43.845  0.00  0.00     0.021 A 
ATOM      8  C   UNL d   1     -59.119 -98.779 -45.011  0.00  0.00     0.002 A 
ATOM      9  C   UNL d   1     -59.871 -98.783 -44.667  0.00  0.00     0.002 A 
ENDROOT
BRANCH   2  10
ATOM     10  C   UNL d   1     -57.141 -98.759 -43.184  0.00  0.00     0.108 C 
BRANCH  10  11
ATOM     11  C   UNL d   1     -56.694 -99.439 -43.014  0.00  0.00     0.142 C 
BRANCH  11  12
ATOM     12  O   UNL d   1     -55.892 -99.453 -43.186  0.00  0.00    -0.304 OA
BRANCH  12  13
ATOM     13  C   UNL d   1     -55.601 -99.980 -43.746  0.00  0.00     0.100 A 
ATOM     14  C   UNL d   1     -55.378 -99.703 -44.493  0.00  0.00     0.025 A 
ATOM     15  C   UNL d   1     -55.087-100.230 -45.053  0.00  0.00     0.002 A 
ATOM     16  C   UNL d   1     -55.017-101.038 -44.871  0.00  0.00     0.000 A 
ATOM     17  C   UNL d   1     -55.243-101.309 -44.120  0.00  0.00     0.002 A 
ATOM     18  C   UNL d   1     -54.725-101.561 -45.434  0.00  0.00     0.000 C 
ATOM     19  C   UNL d   1     -55.535-100.777 -43.559  0.00  0.00     0.025 A 
ENDBRANCH  12  13
ENDBRANCH  11  12
ENDBRANCH  10  11
ENDBRANCH   2  10
BRANCH   3  20
ATOM     20  C   UNL d   1     -58.458 -98.760 -41.548  0.00  0.00     0.041 C 
BRANCH  20  21
ATOM     21  C   UNL d   1     -59.211 -98.768 -41.209  0.00  0.00     0.049 C 
BRANCH  21  22
ATOM     22  C   UNL d   1     -59.324 -99.122 -40.472  0.00  0.00     0.234 C 
ATOM     23  O   UNL d   1     -58.703 -99.161 -39.933  0.00  0.00    -0.283 OA
ENDBRANCH  21  22
ENDBRANCH  20  21
ENDBRANCH   3  20
TORSDOF 7
ENDMDL
