MODEL 1
REMARK VINA RESULT:      49.7      0.000      0.000
REMARK  4 active torsions:
REMARK  status: ('A' for Active; 'I' for Inactive)
REMARK       I    between atoms: C_3  and  N_7 
REMARK    1  A    between atoms: C_6  and  C_3 
REMARK    2  A    between atoms: C_8  and  C_6 
REMARK    3  A    between atoms: N_7  and  C_9 
REMARK    4  A    between atoms: C_13  and  C_8 
ROOT
ATOM      1  C   UNL d   1      60.443  48.666  50.756  0.00  0.00     0.279 C 
ATOM      2  N   UNL d   1      60.400  47.844  50.841  0.00  0.00    -0.207 NA
ATOM      3  O   UNL d   1      61.049  48.999  50.320  0.00  0.00    -0.265 OA
ENDROOT
BRANCH   1   4
ATOM      4  C   UNL d   1      59.872  49.142  51.114  0.00  0.00     0.062 C 
BRANCH   4   5
ATOM      5  C   UNL d   1      59.453  49.689  50.666  0.00  0.00     0.005 C 
BRANCH   5   6
ATOM      6  C   UNL d   1      58.635  49.694  50.672  0.00  0.00     0.000 A 
ATOM      7  C   UNL d   1      58.224  49.690  51.390  0.00  0.00     0.000 A 
ATOM      8  C   UNL d   1      57.406  49.695  51.386  0.00  0.00     0.000 A 
ATOM      9  C   UNL d   1      56.992  49.704  50.680  0.00  0.00     0.000 A 
ATOM     10  C   UNL d   1      57.395  49.708  49.965  0.00  0.00     0.000 A 
ATOM     11  C   UNL d   1      58.222  49.703  49.957  0.00  0.00     0.000 A 
ENDBRANCH   5   6
ENDBRANCH   4   5
ENDBRANCH   1   4
BRANCH   2  12
ATOM     12  C   UNL d   1      60.968  47.370  50.485  0.00  0.00     0.097 A 
ATOM     13  C   UNL d   1      60.692  46.735  50.937  0.00  0.00     0.118 A 
ATOM     14  S   UNL d   1      61.145  46.068  50.746  0.00  0.00     0.213 S 
ATOM     15  O   UNL d   1      60.560  45.940  51.311  0.00  0.00    -0.217 OA
ATOM     16  O   UNL d   1      61.637  45.448  50.506  0.00  0.00    -0.217 OA
ATOM     17  C   UNL d   1      61.702  46.293  50.175  0.00  0.00     0.100 A 
ATOM     18  C   UNL d   1      61.596  47.092  50.013  0.00  0.00     0.032 A 
ENDBRANCH   2  12
TORSDOF 4
ENDMDL
