MODEL 1
REMARK VINA RESULT:      -8.9      0.000      0.000
REMARK  4 active torsions:
REMARK  status: ('A' for Active; 'I' for Inactive)
REMARK    1  A    between atoms: N_2  and  S_1 
REMARK    2  A    between atoms: C_3  and  S_1 
REMARK    3  A    between atoms: O_15  and  C_13 
REMARK    4  A    between atoms: C_19  and  O_15 
ROOT
ATOM      1  C   UNL d   1      52.226  33.827  53.388  0.00  0.00     0.105 A 
ATOM      2  C   UNL d   1      52.557  33.063  53.334  0.00  0.00     0.014 A 
ATOM      3  C   UNL d   1      53.270  32.896  53.710  0.00  0.00     0.024 A 
ATOM      4  C   UNL d   1      52.628  34.408  53.826  0.00  0.00     0.015 A 
ATOM      5  C   UNL d   1      53.661  33.475  54.142  0.00  0.00     0.100 A 
ATOM      6  C   UNL d   1      53.340  34.233  54.200  0.00  0.00     0.025 A 
ATOM      7  C   UNL d   1      52.166  32.479  52.901  0.00  0.00     0.001 A 
ATOM      8  C   UNL d   1      53.591  32.142  53.653  0.00  0.00     0.002 A 
ATOM      9  C   UNL d   1      52.487  31.725  52.844  0.00  0.00     0.000 A 
ATOM     10  C   UNL d   1      53.207  31.553  53.223  0.00  0.00     0.000 A 
ENDROOT
BRANCH   1  11
ATOM     11  S   UNL d   1      51.514  34.001  53.014  0.00  0.00     0.286 S 
ATOM     12  O   UNL d   1      51.099  33.724  53.674  0.00  0.00    -0.198 OA
ATOM     13  O   UNL d   1      51.931  34.280  52.350  0.00  0.00    -0.198 OA
BRANCH  11  14
ATOM     14  N   UNL d   1      50.790  34.178  52.634  0.00  0.00    -0.150 N 
ATOM     15  N   UNL d   1      50.650  34.144  51.816  0.00  0.00    -0.155 NA
ATOM     16  C   UNL d   1      49.864  34.362  51.684  0.00  0.00     0.104 A 
ATOM     17  C   UNL d   1      49.484  34.406  50.947  0.00  0.00     0.022 C 
ATOM     18  C   UNL d   1      49.519  34.531  52.420  0.00  0.00     0.042 A 
ATOM     19  C   UNL d   1      50.093  34.416  53.003  0.00  0.00     0.115 A 
ENDBRANCH  11  14
ENDBRANCH   1  11
BRANCH   5  20
ATOM     20  O   UNL d   1      54.373  33.301  54.516  0.00  0.00    -0.305 OA
BRANCH  20  21
ATOM     21  C   UNL d   1      54.689  33.826  55.063  0.00  0.00     0.123 C 
ATOM     22  C   UNL d   1      55.482  33.778  55.280  0.00  0.00     0.029 C 
ENDBRANCH  20  21
ENDBRANCH   5  20
TORSDOF 4
ENDMDL
MODEL 2
REMARK VINA RESULT:      -8.8      1.236      2.316
REMARK  4 active torsions:
REMARK  status: ('A' for Active; 'I' for Inactive)
REMARK    1  A    between atoms: N_2  and  S_1 
REMARK    2  A    between atoms: C_3  and  S_1 
REMARK    3  A    between atoms: O_15  and  C_13 
REMARK    4  A    between atoms: C_19  and  O_15 
ROOT
ATOM      1  C   UNL d   1      52.321  32.329  53.166  0.00  0.00     0.105 A 
ATOM      2  C   UNL d   1      52.971  32.455  53.674  0.00  0.00     0.014 A 
ATOM      3  C   UNL d   1      53.443  31.821  53.903  0.00  0.00     0.024 A 
ATOM      4  C   UNL d   1      52.164  31.558  52.900  0.00  0.00     0.015 A 
ATOM      5  C   UNL d   1      53.281  31.061  53.636  0.00  0.00     0.100 A 
ATOM      6  C   UNL d   1      52.640  30.928  53.133  0.00  0.00     0.025 A 
ATOM      7  C   UNL d   1      53.135  33.218  53.943  0.00  0.00     0.001 A 
ATOM      8  C   UNL d   1      54.082  31.951  54.403  0.00  0.00     0.002 A 
ATOM      9  C   UNL d   1      53.774  33.348  54.444  0.00  0.00     0.000 A 
ATOM     10  C   UNL d   1      54.253  32.710  54.677  0.00  0.00     0.000 A 
ENDROOT
BRANCH   1  11
ATOM     11  S   UNL d   1      51.844  32.959  52.933  0.00  0.00     0.286 S 
ATOM     12  O   UNL d   1      51.376  32.853  53.607  0.00  0.00    -0.198 OA
ATOM     13  O   UNL d   1      52.315  33.065  52.256  0.00  0.00    -0.198 OA
BRANCH  11  14
ATOM     14  N   UNL d   1      51.360  33.598  52.697  0.00  0.00    -0.150 N 
ATOM     15  N   UNL d   1      50.628  33.803  53.032  0.00  0.00    -0.155 NA
ATOM     16  C   UNL d   1      50.343  34.467  52.631  0.00  0.00     0.104 A 
ATOM     17  C   UNL d   1      49.628  34.862  52.782  0.00  0.00     0.022 C 
ATOM     18  C   UNL d   1      50.898  34.672  52.048  0.00  0.00     0.042 A 
ATOM     19  C   UNL d   1      51.523  34.133  52.093  0.00  0.00     0.115 A 
ENDBRANCH  11  14
ENDBRANCH   1  11
BRANCH   5  20
ATOM     20  O   UNL d   1      53.758  30.432  53.868  0.00  0.00    -0.305 OA
BRANCH  20  21
ATOM     21  C   UNL d   1      53.472  29.663  53.828  0.00  0.00     0.123 C 
ATOM     22  C   UNL d   1      53.788  29.073  54.308  0.00  0.00     0.029 C 
ENDBRANCH  20  21
ENDBRANCH   5  20
TORSDOF 4
ENDMDL
MODEL 3
REMARK VINA RESULT:      -8.2      1.924      3.455
REMARK  4 active torsions:
REMARK  status: ('A' for Active; 'I' for Inactive)
REMARK    1  A    between atoms: N_2  and  S_1 
REMARK    2  A    between atoms: C_3  and  S_1 
REMARK    3  A    between atoms: O_15  and  C_13 
REMARK    4  A    between atoms: C_19  and  O_15 
ROOT
ATOM      1  C   UNL d   1      53.056  32.841  53.613  0.00  0.00     0.105 A 
ATOM      2  C   UNL d   1      52.358  33.250  53.409  0.00  0.00     0.014 A 
ATOM      3  C   UNL d   1      52.318  34.067  53.505  0.00  0.00     0.024 A 
ATOM      4  C   UNL d   1      53.701  33.272  53.912  0.00  0.00     0.015 A 
ATOM      5  C   UNL d   1      52.959  34.486  53.801  0.00  0.00     0.100 A 
ATOM      6  C   UNL d   1      53.653  34.088  54.006  0.00  0.00     0.025 A 
ATOM      7  C   UNL d   1      51.713  32.831  53.111  0.00  0.00     0.001 A 
ATOM      8  C   UNL d   1      51.628  34.465  53.302  0.00  0.00     0.002 A 
ATOM      9  C   UNL d   1      51.023  33.229  52.908  0.00  0.00     0.000 A 
ATOM     10  C   UNL d   1      50.978  34.054  53.004  0.00  0.00     0.000 A 
ENDROOT
BRANCH   1  11
ATOM     11  S   UNL d   1      53.104  32.024  53.520  0.00  0.00     0.286 S 
ATOM     12  O   UNL d   1      52.966  31.924  54.329  0.00  0.00    -0.198 OA
ATOM     13  O   UNL d   1      53.242  32.126  52.706  0.00  0.00    -0.198 OA
BRANCH  11  14
ATOM     14  N   UNL d   1      53.152  31.195  53.425  0.00  0.00    -0.150 N 
ATOM     15  N   UNL d   1      53.254  30.641  54.036  0.00  0.00    -0.155 NA
ATOM     16  C   UNL d   1      53.272  29.889  53.696  0.00  0.00     0.104 A 
ATOM     17  C   UNL d   1      53.365  29.169  54.100  0.00  0.00     0.022 C 
ATOM     18  C   UNL d   1      53.181  29.977  52.875  0.00  0.00     0.042 A 
ATOM     19  C   UNL d   1      53.108  30.784  52.713  0.00  0.00     0.115 A 
ENDBRANCH  11  14
ENDBRANCH   1  11
BRANCH   5  20
ATOM     20  O   UNL d   1      52.912  35.302  53.895  0.00  0.00    -0.305 OA
BRANCH  20  21
ATOM     21  C   UNL d   1      53.365  35.678  54.467  0.00  0.00     0.123 C 
ATOM     22  C   UNL d   1      53.293  36.488  54.594  0.00  0.00     0.029 C 
ENDBRANCH  20  21
ENDBRANCH   5  20
TORSDOF 4
ENDMDL
MODEL 4
REMARK VINA RESULT:      -7.9      0.990      2.099
REMARK  4 active torsions:
REMARK  status: ('A' for Active; 'I' for Inactive)
REMARK    1  A    between atoms: N_2  and  S_1 
REMARK    2  A    between atoms: C_3  and  S_1 
REMARK    3  A    between atoms: O_15  and  C_13 
REMARK    4  A    between atoms: C_19  and  O_15 
ROOT
ATOM      1  C   UNL d   1      51.426  33.539  53.014  0.00  0.00     0.105 A 
ATOM      2  C   UNL d   1      52.101  33.893  53.355  0.00  0.00     0.014 A 
ATOM      3  C   UNL d   1      52.765  33.436  53.521  0.00  0.00     0.024 A 
ATOM      4  C   UNL d   1      51.441  32.724  52.849  0.00  0.00     0.015 A 
ATOM      5  C   UNL d   1      52.772  32.631  53.356  0.00  0.00     0.100 A 
ATOM      6  C   UNL d   1      52.108  32.274  53.019  0.00  0.00     0.025 A 
ATOM      7  C   UNL d   1      52.096  34.701  53.522  0.00  0.00     0.001 A 
ATOM      8  C   UNL d   1      53.426  33.789  53.857  0.00  0.00     0.002 A 
ATOM      9  C   UNL d   1      52.758  35.054  53.857  0.00  0.00     0.000 A 
ATOM     10  C   UNL d   1      53.430  34.596  54.027  0.00  0.00     0.000 A 
ENDROOT
BRANCH   1  11
ATOM     11  S   UNL d   1      50.758  33.989  52.844  0.00  0.00     0.286 S 
ATOM     12  O   UNL d   1      51.090  34.208  52.119  0.00  0.00    -0.198 OA
ATOM     13  O   UNL d   1      50.425  33.770  53.574  0.00  0.00    -0.198 OA
BRANCH  11  14
ATOM     14  N   UNL d   1      50.080  34.447  52.672  0.00  0.00    -0.150 N 
ATOM     15  N   UNL d   1      49.648  34.900  53.218  0.00  0.00    -0.155 NA
ATOM     16  C   UNL d   1      49.025  35.260  52.813  0.00  0.00     0.104 A 
ATOM     17  C   UNL d   1      48.452  35.764  53.140  0.00  0.00     0.022 C 
ATOM     18  C   UNL d   1      49.072  35.029  52.016  0.00  0.00     0.042 A 
ATOM     19  C   UNL d   1      49.723  34.528  51.934  0.00  0.00     0.115 A 
ENDBRANCH  11  14
ENDBRANCH   1  11
BRANCH   5  20
ATOM     20  O   UNL d   1      53.439  32.180  53.525  0.00  0.00    -0.305 OA
BRANCH  20  21
ATOM     21  C   UNL d   1      53.433  31.370  53.392  0.00  0.00     0.123 C 
ATOM     22  C   UNL d   1      54.029  30.891  53.696  0.00  0.00     0.029 C 
ENDBRANCH  20  21
ENDBRANCH   5  20
TORSDOF 4
ENDMDL
MODEL 5
REMARK VINA RESULT:      -7.7      1.699      3.981
REMARK  4 active torsions:
REMARK  status: ('A' for Active; 'I' for Inactive)
REMARK    1  A    between atoms: N_2  and  S_1 
REMARK    2  A    between atoms: C_3  and  S_1 
REMARK    3  A    between atoms: O_15  and  C_13 
REMARK    4  A    between atoms: C_19  and  O_15 
ROOT
ATOM      1  C   UNL d   1      52.017  32.746  53.148  0.00  0.00     0.105 A 
ATOM      2  C   UNL d   1      52.310  33.502  53.348  0.00  0.00     0.014 A 
ATOM      3  C   UNL d   1      51.824  34.162  53.281  0.00  0.00     0.024 A 
ATOM      4  C   UNL d   1      51.233  32.678  52.882  0.00  0.00     0.015 A 
ATOM      5  C   UNL d   1      51.049  34.087  53.017  0.00  0.00     0.100 A 
ATOM      6  C   UNL d   1      50.752  33.343  52.817  0.00  0.00     0.025 A 
ATOM      7  C   UNL d   1      53.088  33.579  53.613  0.00  0.00     0.001 A 
ATOM      8  C   UNL d   1      52.117  34.904  53.479  0.00  0.00     0.002 A 
ATOM      9  C   UNL d   1      53.381  34.321  53.812  0.00  0.00     0.000 A 
ATOM     10  C   UNL d   1      52.893  34.990  53.745  0.00  0.00     0.000 A 
ENDROOT
BRANCH   1  11
ATOM     11  S   UNL d   1      52.498  32.081  53.213  0.00  0.00     0.286 S 
ATOM     12  O   UNL d   1      52.311  32.024  54.017  0.00  0.00    -0.198 OA
ATOM     13  O   UNL d   1      52.686  32.138  52.405  0.00  0.00    -0.198 OA
BRANCH  11  14
ATOM     14  N   UNL d   1      52.986  31.405  53.279  0.00  0.00    -0.150 N 
ATOM     15  N   UNL d   1      52.792  30.703  53.679  0.00  0.00    -0.155 NA
ATOM     16  C   UNL d   1      53.431  30.185  53.605  0.00  0.00     0.104 A 
ATOM     17  C   UNL d   1      53.479  29.418  53.919  0.00  0.00     0.022 C 
ATOM     18  C   UNL d   1      54.019  30.566  53.159  0.00  0.00     0.042 A 
ATOM     19  C   UNL d   1      53.740  31.318  52.960  0.00  0.00     0.115 A 
ENDBRANCH  11  14
ENDBRANCH   1  11
BRANCH   5  20
ATOM     20  O   UNL d   1      50.569  34.752  52.952  0.00  0.00    -0.305 OA
BRANCH  20  21
ATOM     21  C   UNL d   1      49.792  34.675  52.697  0.00  0.00     0.123 C 
ATOM     22  C   UNL d   1      49.246  35.277  52.827  0.00  0.00     0.029 C 
ENDBRANCH  20  21
ENDBRANCH   5  20
TORSDOF 4
ENDMDL
MODEL 6
REMARK VINA RESULT:      -6.2      1.556      4.000
REMARK  4 active torsions:
REMARK  status: ('A' for Active; 'I' for Inactive)
REMARK    1  A    between atoms: N_2  and  S_1 
REMARK    2  A    between atoms: C_3  and  S_1 
REMARK    3  A    between atoms: O_15  and  C_13 
REMARK    4  A    between atoms: C_19  and  O_15 
ROOT
ATOM      1  C   UNL d   1      52.683  33.842  53.673  0.00  0.00     0.105 A 
ATOM      2  C   UNL d   1      52.330  33.137  53.397  0.00  0.00     0.014 A 
ATOM      3  C   UNL d   1      51.598  33.165  53.022  0.00  0.00     0.024 A 
ATOM      4  C   UNL d   1      52.284  34.562  53.559  0.00  0.00     0.015 A 
ATOM      5  C   UNL d   1      51.209  33.880  52.914  0.00  0.00     0.100 A 
ATOM      6  C   UNL d   1      51.552  34.581  53.183  0.00  0.00     0.025 A 
ATOM      7  C   UNL d   1      52.719  32.418  53.505  0.00  0.00     0.001 A 
ATOM      8  C   UNL d   1      51.254  32.468  52.753  0.00  0.00     0.002 A 
ATOM      9  C   UNL d   1      52.375  31.721  53.236  0.00  0.00     0.000 A 
ATOM     10  C   UNL d   1      51.636  31.745  52.857  0.00  0.00     0.000 A 
ENDROOT
BRANCH   1  11
ATOM     11  S   UNL d   1      53.415  33.822  54.049  0.00  0.00     0.286 S 
ATOM     12  O   UNL d   1      53.794  33.825  53.314  0.00  0.00    -0.198 OA
ATOM     13  O   UNL d   1      53.034  33.819  54.789  0.00  0.00    -0.198 OA
BRANCH  11  14
ATOM     14  N   UNL d   1      54.158  33.803  54.431  0.00  0.00    -0.150 N 
ATOM     15  N   UNL d   1      54.285  33.861  55.251  0.00  0.00    -0.155 NA
ATOM     16  C   UNL d   1      55.099  33.816  55.385  0.00  0.00     0.104 A 
ATOM     17  C   UNL d   1      55.477  33.850  56.123  0.00  0.00     0.022 C 
ATOM     18  C   UNL d   1      55.475  33.731  54.649  0.00  0.00     0.042 A 
ATOM     19  C   UNL d   1      54.891  33.723  54.065  0.00  0.00     0.115 A 
ENDBRANCH  11  14
ENDBRANCH   1  11
BRANCH   5  20
ATOM     20  O   UNL d   1      50.477  33.900  52.537  0.00  0.00    -0.305 OA
BRANCH  20  21
ATOM     21  C   UNL d   1      50.057  34.604  52.491  0.00  0.00     0.123 C 
ATOM     22  C   UNL d   1      49.342  34.639  52.085  0.00  0.00     0.029 C 
ENDBRANCH  20  21
ENDBRANCH   5  20
TORSDOF 4
ENDMDL
