MODEL 1
REMARK VINA RESULT:      -2.2      0.000      0.000
REMARK  3 active torsions:
REMARK  status: ('A' for Active; 'I' for Inactive)
REMARK    1  A    between atoms: C_8  and  N_1 
REMARK    2  A    between atoms: O_16  and  C_11 
REMARK    3  A    between atoms: C_19  and  O_16 
ROOT
ATOM      1  N   UNL d   1      30.865  16.525 -24.151  0.00  0.00    -0.240 N 
ATOM      2  C   UNL d   1      30.552  17.153 -24.565  0.00  0.00     0.267 A 
ATOM      3  C   UNL d   1      30.492  16.049 -23.588  0.00  0.00     0.267 A 
ATOM      4  C   UNL d   1      29.716  16.085 -23.306  0.00  0.00     0.057 A 
ATOM      5  C   UNL d   1      29.793  17.468 -24.530  0.00  0.00     0.057 A 
ATOM      6  C   UNL d   1      29.126  16.612 -23.521  0.00  0.00     0.005 A 
ATOM      7  C   UNL d   1      29.154  17.231 -24.066  0.00  0.00     0.005 A 
ATOM      8  O   UNL d   1      31.070  17.526 -25.097  0.00  0.00    -0.267 OA
ATOM      9  O   UNL d   1      30.964  15.453 -23.266  0.00  0.00    -0.267 OA
ATOM     10  C   UNL d   1      29.571  15.506 -22.747  0.00  0.00     0.005 A 
ATOM     11  C   UNL d   1      29.712  18.098 -25.040  0.00  0.00     0.005 A 
ATOM     12  C   UNL d   1      28.438  17.625 -24.116  0.00  0.00     0.000 A 
ATOM     13  C   UNL d   1      28.376  16.559 -23.171  0.00  0.00     0.000 A 
ATOM     14  C   UNL d   1      28.228  15.973 -22.606  0.00  0.00     0.000 A 
ATOM     15  C   UNL d   1      28.351  18.261 -24.630  0.00  0.00     0.000 A 
ATOM     16  C   UNL d   1      28.994  18.500 -25.096  0.00  0.00     0.000 A 
ATOM     17  C   UNL d   1      28.820  15.453 -22.397  0.00  0.00     0.000 A 
ENDROOT
BRANCH   1  18
ATOM     18  C   UNL d   1      31.657  16.344 -24.315  0.00  0.00     0.092 A 
ATOM     19  C   UNL d   1      32.262  16.734 -23.910  0.00  0.00     0.116 A 
ATOM     20  C   UNL d   1      33.054  16.552 -24.075  0.00  0.00     0.026 A 
ATOM     21  C   UNL d   1      33.241  15.975 -24.649  0.00  0.00     0.002 A 
ATOM     22  C   UNL d   1      32.624  15.584 -25.056  0.00  0.00     0.002 A 
ATOM     23  C   UNL d   1      31.836  15.768 -24.889  0.00  0.00     0.020 A 
BRANCH  19  24
ATOM     24  O   UNL d   1      32.075  17.304 -23.342  0.00  0.00    -0.304 OA
BRANCH  24  25
ATOM     25  C   UNL d   1      32.678  17.671 -22.927  0.00  0.00     0.123 C 
ATOM     26  C   UNL d   1      32.542  18.407 -22.586  0.00  0.00     0.029 C 
ENDBRANCH  24  25
ENDBRANCH  19  24
ENDBRANCH   1  18
TORSDOF 3
ENDMDL
MODEL 2
REMARK VINA RESULT:      -0.7      1.862      3.970
REMARK  3 active torsions:
REMARK  status: ('A' for Active; 'I' for Inactive)
REMARK    1  A    between atoms: C_8  and  N_1 
REMARK    2  A    between atoms: O_16  and  C_11 
REMARK    3  A    between atoms: C_19  and  O_16 
ROOT
ATOM      1  N   UNL d   1      32.754  18.325 -23.720  0.00  0.00    -0.240 N 
ATOM      2  C   UNL d   1      32.820  18.873 -24.322  0.00  0.00     0.267 A 
ATOM      3  C   UNL d   1      32.818  18.453 -22.907  0.00  0.00     0.267 A 
ATOM      4  C   UNL d   1      32.962  19.157 -22.498  0.00  0.00     0.057 A 
ATOM      5  C   UNL d   1      32.964  19.681 -24.271  0.00  0.00     0.057 A 
ATOM      6  C   UNL d   1      33.078  19.905 -22.811  0.00  0.00     0.005 A 
ATOM      7  C   UNL d   1      33.080  20.146 -23.600  0.00  0.00     0.005 A 
ATOM      8  O   UNL d   1      32.728  18.572 -25.091  0.00  0.00    -0.267 OA
ATOM      9  O   UNL d   1      32.724  17.779 -22.439  0.00  0.00    -0.267 OA
ATOM     10  C   UNL d   1      32.983  19.038 -21.690  0.00  0.00     0.005 A 
ATOM     11  C   UNL d   1      32.987  20.022 -25.010  0.00  0.00     0.005 A 
ATOM     12  C   UNL d   1      33.217  20.950 -23.673  0.00  0.00     0.000 A 
ATOM     13  C   UNL d   1      33.217  20.548 -22.305  0.00  0.00     0.000 A 
ATOM     14  C   UNL d   1      33.237  20.429 -21.487  0.00  0.00     0.000 A 
ATOM     15  C   UNL d   1      33.241  21.299 -24.418  0.00  0.00     0.000 A 
ATOM     16  C   UNL d   1      33.124  20.831 -25.092  0.00  0.00     0.000 A 
ATOM     17  C   UNL d   1      33.121  19.681 -21.183  0.00  0.00     0.000 A 
ENDROOT
BRANCH   1  18
ATOM     18  C   UNL d   1      32.605  17.546 -23.957  0.00  0.00     0.092 A 
ATOM     19  C   UNL d   1      31.830  17.298 -24.097  0.00  0.00     0.116 A 
ATOM     20  C   UNL d   1      31.681  16.518 -24.334  0.00  0.00     0.026 A 
ATOM     21  C   UNL d   1      32.314  15.982 -24.432  0.00  0.00     0.002 A 
ATOM     22  C   UNL d   1      33.097  16.238 -24.289  0.00  0.00     0.002 A 
ATOM     23  C   UNL d   1      33.241  17.017 -24.053  0.00  0.00     0.020 A 
BRANCH  19  24
ATOM     24  O   UNL d   1      31.205  17.830 -24.000  0.00  0.00    -0.304 OA
BRANCH  24  25
ATOM     25  C   UNL d   1      30.503  17.704 -24.403  0.00  0.00     0.123 C 
ATOM     26  C   UNL d   1      29.801  17.997 -24.090  0.00  0.00     0.029 C 
ENDBRANCH  24  25
ENDBRANCH  19  24
ENDBRANCH   1  18
TORSDOF 3
ENDMDL
