MODEL 1
REMARK VINA RESULT:     -11.5      0.000      0.000
REMARK  1 active torsions:
REMARK  status: ('A' for Active; 'I' for Inactive)
REMARK    1  A    between atoms: C_10  and  N_3 
ROOT
ATOM      1  C   UNL d   1      53.545  32.631  54.194  0.00  0.00     0.166 A 
ATOM      2  C   UNL d   1      53.000  32.849  53.620  0.00  0.00     0.117 A 
ATOM      3  N   UNL d   1      53.754  33.327  54.592  0.00  0.00    -0.289 N 
ATOM      4  N   UNL d   1      53.784  31.841  54.287  0.00  0.00    -0.225 NA
ATOM      5  N   UNL d   1      52.698  32.249  53.137  0.00  0.00    -0.241 NA
ATOM      6  C   UNL d   1      52.874  33.648  53.659  0.00  0.00     0.037 A 
ATOM      7  C   UNL d   1      53.345  33.946  54.265  0.00  0.00     0.067 A 
ATOM      8  C   UNL d   1      53.479  31.268  53.807  0.00  0.00     0.101 A 
ATOM      9  C   UNL d   1      52.928  31.482  53.226  0.00  0.00     0.099 A 
ATOM     10  C   UNL d   1      52.394  34.159  53.226  0.00  0.00     0.003 A 
ATOM     11  C   UNL d   1      53.334  34.755  54.438  0.00  0.00     0.018 A 
ATOM     12  C   UNL d   1      52.615  30.908  52.737  0.00  0.00     0.021 A 
ATOM     13  C   UNL d   1      53.703  30.501  53.889  0.00  0.00     0.021 A 
ATOM     14  C   UNL d   1      52.380  34.966  53.394  0.00  0.00     0.000 A 
ATOM     15  C   UNL d   1      52.850  35.264  54.000  0.00  0.00     0.002 A 
ATOM     16  C   UNL d   1      52.838  30.107  52.808  0.00  0.00     0.002 A 
ATOM     17  C   UNL d   1      53.376  29.916  53.381  0.00  0.00     0.002 A 
ENDROOT
BRANCH   3  18
ATOM     18  C   UNL d   1      54.279  33.377  55.204  0.00  0.00     0.082 C 
ATOM     19  C   UNL d   1      55.074  33.603  55.034  0.00  0.00     0.021 C 
ENDBRANCH   3  18
TORSDOF 1
ENDMDL
MODEL 2
REMARK VINA RESULT:     -10.3      0.959      3.243
REMARK  1 active torsions:
REMARK  status: ('A' for Active; 'I' for Inactive)
REMARK    1  A    between atoms: C_10  and  N_3 
ROOT
ATOM      1  C   UNL d   1      53.009  32.786  53.456  0.00  0.00     0.166 A 
ATOM      2  C   UNL d   1      52.472  32.222  53.198  0.00  0.00     0.117 A 
ATOM      3  N   UNL d   1      53.697  32.374  53.664  0.00  0.00    -0.289 N 
ATOM      4  N   UNL d   1      52.815  33.594  53.473  0.00  0.00    -0.225 NA
ATOM      5  N   UNL d   1      51.728  32.491  52.954  0.00  0.00    -0.241 NA
ATOM      6  C   UNL d   1      52.811  31.488  53.242  0.00  0.00     0.037 A 
ATOM      7  C   UNL d   1      53.575  31.583  53.533  0.00  0.00     0.067 A 
ATOM      8  C   UNL d   1      52.084  33.838  53.231  0.00  0.00     0.101 A 
ATOM      9  C   UNL d   1      51.538  33.273  52.969  0.00  0.00     0.099 A 
ATOM     10  C   UNL d   1      52.535  30.734  53.059  0.00  0.00     0.003 A 
ATOM     11  C   UNL d   1      54.062  30.923  53.640  0.00  0.00     0.018 A 
ATOM     12  C   UNL d   1      50.798  33.513  52.724  0.00  0.00     0.021 A 
ATOM     13  C   UNL d   1      51.887  34.617  53.243  0.00  0.00     0.021 A 
ATOM     14  C   UNL d   1      53.016  30.072  53.164  0.00  0.00     0.000 A 
ATOM     15  C   UNL d   1      53.780  30.167  53.455  0.00  0.00     0.002 A 
ATOM     16  C   UNL d   1      50.576  34.317  52.730  0.00  0.00     0.002 A 
ATOM     17  C   UNL d   1      51.122  34.856  52.988  0.00  0.00     0.002 A 
ENDROOT
BRANCH   3  18
ATOM     18  C   UNL d   1      54.375  32.708  53.949  0.00  0.00     0.082 C 
ATOM     19  C   UNL d   1      54.428  32.866  54.776  0.00  0.00     0.021 C 
ENDBRANCH   3  18
TORSDOF 1
ENDMDL
MODEL 3
REMARK VINA RESULT:      -9.9      0.832      3.597
REMARK  1 active torsions:
REMARK  status: ('A' for Active; 'I' for Inactive)
REMARK    1  A    between atoms: C_10  and  N_3 
ROOT
ATOM      1  C   UNL d   1      53.134  32.643  53.645  0.00  0.00     0.166 A 
ATOM      2  C   UNL d   1      53.627  32.061  53.950  0.00  0.00     0.117 A 
ATOM      3  N   UNL d   1      52.605  32.256  53.138  0.00  0.00    -0.289 N 
ATOM      4  N   UNL d   1      53.221  33.441  53.859  0.00  0.00    -0.225 NA
ATOM      5  N   UNL d   1      54.215  32.303  54.481  0.00  0.00    -0.241 NA
ATOM      6  C   UNL d   1      53.415  31.342  53.646  0.00  0.00     0.037 A 
ATOM      7  C   UNL d   1      52.777  31.463  53.140  0.00  0.00     0.067 A 
ATOM      8  C   UNL d   1      53.800  33.659  54.378  0.00  0.00     0.101 A 
ATOM      9  C   UNL d   1      54.301  33.076  54.689  0.00  0.00     0.099 A 
ATOM     10  C   UNL d   1      53.710  30.581  53.755  0.00  0.00     0.003 A 
ATOM     11  C   UNL d   1      52.436  30.823  52.743  0.00  0.00     0.018 A 
ATOM     12  C   UNL d   1      54.888  33.290  55.214  0.00  0.00     0.021 A 
ATOM     13  C   UNL d   1      53.892  34.428  54.591  0.00  0.00     0.021 A 
ATOM     14  C   UNL d   1      53.373  29.938  53.362  0.00  0.00     0.000 A 
ATOM     15  C   UNL d   1      52.736  30.059  52.856  0.00  0.00     0.002 A 
ATOM     16  C   UNL d   1      54.998  34.084  55.446  0.00  0.00     0.002 A 
ATOM     17  C   UNL d   1      54.500  34.639  55.133  0.00  0.00     0.002 A 
ENDROOT
BRANCH   3  18
ATOM     18  C   UNL d   1      52.017  32.613  52.715  0.00  0.00     0.082 C 
ATOM     19  C   UNL d   1      51.280  32.761  53.097  0.00  0.00     0.021 C 
ENDBRANCH   3  18
TORSDOF 1
ENDMDL
MODEL 4
REMARK VINA RESULT:      -9.8      1.179      2.984
REMARK  1 active torsions:
REMARK  status: ('A' for Active; 'I' for Inactive)
REMARK    1  A    between atoms: C_10  and  N_3 
ROOT
ATOM      1  C   UNL d   1      52.820  33.093  53.390  0.00  0.00     0.166 A 
ATOM      2  C   UNL d   1      52.842  33.747  53.885  0.00  0.00     0.117 A 
ATOM      3  N   UNL d   1      53.505  32.656  53.553  0.00  0.00    -0.289 N 
ATOM      4  N   UNL d   1      52.194  32.972  52.858  0.00  0.00    -0.225 NA
ATOM      5  N   UNL d   1      52.213  34.283  53.833  0.00  0.00    -0.241 NA
ATOM      6  C   UNL d   1      53.512  33.719  54.338  0.00  0.00     0.037 A 
ATOM      7  C   UNL d   1      53.926  33.039  54.131  0.00  0.00     0.067 A 
ATOM      8  C   UNL d   1      51.588  33.505  52.821  0.00  0.00     0.101 A 
ATOM      9  C   UNL d   1      51.604  34.168  53.319  0.00  0.00     0.099 A 
ATOM     10  C   UNL d   1      53.815  34.220  54.919  0.00  0.00     0.003 A 
ATOM     11  C   UNL d   1      54.641  32.859  54.505  0.00  0.00     0.018 A 
ATOM     12  C   UNL d   1      50.996  34.710  53.286  0.00  0.00     0.021 A 
ATOM     13  C   UNL d   1      50.977  33.397  52.310  0.00  0.00     0.021 A 
ATOM     14  C   UNL d   1      54.528  34.045  55.295  0.00  0.00     0.000 A 
ATOM     15  C   UNL d   1      54.941  33.364  55.088  0.00  0.00     0.002 A 
ATOM     16  C   UNL d   1      50.354  34.613  52.762  0.00  0.00     0.002 A 
ATOM     17  C   UNL d   1      50.354  33.961  52.283  0.00  0.00     0.002 A 
ENDROOT
BRANCH   3  18
ATOM     18  C   UNL d   1      53.715  31.964  53.193  0.00  0.00     0.082 C 
ATOM     19  C   UNL d   1      53.482  31.237  53.553  0.00  0.00     0.021 C 
ENDBRANCH   3  18
TORSDOF 1
ENDMDL
MODEL 5
REMARK VINA RESULT:      -9.1      1.042      2.942
REMARK  1 active torsions:
REMARK  status: ('A' for Active; 'I' for Inactive)
REMARK    1  A    between atoms: C_10  and  N_3 
ROOT
ATOM      1  C   UNL d   1      52.956  33.093  53.521  0.00  0.00     0.166 A 
ATOM      2  C   UNL d   1      52.633  33.816  53.738  0.00  0.00     0.117 A 
ATOM      3  N   UNL d   1      52.426  32.755  52.980  0.00  0.00    -0.289 N 
ATOM      4  N   UNL d   1      53.679  32.829  53.834  0.00  0.00    -0.225 NA
ATOM      5  N   UNL d   1      53.058  34.273  54.281  0.00  0.00    -0.241 NA
ATOM      6  C   UNL d   1      51.932  33.925  53.349  0.00  0.00     0.037 A 
ATOM      7  C   UNL d   1      51.803  33.263  52.876  0.00  0.00     0.067 A 
ATOM      8  C   UNL d   1      54.081  33.288  54.363  0.00  0.00     0.101 A 
ATOM      9  C   UNL d   1      53.759  34.020  54.586  0.00  0.00     0.099 A 
ATOM     10  C   UNL d   1      51.380  34.537  53.352  0.00  0.00     0.003 A 
ATOM     11  C   UNL d   1      51.122  33.215  52.408  0.00  0.00     0.018 A 
ATOM     12  C   UNL d   1      54.160  34.488  55.120  0.00  0.00     0.021 A 
ATOM     13  C   UNL d   1      54.780  33.043  54.671  0.00  0.00     0.021 A 
ATOM     14  C   UNL d   1      50.700  34.494  52.888  0.00  0.00     0.000 A 
ATOM     15  C   UNL d   1      50.571  33.833  52.415  0.00  0.00     0.002 A 
ATOM     16  C   UNL d   1      54.888  34.249  55.450  0.00  0.00     0.002 A 
ATOM     17  C   UNL d   1      55.187  33.532  55.221  0.00  0.00     0.002 A 
ENDROOT
BRANCH   3  18
ATOM     18  C   UNL d   1      52.520  32.039  52.619  0.00  0.00     0.082 C 
ATOM     19  C   UNL d   1      52.270  31.346  53.031  0.00  0.00     0.021 C 
ENDBRANCH   3  18
TORSDOF 1
ENDMDL
