MODEL 1
REMARK VINA RESULT:      -3.1      0.000      0.000
REMARK  3 active torsions:
REMARK  status: ('A' for Active; 'I' for Inactive)
REMARK    1  A    between atoms: C_16  and  C_4 
REMARK    2  A    between atoms: C_10  and  O_14 
REMARK    3  A    between atoms: O_14  and  C_16 
ROOT
ATOM      1  C   UNL d   1      33.203  21.452 -21.677  0.00  0.00     0.030 A 
ATOM      2  C   UNL d   1      33.218  21.005 -22.352  0.00  0.00     0.105 A 
ATOM      3  C   UNL d   1      33.216  20.181 -22.288  0.00  0.00     0.118 A 
ATOM      4  N   UNL d   1      33.236  21.348 -23.097  0.00  0.00    -0.242 NA
ATOM      5  C   UNL d   1      33.185  21.109 -20.936  0.00  0.00     0.059 A 
ATOM      6  C   UNL d   1      33.198  19.816 -21.560  0.00  0.00     0.027 A 
ATOM      7  C   UNL d   1      33.182  20.280 -20.872  0.00  0.00     0.013 A 
ATOM      8 CL   UNL d   1      33.169  21.574 -20.250  0.00  0.00    -0.082 Cl
ATOM      9  C   UNL d   1      33.205  22.273 -21.735  0.00  0.00     0.004 A 
ATOM     10  C   UNL d   1      33.239  22.177 -23.161  0.00  0.00     0.099 A 
ATOM     11  C   UNL d   1      33.223  22.641 -22.474  0.00  0.00     0.021 A 
ENDROOT
BRANCH   3  12
ATOM     12  O   UNL d   1      33.232  19.716 -22.975  0.00  0.00    -0.302 OA
BRANCH  12  13
ATOM     13  C   UNL d   1      33.241  19.255 -23.665  0.00  0.00     0.144 C 
BRANCH  13  14
ATOM     14  C   UNL d   1      32.805  18.550 -23.698  0.00  0.00     0.142 A 
ATOM     15  N   UNL d   1      32.068  18.464 -24.000  0.00  0.00    -0.057 NA
ATOM     16  C   UNL d   1      31.852  17.691 -23.921  0.00  0.00     0.735 A 
ATOM     17  N   UNL d   1      32.486  17.290 -23.556  0.00  0.00    -0.136 N 
ATOM     18  N   UNL d   1      31.170  17.271 -24.125  0.00  0.00    -0.059 NA
ATOM     19  C   UNL d   1      33.064  17.824 -23.423  0.00  0.00     0.120 A 
ATOM     20  C   UNL d   1      32.425  16.485 -23.403  0.00  0.00     0.100 A 
ATOM     21  C   UNL d   1      31.748  16.073 -23.606  0.00  0.00     0.041 A 
ATOM     22  C   UNL d   1      31.111  16.471 -23.972  0.00  0.00     0.119 A 
ENDBRANCH  13  14
ENDBRANCH  12  13
ENDBRANCH   3  12
TORSDOF 3
ENDMDL
MODEL 2
REMARK VINA RESULT:      -2.5      1.126      1.723
REMARK  3 active torsions:
REMARK  status: ('A' for Active; 'I' for Inactive)
REMARK    1  A    between atoms: C_16  and  C_4 
REMARK    2  A    between atoms: C_10  and  O_14 
REMARK    3  A    between atoms: O_14  and  C_16 
ROOT
ATOM      1  C   UNL d   1      32.798  22.100 -21.771  0.00  0.00     0.030 A 
ATOM      2  C   UNL d   1      32.869  21.293 -21.726  0.00  0.00     0.105 A 
ATOM      3  C   UNL d   1      33.092  20.871 -22.400  0.00  0.00     0.118 A 
ATOM      4  N   UNL d   1      32.725  20.887 -21.028  0.00  0.00    -0.242 NA
ATOM      5  C   UNL d   1      32.942  22.503 -22.466  0.00  0.00     0.059 A 
ATOM      6  C   UNL d   1      33.240  21.253 -23.105  0.00  0.00     0.027 A 
ATOM      7  C   UNL d   1      33.166  22.078 -23.144  0.00  0.00     0.013 A 
ATOM      8 CL   UNL d   1      32.867  23.328 -22.504  0.00  0.00    -0.082 Cl
ATOM      9  C   UNL d   1      32.577  22.525 -21.102  0.00  0.00     0.004 A 
ATOM     10  C   UNL d   1      32.501  21.312 -20.350  0.00  0.00     0.099 A 
ATOM     11  C   UNL d   1      32.427  22.137 -20.389  0.00  0.00     0.021 A 
ENDROOT
BRANCH   3  12
ATOM     12  O   UNL d   1      33.166  20.046 -22.362  0.00  0.00    -0.302 OA
BRANCH  12  13
ATOM     13  C   UNL d   1      33.232  19.219 -22.324  0.00  0.00     0.144 C 
BRANCH  13  14
ATOM     14  C   UNL d   1      32.908  18.752 -22.928  0.00  0.00     0.142 A 
ATOM     15  N   UNL d   1      33.233  18.617 -23.648  0.00  0.00    -0.057 NA
ATOM     16  C   UNL d   1      32.738  18.134 -24.061  0.00  0.00     0.735 A 
ATOM     17  N   UNL d   1      32.083  17.967 -23.572  0.00  0.00    -0.136 N 
ATOM     18  N   UNL d   1      32.770  17.807 -24.820  0.00  0.00    -0.059 NA
ATOM     19  C   UNL d   1      32.196  18.350 -22.881  0.00  0.00     0.120 A 
ATOM     20  C   UNL d   1      31.480  17.483 -23.849  0.00  0.00     0.100 A 
ATOM     21  C   UNL d   1      31.516  17.161 -24.600  0.00  0.00     0.041 A 
ATOM     22  C   UNL d   1      32.169  17.325 -25.093  0.00  0.00     0.119 A 
ENDBRANCH  13  14
ENDBRANCH  12  13
ENDBRANCH   3  12
TORSDOF 3
ENDMDL
MODEL 3
REMARK VINA RESULT:      -2.3      2.715      5.390
REMARK  3 active torsions:
REMARK  status: ('A' for Active; 'I' for Inactive)
REMARK    1  A    between atoms: C_16  and  C_4 
REMARK    2  A    between atoms: C_10  and  O_14 
REMARK    3  A    between atoms: O_14  and  C_16 
ROOT
ATOM      1  C   UNL d   1      29.058  16.097 -23.761  0.00  0.00     0.030 A 
ATOM      2  C   UNL d   1      29.862  16.197 -23.769  0.00  0.00     0.105 A 
ATOM      3  C   UNL d   1      30.214  16.572 -24.416  0.00  0.00     0.118 A 
ATOM      4  N   UNL d   1      30.335  15.936 -23.152  0.00  0.00    -0.242 NA
ATOM      5  C   UNL d   1      28.588  16.357 -24.376  0.00  0.00     0.059 A 
ATOM      6  C   UNL d   1      29.765  16.840 -25.041  0.00  0.00     0.027 A 
ATOM      7  C   UNL d   1      28.942  16.734 -25.027  0.00  0.00     0.013 A 
ATOM      8 CL   UNL d   1      27.766  16.251 -24.360  0.00  0.00    -0.082 Cl
ATOM      9  C   UNL d   1      28.703  15.724 -23.119  0.00  0.00     0.004 A 
ATOM     10  C   UNL d   1      29.981  15.559 -22.501  0.00  0.00     0.099 A 
ATOM     11  C   UNL d   1      29.159  15.453 -22.486  0.00  0.00     0.021 A 
ENDROOT
BRANCH   3  12
ATOM     12  O   UNL d   1      31.036  16.678 -24.432  0.00  0.00    -0.302 OA
BRANCH  12  13
ATOM     13  C   UNL d   1      31.860  16.778 -24.454  0.00  0.00     0.144 C 
BRANCH  13  14
ATOM     14  C   UNL d   1      32.186  17.537 -24.382  0.00  0.00     0.142 A 
ATOM     15  N   UNL d   1      32.357  17.916 -23.696  0.00  0.00    -0.057 NA
ATOM     16  C   UNL d   1      32.664  18.638 -23.877  0.00  0.00     0.735 A 
ATOM     17  N   UNL d   1      32.681  18.703 -24.708  0.00  0.00    -0.136 N 
ATOM     18  N   UNL d   1      32.940  19.267 -23.416  0.00  0.00    -0.059 NA
ATOM     19  C   UNL d   1      32.386  18.025 -25.008  0.00  0.00     0.120 A 
ATOM     20  C   UNL d   1      32.969  19.388 -25.058  0.00  0.00     0.100 A 
ATOM     21  C   UNL d   1      33.241  20.008 -24.599  0.00  0.00     0.041 A 
ATOM     22  C   UNL d   1      33.226  19.947 -23.766  0.00  0.00     0.119 A 
ENDBRANCH  13  14
ENDBRANCH  12  13
ENDBRANCH   3  12
TORSDOF 3
ENDMDL
MODEL 4
REMARK VINA RESULT:      -1.7      1.460      2.274
REMARK  3 active torsions:
REMARK  status: ('A' for Active; 'I' for Inactive)
REMARK    1  A    between atoms: C_16  and  C_4 
REMARK    2  A    between atoms: C_10  and  O_14 
REMARK    3  A    between atoms: O_14  and  C_16 
ROOT
ATOM      1  C   UNL d   1      33.208  19.966 -22.572  0.00  0.00     0.030 A 
ATOM      2  C   UNL d   1      33.177  19.157 -22.581  0.00  0.00     0.105 A 
ATOM      3  C   UNL d   1      33.146  18.764 -23.308  0.00  0.00     0.118 A 
ATOM      4  N   UNL d   1      33.175  18.717 -21.889  0.00  0.00    -0.242 NA
ATOM      5  C   UNL d   1      33.209  20.403 -23.262  0.00  0.00     0.059 A 
ATOM      6  C   UNL d   1      33.146  19.179 -24.009  0.00  0.00     0.027 A 
ATOM      7  C   UNL d   1      33.178  20.008 -23.992  0.00  0.00     0.013 A 
ATOM      8 CL   UNL d   1      33.241  21.231 -23.244  0.00  0.00    -0.082 Cl
ATOM      9  C   UNL d   1      33.239  20.362 -21.851  0.00  0.00     0.004 A 
ATOM     10  C   UNL d   1      33.207  19.112 -21.158  0.00  0.00     0.099 A 
ATOM     11  C   UNL d   1      33.239  19.940 -21.141  0.00  0.00     0.021 A 
ENDROOT
BRANCH   3  12
ATOM     12  O   UNL d   1      33.114  17.936 -23.326  0.00  0.00    -0.302 OA
BRANCH  12  13
ATOM     13  C   UNL d   1      33.075  17.107 -23.349  0.00  0.00     0.144 C 
BRANCH  13  14
ATOM     14  C   UNL d   1      32.394  16.733 -23.640  0.00  0.00     0.142 A 
ATOM     15  N   UNL d   1      31.730  16.567 -23.222  0.00  0.00    -0.057 NA
ATOM     16  C   UNL d   1      31.206  16.204 -23.715  0.00  0.00     0.735 A 
ATOM     17  N   UNL d   1      31.566  16.147 -24.465  0.00  0.00    -0.136 N 
ATOM     18  N   UNL d   1      30.442  15.906 -23.608  0.00  0.00    -0.059 NA
ATOM     19  C   UNL d   1      32.292  16.474 -24.410  0.00  0.00     0.120 A 
ATOM     20  C   UNL d   1      31.159  15.798 -25.087  0.00  0.00     0.100 A 
ATOM     21  C   UNL d   1      30.403  15.505 -24.978  0.00  0.00     0.041 A 
ATOM     22  C   UNL d   1      30.039  15.560 -24.228  0.00  0.00     0.119 A 
ENDBRANCH  13  14
ENDBRANCH  12  13
ENDBRANCH   3  12
TORSDOF 3
ENDMDL
MODEL 5
REMARK VINA RESULT:      -1.6      1.853      4.807
REMARK  3 active torsions:
REMARK  status: ('A' for Active; 'I' for Inactive)
REMARK    1  A    between atoms: C_16  and  C_4 
REMARK    2  A    between atoms: C_10  and  O_14 
REMARK    3  A    between atoms: O_14  and  C_16 
ROOT
ATOM      1  C   UNL d   1      31.116  16.518 -23.914  0.00  0.00     0.030 A 
ATOM      2  C   UNL d   1      31.785  16.963 -23.803  0.00  0.00     0.105 A 
ATOM      3  C   UNL d   1      31.819  17.723 -24.125  0.00  0.00     0.118 A 
ATOM      4  N   UNL d   1      32.427  16.678 -23.380  0.00  0.00    -0.242 NA
ATOM      5  C   UNL d   1      30.478  16.802 -24.335  0.00  0.00     0.059 A 
ATOM      6  C   UNL d   1      31.194  18.028 -24.549  0.00  0.00     0.027 A 
ATOM      7  C   UNL d   1      30.513  17.567 -24.659  0.00  0.00     0.013 A 
ATOM      8 CL   UNL d   1      29.797  16.341 -24.444  0.00  0.00    -0.082 Cl
ATOM      9  C   UNL d   1      31.077  15.760 -23.595  0.00  0.00     0.004 A 
ATOM     10  C   UNL d   1      32.392  15.913 -23.056  0.00  0.00     0.099 A 
ATOM     11  C   UNL d   1      31.712  15.452 -23.165  0.00  0.00     0.021 A 
ENDROOT
BRANCH   3  12
ATOM     12  O   UNL d   1      32.499  18.184 -24.016  0.00  0.00    -0.302 OA
BRANCH  12  13
ATOM     13  C   UNL d   1      33.181  18.648 -23.916  0.00  0.00     0.144 C 
BRANCH  13  14
ATOM     14  C   UNL d   1      33.187  19.257 -23.353  0.00  0.00     0.142 A 
ATOM     15  N   UNL d   1      33.219  20.043 -23.507  0.00  0.00    -0.057 NA
ATOM     16  C   UNL d   1      33.214  20.438 -22.805  0.00  0.00     0.735 A 
ATOM     17  N   UNL d   1      33.177  19.868 -22.197  0.00  0.00    -0.136 N 
ATOM     18  N   UNL d   1      33.237  21.241 -22.607  0.00  0.00    -0.059 NA
ATOM     19  C   UNL d   1      33.161  19.149 -22.542  0.00  0.00     0.120 A 
ATOM     20  C   UNL d   1      33.164  20.110 -21.412  0.00  0.00     0.100 A 
ATOM     21  C   UNL d   1      33.187  20.905 -21.220  0.00  0.00     0.041 A 
ATOM     22  C   UNL d   1      33.224  21.478 -21.826  0.00  0.00     0.119 A 
ENDBRANCH  13  14
ENDBRANCH  12  13
ENDBRANCH   3  12
TORSDOF 3
ENDMDL
MODEL 6
REMARK VINA RESULT:      -1.2      3.005      4.446
REMARK  3 active torsions:
REMARK  status: ('A' for Active; 'I' for Inactive)
REMARK    1  A    between atoms: C_16  and  C_4 
REMARK    2  A    between atoms: C_10  and  O_14 
REMARK    3  A    between atoms: O_14  and  C_16 
ROOT
ATOM      1  C   UNL d   1      32.594  17.832 -23.860  0.00  0.00     0.030 A 
ATOM      2  C   UNL d   1      32.204  17.123 -23.819  0.00  0.00     0.105 A 
ATOM      3  C   UNL d   1      31.683  16.916 -24.425  0.00  0.00     0.118 A 
ATOM      4  N   UNL d   1      32.314  16.607 -23.191  0.00  0.00    -0.242 NA
ATOM      5  C   UNL d   1      32.485  18.345 -24.485  0.00  0.00     0.059 A 
ATOM      6  C   UNL d   1      31.557  17.412 -25.059  0.00  0.00     0.027 A 
ATOM      7  C   UNL d   1      31.960  18.136 -25.095  0.00  0.00     0.013 A 
ATOM      8 CL   UNL d   1      32.888  19.069 -24.520  0.00  0.00    -0.082 Cl
ATOM      9  C   UNL d   1      33.115  18.043 -23.258  0.00  0.00     0.004 A 
ATOM     10  C   UNL d   1      32.838  16.815 -22.581  0.00  0.00     0.099 A 
ATOM     11  C   UNL d   1      33.241  17.539 -22.616  0.00  0.00     0.021 A 
ENDROOT
BRANCH   3  12
ATOM     12  O   UNL d   1      31.280  16.192 -24.390  0.00  0.00    -0.302 OA
BRANCH  12  13
ATOM     13  C   UNL d   1      30.868  15.471 -24.356  0.00  0.00     0.144 C 
BRANCH  13  14
ATOM     14  C   UNL d   1      30.056  15.467 -24.190  0.00  0.00     0.142 A 
ATOM     15  N   UNL d   1      29.722  15.464 -23.461  0.00  0.00    -0.057 NA
ATOM     16  C   UNL d   1      28.921  15.460 -23.550  0.00  0.00     0.735 A 
ATOM     17  N   UNL d   1      28.761  15.461 -24.369  0.00  0.00    -0.136 N 
ATOM     18  N   UNL d   1      28.292  15.457 -23.014  0.00  0.00    -0.059 NA
ATOM     19  C   UNL d   1      29.461  15.465 -24.752  0.00  0.00     0.120 A 
ATOM     20  C   UNL d   1      27.982  15.457 -24.631  0.00  0.00     0.100 A 
ATOM     21  C   UNL d   1      27.362  15.453 -24.097  0.00  0.00     0.041 A 
ATOM     22  C   UNL d   1      27.519  15.453 -23.277  0.00  0.00     0.119 A 
ENDBRANCH  13  14
ENDBRANCH  12  13
ENDBRANCH   3  12
TORSDOF 3
ENDMDL
