MODEL 1
REMARK VINA RESULT:      37.1      0.000      0.000
REMARK  4 active torsions:
REMARK  status: ('A' for Active; 'I' for Inactive)
REMARK    1  A    between atoms: C_3  and  N_5 
REMARK    2  A    between atoms: S_13  and  C_4 
REMARK       I    between atoms: N_5  and  C_12 
REMARK    3  A    between atoms: C_12  and  C_18 
REMARK    4  A    between atoms: C_18  and  S_13 
ROOT
ATOM      1  N   UNL d   1      14.145  13.585  -2.615  0.00  0.00    -0.238 NA
ATOM      2  C   UNL d   1      14.270  12.480  -1.715  0.00  0.00     0.092 A 
ATOM      3  C   UNL d   1      14.430  13.271  -1.884  0.00  0.00     0.120 A 
ATOM      4  C   UNL d   1      14.537  12.125  -0.994  0.00  0.00     0.103 C 
ATOM      5  C   UNL d   1      13.729  13.143  -3.143  0.00  0.00     0.082 A 
ATOM      6  N   UNL d   1      14.802  11.780  -0.284  0.00  0.00    -0.191 NA
ATOM      7  C   UNL d   1      13.824  11.995  -2.274  0.00  0.00     0.014 A 
ATOM      8  C   UNL d   1      13.569  12.352  -2.973  0.00  0.00     0.018 A 
ATOM      9  C   UNL d   1      13.511  13.565  -3.811  0.00  0.00     0.019 A 
ATOM     10  C   UNL d   1      13.150  11.779  -3.428  0.00  0.00     0.002 A 
ATOM     11  C   UNL d   1      13.092  13.324  -4.463  0.00  0.00     0.002 A 
ATOM     12  C   UNL d   1      12.800  11.877  -4.154  0.00  0.00     0.000 A 
ATOM     13  C   UNL d   1      12.779  12.600  -4.627  0.00  0.00     0.000 A 
ENDROOT
BRANCH   3  14
ATOM     14  S   UNL d   1      14.858  13.715  -1.335  0.00  0.00    -0.062 SA
BRANCH  14  15
ATOM     15  C   UNL d   1      14.464  14.299  -0.906  0.00  0.00     0.099 C 
BRANCH  15  16
ATOM     16  C   UNL d   1      14.856  14.996  -0.741  0.00  0.00     0.288 C 
ATOM     17  N   UNL d   1      14.674  15.648  -1.213  0.00  0.00    -0.182 NA
ATOM     18  O   UNL d   1      15.411  15.066  -0.136  0.00  0.00    -0.265 OA
BRANCH  17  19
ATOM     19  C   UNL d   1      15.071  16.357  -1.048  0.00  0.00     0.197 A 
ATOM     20  N   UNL d   1      15.259  16.708  -0.348  0.00  0.00    -0.219 NA
ATOM     21  C   UNL d   1      15.647  17.394  -0.482  0.00  0.00     0.108 A 
ATOM     22  C   UNL d   1      15.715  17.495  -1.305  0.00  0.00     0.059 A 
ATOM     23  S   UNL d   1      15.358  16.852  -1.647  0.00  0.00    -0.046 SA
ENDBRANCH  17  19
ENDBRANCH  15  16
ENDBRANCH  14  15
ENDBRANCH   3  14
TORSDOF 4
ENDMDL
