MODEL 1
REMARK VINA RESULT:      16.6      0.000      0.000
REMARK  2 active torsions:
REMARK  status: ('A' for Active; 'I' for Inactive)
REMARK    1  A    between atoms: N_8  and  C_3 
REMARK    2  A    between atoms: C_7  and  N_9 
ROOT
ATOM      1  N   UNL d   1      46.097 -17.857  44.324  0.00  0.00    -0.286 N 
ATOM      2  N   UNL d   1      45.793 -16.223  44.476  0.00  0.00    -0.135 N 
ATOM      3  C   UNL d   1      45.511 -17.480  43.884  0.00  0.00     0.101 A 
ATOM      4  C   UNL d   1      46.540 -17.411  44.850  0.00  0.00     0.101 A 
ATOM      5  C   UNL d   1      46.412 -16.597  44.947  0.00  0.00     0.117 A 
ATOM      6  C   UNL d   1      45.360 -16.668  43.959  0.00  0.00     0.117 A 
ENDROOT
BRANCH   1   7
ATOM      7  C   UNL d   1      46.242 -18.637  44.251  0.00  0.00     0.152 A 
ATOM      8  C   UNL d   1      46.382 -18.989  43.518  0.00  0.00     0.059 A 
ATOM      9  C   UNL d   1      46.533 -19.800  43.443  0.00  0.00     0.115 A 
ATOM     10  C   UNL d   1      46.403 -18.661  42.778  0.00  0.00     0.011 A 
ATOM     11  S   UNL d   1      46.645 -19.962  42.657  0.00  0.00    -0.068 SA
ATOM     12  N   UNL d   1      46.546 -20.271  44.099  0.00  0.00    -0.217 NA
ATOM     13  C   UNL d   1      46.567 -19.277  42.258  0.00  0.00     0.031 A 
ATOM     14  C   UNL d   1      46.639 -19.186  41.425  0.00  0.00     0.007 C 
ATOM     15  C   UNL d   1      46.409 -19.956  44.874  0.00  0.00     0.201 A 
ATOM     16  N   UNL d   1      46.252 -19.113  44.952  0.00  0.00    -0.206 NA
ATOM     17  C   UNL d   1      46.283 -17.841  42.546  0.00  0.00     0.001 C 
ENDBRANCH   1   7
BRANCH   2  18
ATOM     18  C   UNL d   1      45.664 -15.371  44.582  0.00  0.00     0.735 A 
ATOM     19  N   UNL d   1      44.956 -15.143  44.836  0.00  0.00    -0.059 NA
ATOM     20  C   UNL d   1      44.795 -14.325  44.950  0.00  0.00     0.120 A 
ATOM     21  C   UNL d   1      45.382 -13.784  44.792  0.00  0.00     0.043 A 
ATOM     22  C   UNL d   1      46.115 -14.047  44.526  0.00  0.00     0.120 A 
ATOM     23  N   UNL d   1      46.268 -14.826  44.418  0.00  0.00    -0.059 NA
ENDBRANCH   2  18
TORSDOF 2
ENDMDL
