MODEL 1
REMARK VINA RESULT:      49.4      0.000      0.000
REMARK  6 active torsions:
REMARK  status: ('A' for Active; 'I' for Inactive)
REMARK    1  A    between atoms: C_11  and  C_4 
REMARK    2  A    between atoms: N_10  and  C_5 
REMARK    3  A    between atoms: C_16  and  C_9 
REMARK    4  A    between atoms: C_13  and  N_10 
REMARK    5  A    between atoms: C_14  and  C_13 
REMARK    6  A    between atoms: C_21  and  C_16 
ROOT
ATOM      1  N   UNL d   1      13.713  13.765  -3.087  0.00  0.00    -0.195 N 
ATOM      2  C   UNL d   1      13.766  14.241  -3.759  0.00  0.00     0.167 A 
ATOM      3  N   UNL d   1      14.184  14.824  -2.299  0.00  0.00    -0.163 NA
ATOM      4  C   UNL d   1      14.024  14.995  -3.695  0.00  0.00     0.055 A 
ATOM      5  C   UNL d   1      13.450  13.008  -3.174  0.00  0.00     0.167 A 
ATOM      6  C   UNL d   1      14.237  15.300  -2.971  0.00  0.00     0.104 A 
ATOM      7  N   UNL d   1      13.554  13.936  -4.482  0.00  0.00    -0.227 NA
ATOM      8  C   UNL d   1      13.240  12.700  -3.879  0.00  0.00     0.058 A 
ATOM      9  C   UNL d   1      13.293  13.176  -4.551  0.00  0.00     0.086 A 
ATOM     10  C   UNL d   1      14.497  16.057  -2.899  0.00  0.00     0.023 C 
ENDROOT
BRANCH   5  11
ATOM     11  N   UNL d   1      13.396  12.517  -2.481  0.00  0.00    -0.224 NA
BRANCH  11  12
ATOM     12  C   UNL d   1      13.691  11.799  -2.149  0.00  0.00     0.120 C 
BRANCH  12  13
ATOM     13  C   UNL d   1      14.187  11.807  -1.468  0.00  0.00     0.101 A 
ATOM     14  N   UNL d   1      15.032  11.841  -1.555  0.00  0.00    -0.242 NA
ATOM     15  C   UNL d   1      15.523  11.849  -0.867  0.00  0.00     0.099 A 
ATOM     16  C   UNL d   1      15.176  11.822  -0.095  0.00  0.00     0.021 A 
ATOM     17  C   UNL d   1      14.327  11.788  -0.016  0.00  0.00     0.003 A 
ATOM     18  C   UNL d   1      13.835  11.780  -0.704  0.00  0.00     0.021 A 
ENDBRANCH  12  13
ENDBRANCH  11  12
ENDBRANCH   5  11
BRANCH   9  19
ATOM     19  C   UNL d   1      13.073  12.864  -5.307  0.00  0.00     0.019 C 
BRANCH  19  20
ATOM     20  C   UNL d   1      13.172  12.033  -5.480  0.00  0.00     0.002 C 
ATOM     21  C   UNL d   1      13.330  11.780  -6.264  0.00  0.00     0.000 C 
ENDBRANCH  19  20
ENDBRANCH   9  19
BRANCH   4  22
ATOM     22  C   UNL d   1      14.076  15.463  -4.356  0.00  0.00     0.004 A 
ATOM     23  C   UNL d   1      14.780  15.824  -4.536  0.00  0.00     0.000 A 
ATOM     24  C   UNL d   1      14.832  16.293  -5.197  0.00  0.00     0.000 A 
ATOM     25  C   UNL d   1      14.181  16.400  -5.678  0.00  0.00     0.000 A 
ATOM     26  C   UNL d   1      13.474  16.039  -5.500  0.00  0.00     0.000 A 
ATOM     27  C   UNL d   1      13.421  15.563  -4.828  0.00  0.00     0.000 A 
ENDBRANCH   4  22
TORSDOF 6
ENDMDL
