MODEL 1
REMARK VINA RESULT:      -5.5      0.000      0.000
REMARK  6 active torsions:
REMARK  status: ('A' for Active; 'I' for Inactive)
REMARK    1  A    between atoms: C_7  and  C_1 
REMARK       I    between atoms: C_2  and  N_4 
REMARK    2  A    between atoms: C_10  and  C_2 
REMARK    3  A    between atoms: N_4  and  C_3 
REMARK    4  A    between atoms: O_20  and  C_5 
REMARK    5  A    between atoms: O_21  and  C_7 
REMARK    6  A    between atoms: C_11  and  C_12 
ROOT
ATOM      1  C   UNL d   1     -39.098  14.610  16.856  0.00  0.00     0.086 A 
ATOM      2  C   UNL d   1     -39.842  14.739  18.332  0.00  0.00     0.148 A 
ATOM      3  C   UNL d   1     -38.889  14.114  17.491  0.00  0.00     0.102 A 
ATOM      4  C   UNL d   1     -39.695  15.182  16.970  0.00  0.00     0.021 A 
ATOM      5  C   UNL d   1     -39.258  14.179  18.221  0.00  0.00     0.057 A 
ATOM      6  C   UNL d   1     -40.071  15.248  17.713  0.00  0.00     0.088 A 
ATOM      7 CL   UNL d   1     -40.657  15.812  17.818  0.00  0.00    -0.080 Cl
ENDROOT
BRANCH   2   8
ATOM      8  N   UNL d   1     -40.229  14.821  19.064  0.00  0.00    -0.364 NA
ATOM      9  C   UNL d   1     -40.583  14.907  19.809  0.00  0.00     0.328 C 
ATOM     10  O   UNL d   1     -41.396  14.850  19.859  0.00  0.00    -0.251 OA
BRANCH   9  11
ATOM     11  C   UNL d   1     -40.128  15.042  20.459  0.00  0.00     0.070 A 
ATOM     12  C   UNL d   1     -39.978  14.426  20.987  0.00  0.00     0.006 A 
ATOM     13  C   UNL d   1     -39.513  14.548  21.658  0.00  0.00    -0.004 A 
ATOM     14  C   UNL d   1     -39.190  15.302  21.805  0.00  0.00    -0.023 A 
ATOM     15  C   UNL d   1     -39.335  15.919  21.284  0.00  0.00    -0.004 A 
ATOM     16  C   UNL d   1     -39.806  15.781  20.611  0.00  0.00     0.006 A 
BRANCH  14  17
ATOM     17  C   UNL d   1     -38.722  15.414  22.486  0.00  0.00     0.019 C 
ATOM     18  C   UNL d   1     -38.988  15.882  23.097  0.00  0.00     0.004 C 
ATOM     19  C   UNL d   1     -37.984  15.037  22.520  0.00  0.00     0.004 C 
ATOM     20  C   UNL d   1     -39.403  15.856  22.631  0.00  0.00     0.004 C 
ENDBRANCH  14  17
ENDBRANCH   9  11
ENDBRANCH   2   8
BRANCH   3  21
ATOM     21  O   UNL d   1     -38.306  13.551  17.389  0.00  0.00    -0.328 OA
ATOM     22  C   UNL d   1     -38.163  12.985  17.996  0.00  0.00     0.181 C 
ENDBRANCH   3  21
BRANCH   1  23
ATOM     23  C   UNL d   1     -38.725  14.537  16.135  0.00  0.00     0.298 C 
ATOM     24  O   UNL d   1     -38.944  13.926  15.614  0.00  0.00    -0.259 OA
BRANCH  23  25
ATOM     25  O   UNL d   1     -38.135  15.066  15.922  0.00  0.00    -0.296 OA
ATOM     26  C   UNL d   1     -37.943  15.195  15.126  0.00  0.00     0.185 C 
ENDBRANCH  23  25
ENDBRANCH   1  23
TORSDOF 6
ENDMDL
MODEL 2
REMARK VINA RESULT:      -4.3      8.104      9.689
REMARK  6 active torsions:
REMARK  status: ('A' for Active; 'I' for Inactive)
REMARK    1  A    between atoms: C_7  and  C_1 
REMARK       I    between atoms: C_2  and  N_4 
REMARK    2  A    between atoms: C_10  and  C_2 
REMARK    3  A    between atoms: N_4  and  C_3 
REMARK    4  A    between atoms: O_20  and  C_5 
REMARK    5  A    between atoms: O_21  and  C_7 
REMARK    6  A    between atoms: C_11  and  C_12 
ROOT
ATOM      1  C   UNL d   1     -45.247  12.159  22.672  0.00  0.00     0.086 A 
ATOM      2  C   UNL d   1     -46.868  12.165  23.021  0.00  0.00     0.148 A 
ATOM      3  C   UNL d   1     -45.714  12.836  22.547  0.00  0.00     0.102 A 
ATOM      4  C   UNL d   1     -45.607  11.471  22.981  0.00  0.00     0.021 A 
ATOM      5  C   UNL d   1     -46.516  12.838  22.719  0.00  0.00     0.057 A 
ATOM      6  C   UNL d   1     -46.423  11.473  23.156  0.00  0.00     0.088 A 
ATOM      7 CL   UNL d   1     -46.770  10.794  23.458  0.00  0.00    -0.080 Cl
ENDROOT
BRANCH   2   8
ATOM      8  N   UNL d   1     -47.680  12.146  23.202  0.00  0.00    -0.364 NA
ATOM      9  C   UNL d   1     -48.492  12.160  23.371  0.00  0.00     0.328 C 
ATOM     10  O   UNL d   1     -48.830  11.492  23.698  0.00  0.00    -0.251 OA
BRANCH   9  11
ATOM     11  C   UNL d   1     -48.925  12.819  23.213  0.00  0.00     0.070 A 
ATOM     12  C   UNL d   1     -48.846  13.483  23.697  0.00  0.00     0.006 A 
ATOM     13  C   UNL d   1     -49.283  14.168  23.549  0.00  0.00    -0.004 A 
ATOM     14  C   UNL d   1     -49.811  14.191  22.904  0.00  0.00    -0.023 A 
ATOM     15  C   UNL d   1     -49.894  13.534  22.420  0.00  0.00    -0.004 A 
ATOM     16  C   UNL d   1     -49.446  12.850  22.581  0.00  0.00     0.006 A 
BRANCH  14  17
ATOM     17  C   UNL d   1     -50.246  14.887  22.765  0.00  0.00     0.019 C 
ATOM     18  C   UNL d   1     -49.872  15.563  22.504  0.00  0.00     0.004 C 
ATOM     19  C   UNL d   1     -51.064  14.872  22.899  0.00  0.00     0.004 C 
ATOM     20  C   UNL d   1     -49.469  15.092  22.581  0.00  0.00     0.004 C 
ENDBRANCH  14  17
ENDBRANCH   9  11
ENDBRANCH   2   8
BRANCH   3  21
ATOM     21  O   UNL d   1     -45.371  13.513  22.246  0.00  0.00    -0.328 OA
ATOM     22  C   UNL d   1     -45.678  14.267  22.462  0.00  0.00     0.181 C 
ENDBRANCH   3  21
BRANCH   1  23
ATOM     23  C   UNL d   1     -44.451  12.167  22.498  0.00  0.00     0.298 C 
ATOM     24  O   UNL d   1     -44.143  12.755  21.995  0.00  0.00    -0.259 OA
BRANCH  23  25
ATOM     25  O   UNL d   1     -43.954  11.598  22.817  0.00  0.00    -0.296 OA
ATOM     26  C   UNL d   1     -43.157  11.551  22.593  0.00  0.00     0.185 C 
ENDBRANCH  23  25
ENDBRANCH   1  23
TORSDOF 6
ENDMDL
MODEL 3
REMARK VINA RESULT:      -4.0      7.858      9.657
REMARK  6 active torsions:
REMARK  status: ('A' for Active; 'I' for Inactive)
REMARK    1  A    between atoms: C_7  and  C_1 
REMARK       I    between atoms: C_2  and  N_4 
REMARK    2  A    between atoms: C_10  and  C_2 
REMARK    3  A    between atoms: N_4  and  C_3 
REMARK    4  A    between atoms: O_20  and  C_5 
REMARK    5  A    between atoms: O_21  and  C_7 
REMARK    6  A    between atoms: C_11  and  C_12 
ROOT
ATOM      1  C   UNL d   1     -49.368  14.075  22.179  0.00  0.00     0.086 A 
ATOM      2  C   UNL d   1     -47.731  13.863  22.345  0.00  0.00     0.148 A 
ATOM      3  C   UNL d   1     -49.007  13.341  22.020  0.00  0.00     0.102 A 
ATOM      4  C   UNL d   1     -48.890  14.714  22.427  0.00  0.00     0.021 A 
ATOM      5  C   UNL d   1     -48.198  13.237  22.102  0.00  0.00     0.057 A 
ATOM      6  C   UNL d   1     -48.065  14.608  22.511  0.00  0.00     0.088 A 
ATOM      7 CL   UNL d   1     -47.602  15.239  22.754  0.00  0.00    -0.080 Cl
ENDROOT
BRANCH   2   8
ATOM      8  N   UNL d   1     -46.908  13.778  22.435  0.00  0.00    -0.364 NA
ATOM      9  C   UNL d   1     -46.093  13.660  22.533  0.00  0.00     0.328 C 
ATOM     10  O   UNL d   1     -45.593  14.291  22.398  0.00  0.00    -0.251 OA
BRANCH   9  11
ATOM     11  C   UNL d   1     -45.814  12.939  22.755  0.00  0.00     0.070 A 
ATOM     12  C   UNL d   1     -45.135  12.637  22.397  0.00  0.00     0.006 A 
ATOM     13  C   UNL d   1     -44.835  11.899  22.613  0.00  0.00    -0.004 A 
ATOM     14  C   UNL d   1     -45.222  11.451  23.200  0.00  0.00    -0.023 A 
ATOM     15  C   UNL d   1     -45.899  11.745  23.560  0.00  0.00    -0.004 A 
ATOM     16  C   UNL d   1     -46.189  12.492  23.331  0.00  0.00     0.006 A 
BRANCH  14  17
ATOM     17  C   UNL d   1     -44.911  10.707  23.410  0.00  0.00     0.019 C 
ATOM     18  C   UNL d   1     -45.400  10.121  23.695  0.00  0.00     0.004 C 
ATOM     19  C   UNL d   1     -44.096  10.584  23.320  0.00  0.00     0.004 C 
ATOM     20  C   UNL d   1     -45.719  10.643  23.565  0.00  0.00     0.004 C 
ENDBRANCH  14  17
ENDBRANCH   9  11
ENDBRANCH   2   8
BRANCH   3  21
ATOM     21  O   UNL d   1     -49.466  12.711  21.777  0.00  0.00    -0.328 OA
ATOM     22  C   UNL d   1     -49.100  12.041  21.423  0.00  0.00     0.181 C 
ENDBRANCH   3  21
BRANCH   1  23
ATOM     23  C   UNL d   1     -50.173  14.168  22.094  0.00  0.00     0.298 C 
ATOM     24  O   UNL d   1     -50.508  14.198  21.333  0.00  0.00    -0.259 OA
BRANCH  23  25
ATOM     25  O   UNL d   1     -50.651  14.233  22.757  0.00  0.00    -0.296 OA
ATOM     26  C   UNL d   1     -51.061  14.934  22.922  0.00  0.00     0.185 C 
ENDBRANCH  23  25
ENDBRANCH   1  23
TORSDOF 6
ENDMDL
MODEL 4
REMARK VINA RESULT:      -3.8      8.132     10.017
REMARK  6 active torsions:
REMARK  status: ('A' for Active; 'I' for Inactive)
REMARK    1  A    between atoms: C_7  and  C_1 
REMARK       I    between atoms: C_2  and  N_4 
REMARK    2  A    between atoms: C_10  and  C_2 
REMARK    3  A    between atoms: N_4  and  C_3 
REMARK    4  A    between atoms: O_20  and  C_5 
REMARK    5  A    between atoms: O_21  and  C_7 
REMARK    6  A    between atoms: C_11  and  C_12 
ROOT
ATOM      1  C   UNL d   1     -49.590  14.427  23.046  0.00  0.00     0.086 A 
ATOM      2  C   UNL d   1     -48.476  13.206  23.187  0.00  0.00     0.148 A 
ATOM      3  C   UNL d   1     -48.773  14.576  22.983  0.00  0.00     0.102 A 
ATOM      4  C   UNL d   1     -49.848  13.645  23.183  0.00  0.00     0.021 A 
ATOM      5  C   UNL d   1     -48.223  13.972  23.053  0.00  0.00     0.057 A 
ATOM      6  C   UNL d   1     -49.288  13.029  23.254  0.00  0.00     0.088 A 
ATOM      7 CL   UNL d   1     -49.548  12.263  23.388  0.00  0.00    -0.080 Cl
ENDROOT
BRANCH   2   8
ATOM      8  N   UNL d   1     -47.935  12.579  23.261  0.00  0.00    -0.364 NA
ATOM      9  C   UNL d   1     -47.371  11.973  23.319  0.00  0.00     0.328 C 
ATOM     10  O   UNL d   1     -47.590  11.275  23.682  0.00  0.00    -0.251 OA
BRANCH   9  11
ATOM     11  C   UNL d   1     -46.631  12.081  23.022  0.00  0.00     0.070 A 
ATOM     12  C   UNL d   1     -45.975  11.907  23.490  0.00  0.00     0.006 A 
ATOM     13  C   UNL d   1     -45.209  12.012  23.201  0.00  0.00    -0.004 A 
ATOM     14  C   UNL d   1     -45.095  12.298  22.426  0.00  0.00    -0.023 A 
ATOM     15  C   UNL d   1     -45.744  12.474  21.955  0.00  0.00    -0.004 A 
ATOM     16  C   UNL d   1     -46.511  12.362  22.261  0.00  0.00     0.006 A 
BRANCH  14  17
ATOM     17  C   UNL d   1     -44.318  12.401  22.145  0.00  0.00     0.019 C 
ATOM     18  C   UNL d   1     -44.120  13.061  21.710  0.00  0.00     0.004 C 
ATOM     19  C   UNL d   1     -43.757  11.815  22.319  0.00  0.00     0.004 C 
ATOM     20  C   UNL d   1     -44.722  13.069  21.879  0.00  0.00     0.004 C 
ENDBRANCH  14  17
ENDBRANCH   9  11
ENDBRANCH   2   8
BRANCH   3  21
ATOM     21  O   UNL d   1     -48.511  15.338  22.849  0.00  0.00    -0.328 OA
ATOM     22  C   UNL d   1     -47.754  15.463  22.504  0.00  0.00     0.181 C 
ENDBRANCH   3  21
BRANCH   1  23
ATOM     23  C   UNL d   1     -50.128  15.035  22.974  0.00  0.00     0.298 C 
ATOM     24  O   UNL d   1     -50.422  15.243  22.224  0.00  0.00    -0.259 OA
BRANCH  23  25
ATOM     25  O   UNL d   1     -50.379  15.441  23.641  0.00  0.00    -0.296 OA
ATOM     26  C   UNL d   1     -51.062  15.912  23.623  0.00  0.00     0.185 C 
ENDBRANCH  23  25
ENDBRANCH   1  23
TORSDOF 6
ENDMDL
MODEL 5
REMARK VINA RESULT:      -3.6      1.720      4.886
REMARK  6 active torsions:
REMARK  status: ('A' for Active; 'I' for Inactive)
REMARK    1  A    between atoms: C_7  and  C_1 
REMARK       I    between atoms: C_2  and  N_4 
REMARK    2  A    between atoms: C_10  and  C_2 
REMARK    3  A    between atoms: N_4  and  C_3 
REMARK    4  A    between atoms: O_20  and  C_5 
REMARK    5  A    between atoms: O_21  and  C_7 
REMARK    6  A    between atoms: C_11  and  C_12 
ROOT
ATOM      1  C   UNL d   1     -39.453  14.364  21.705  0.00  0.00     0.086 A 
ATOM      2  C   UNL d   1     -39.875  14.790  20.159  0.00  0.00     0.148 A 
ATOM      3  C   UNL d   1     -38.923  14.270  21.069  0.00  0.00     0.102 A 
ATOM      4  C   UNL d   1     -40.211  14.680  21.555  0.00  0.00     0.021 A 
ATOM      5  C   UNL d   1     -39.133  14.481  20.305  0.00  0.00     0.057 A 
ATOM      6  C   UNL d   1     -40.425  14.895  20.777  0.00  0.00     0.088 A 
ATOM      7 CL   UNL d   1     -41.171  15.204  20.637  0.00  0.00    -0.080 Cl
ENDROOT
BRANCH   2   8
ATOM      8  N   UNL d   1     -40.108  15.010  19.391  0.00  0.00    -0.364 NA
ATOM      9  C   UNL d   1     -40.313  15.212  18.613  0.00  0.00     0.328 C 
ATOM     10  O   UNL d   1     -40.964  15.691  18.497  0.00  0.00    -0.251 OA
BRANCH   9  11
ATOM     11  C   UNL d   1     -39.875  14.936  17.997  0.00  0.00     0.070 A 
ATOM     12  C   UNL d   1     -39.288  15.415  17.669  0.00  0.00     0.006 A 
ATOM     13  C   UNL d   1     -38.830  15.149  17.036  0.00  0.00    -0.004 A 
ATOM     14  C   UNL d   1     -38.959  14.386  16.724  0.00  0.00    -0.023 A 
ATOM     15  C   UNL d   1     -39.541  13.905  17.046  0.00  0.00    -0.004 A 
ATOM     16  C   UNL d   1     -39.995  14.188  17.684  0.00  0.00     0.006 A 
BRANCH  14  17
ATOM     17  C   UNL d   1     -38.490  14.128  16.086  0.00  0.00     0.019 C 
ATOM     18  C   UNL d   1     -38.177  14.665  15.559  0.00  0.00     0.004 C 
ATOM     19  C   UNL d   1     -38.353  13.314  16.004  0.00  0.00     0.004 C 
ATOM     20  C   UNL d   1     -38.513  14.948  16.004  0.00  0.00     0.004 C 
ENDBRANCH  14  17
ENDBRANCH   9  11
ENDBRANCH   2   8
BRANCH   3  21
ATOM     21  O   UNL d   1     -38.179  13.962  21.206  0.00  0.00    -0.328 OA
ATOM     22  C   UNL d   1     -37.944  13.254  20.818  0.00  0.00     0.181 C 
ENDBRANCH   3  21
BRANCH   1  23
ATOM     23  C   UNL d   1     -39.234  14.151  22.461  0.00  0.00     0.298 C 
ATOM     24  O   UNL d   1     -39.220  13.348  22.678  0.00  0.00    -0.259 OA
BRANCH  23  25
ATOM     25  O   UNL d   1     -39.029  14.728  23.006  0.00  0.00    -0.296 OA
ATOM     26  C   UNL d   1     -38.593  14.538  23.686  0.00  0.00     0.185 C 
ENDBRANCH  23  25
ENDBRANCH   1  23
TORSDOF 6
ENDMDL
MODEL 6
REMARK VINA RESULT:      -3.1      1.608      2.488
REMARK  6 active torsions:
REMARK  status: ('A' for Active; 'I' for Inactive)
REMARK    1  A    between atoms: C_7  and  C_1 
REMARK       I    between atoms: C_2  and  N_4 
REMARK    2  A    between atoms: C_10  and  C_2 
REMARK    3  A    between atoms: N_4  and  C_3 
REMARK    4  A    between atoms: O_20  and  C_5 
REMARK    5  A    between atoms: O_21  and  C_7 
REMARK    6  A    between atoms: C_11  and  C_12 
ROOT
ATOM      1  C   UNL d   1     -38.920  15.281  17.077  0.00  0.00     0.086 A 
ATOM      2  C   UNL d   1     -39.379  15.356  18.669  0.00  0.00     0.148 A 
ATOM      3  C   UNL d   1     -39.698  15.481  17.295  0.00  0.00     0.102 A 
ATOM      4  C   UNL d   1     -38.363  15.115  17.677  0.00  0.00     0.021 A 
ATOM      5  C   UNL d   1     -39.924  15.518  18.082  0.00  0.00     0.057 A 
ATOM      6  C   UNL d   1     -38.593  15.152  18.479  0.00  0.00     0.088 A 
ATOM      7 CL   UNL d   1     -38.041  14.989  19.063  0.00  0.00    -0.080 Cl
ENDROOT
BRANCH   2   8
ATOM      8  N   UNL d   1     -39.588  15.388  19.474  0.00  0.00    -0.364 NA
ATOM      9  C   UNL d   1     -39.819  15.395  20.270  0.00  0.00     0.328 C 
ATOM     10  O   UNL d   1     -39.451  15.921  20.775  0.00  0.00    -0.251 OA
BRANCH   9  11
ATOM     11  C   UNL d   1     -40.392  14.892  20.528  0.00  0.00     0.070 A 
ATOM     12  C   UNL d   1     -40.199  14.108  20.698  0.00  0.00     0.006 A 
ATOM     13  C   UNL d   1     -40.774  13.579  20.963  0.00  0.00    -0.004 A 
ATOM     14  C   UNL d   1     -41.561  13.838  21.060  0.00  0.00    -0.023 A 
ATOM     15  C   UNL d   1     -41.760  14.616  20.892  0.00  0.00    -0.004 A 
ATOM     16  C   UNL d   1     -41.168  15.138  20.625  0.00  0.00     0.006 A 
BRANCH  14  17
ATOM     17  C   UNL d   1     -42.133  13.295  21.328  0.00  0.00     0.019 C 
ATOM     18  C   UNL d   1     -42.783  13.120  20.869  0.00  0.00     0.004 C 
ATOM     19  C   UNL d   1     -42.022  12.942  22.070  0.00  0.00     0.004 C 
ATOM     20  C   UNL d   1     -42.409  13.535  20.589  0.00  0.00     0.004 C 
ENDBRANCH  14  17
ENDBRANCH   9  11
ENDBRANCH   2   8
BRANCH   3  21
ATOM     21  O   UNL d   1     -40.250  15.645  16.715  0.00  0.00    -0.328 OA
ATOM     22  C   UNL d   1     -41.068  15.661  16.912  0.00  0.00     0.181 C 
ENDBRANCH   3  21
BRANCH   1  23
ATOM     23  C   UNL d   1     -38.706  15.247  16.291  0.00  0.00     0.298 C 
ATOM     24  O   UNL d   1     -38.861  14.559  15.849  0.00  0.00    -0.259 OA
BRANCH  23  25
ATOM     25  O   UNL d   1     -38.338  15.889  15.938  0.00  0.00    -0.296 OA
ATOM     26  C   UNL d   1     -37.942  15.810  15.214  0.00  0.00     0.185 C 
ENDBRANCH  23  25
ENDBRANCH   1  23
TORSDOF 6
ENDMDL
MODEL 7
REMARK VINA RESULT:      -2.8      7.623      9.413
REMARK  6 active torsions:
REMARK  status: ('A' for Active; 'I' for Inactive)
REMARK    1  A    between atoms: C_7  and  C_1 
REMARK       I    between atoms: C_2  and  N_4 
REMARK    2  A    between atoms: C_10  and  C_2 
REMARK    3  A    between atoms: N_4  and  C_3 
REMARK    4  A    between atoms: O_20  and  C_5 
REMARK    5  A    between atoms: O_21  and  C_7 
REMARK    6  A    between atoms: C_11  and  C_12 
ROOT
ATOM      1  C   UNL d   1     -49.400  12.803  22.267  0.00  0.00     0.086 A 
ATOM      2  C   UNL d   1     -47.879  13.284  22.720  0.00  0.00     0.148 A 
ATOM      3  C   UNL d   1     -48.873  12.278  22.642  0.00  0.00     0.102 A 
ATOM      4  C   UNL d   1     -49.152  13.587  22.118  0.00  0.00     0.021 A 
ATOM      5  C   UNL d   1     -48.121  12.518  22.866  0.00  0.00     0.057 A 
ATOM      6  C   UNL d   1     -48.386  13.830  22.346  0.00  0.00     0.088 A 
ATOM      7 CL   UNL d   1     -48.149  14.601  22.198  0.00  0.00    -0.080 Cl
ENDROOT
BRANCH   2   8
ATOM      8  N   UNL d   1     -47.120  13.546  22.940  0.00  0.00    -0.364 NA
ATOM      9  C   UNL d   1     -46.351  13.785  23.136  0.00  0.00     0.328 C 
ATOM     10  O   UNL d   1     -46.259  14.371  23.698  0.00  0.00    -0.251 OA
BRANCH   9  11
ATOM     11  C   UNL d   1     -45.718  13.441  22.776  0.00  0.00     0.070 A 
ATOM     12  C   UNL d   1     -45.236  13.893  22.282  0.00  0.00     0.006 A 
ATOM     13  C   UNL d   1     -44.584  13.556  21.905  0.00  0.00    -0.004 A 
ATOM     14  C   UNL d   1     -44.408  12.750  22.024  0.00  0.00    -0.023 A 
ATOM     15  C   UNL d   1     -44.883  12.296  22.515  0.00  0.00    -0.004 A 
ATOM     16  C   UNL d   1     -45.538  12.649  22.889  0.00  0.00     0.006 A 
BRANCH  14  17
ATOM     17  C   UNL d   1     -43.747  12.421  21.639  0.00  0.00     0.019 C 
ATOM     18  C   UNL d   1     -43.300  11.845  22.004  0.00  0.00     0.004 C 
ATOM     19  C   UNL d   1     -43.558  12.695  20.879  0.00  0.00     0.004 C 
ATOM     20  C   UNL d   1     -43.774  12.033  22.366  0.00  0.00     0.004 C 
ENDBRANCH  14  17
ENDBRANCH   9  11
ENDBRANCH   2   8
BRANCH   3  21
ATOM     21  O   UNL d   1     -49.107  11.510  22.791  0.00  0.00    -0.328 OA
ATOM     22  C   UNL d   1     -48.560  10.967  23.130  0.00  0.00     0.181 C 
ENDBRANCH   3  21
BRANCH   1  23
ATOM     23  C   UNL d   1     -50.145  12.556  22.048  0.00  0.00     0.298 C 
ATOM     24  O   UNL d   1     -50.647  12.204  22.611  0.00  0.00    -0.259 OA
BRANCH  23  25
ATOM     25  O   UNL d   1     -50.399  12.653  21.274  0.00  0.00    -0.296 OA
ATOM     26  C   UNL d   1     -51.060  13.121  21.097  0.00  0.00     0.185 C 
ENDBRANCH  23  25
ENDBRANCH   1  23
TORSDOF 6
ENDMDL
