MODEL 1
REMARK VINA RESULT:       0.8      0.000      0.000
REMARK  5 active torsions:
REMARK  status: ('A' for Active; 'I' for Inactive)
REMARK    1  A    between atoms: C_11  and  C_3 
REMARK    2  A    between atoms: C_13  and  N_5 
REMARK    3  A    between atoms: C_12  and  C_7 
REMARK    4  A    between atoms: O_21  and  C_11 
REMARK    5  A    between atoms: C_20  and  C_13 
ROOT
ATOM      1  C   UNL d   1      30.740  17.368 -24.395  0.00  0.00     0.080 A 
ATOM      2  C   UNL d   1      30.406  16.646 -24.163  0.00  0.00     0.267 A 
ATOM      3  C   UNL d   1      31.835  18.275 -24.401  0.00  0.00     0.106 A 
ATOM      4  C   UNL d   1      30.299  17.893 -24.854  0.00  0.00     0.108 A 
ATOM      5  N   UNL d   1      29.627  16.457 -24.395  0.00  0.00    -0.271 N 
ATOM      6  C   UNL d   1      31.393  18.805 -24.863  0.00  0.00     0.208 A 
ATOM      7  C   UNL d   1      31.504  17.560 -24.171  0.00  0.00     0.015 A 
ATOM      8  O   UNL d   1      30.625  18.613 -25.090  0.00  0.00    -0.288 OA
ATOM      9  C   UNL d   1      29.529  17.715 -25.088  0.00  0.00     0.043 A 
ATOM     10  C   UNL d   1      29.196  16.996 -24.857  0.00  0.00     0.069 A 
ATOM     11  O   UNL d   1      30.838  16.111 -23.702  0.00  0.00    -0.267 OA
ATOM     12  N   UNL d   1      31.726  19.523 -25.095  0.00  0.00    -0.121 N 
ATOM     13  C   UNL d   1      28.411  16.802 -25.089  0.00  0.00     0.019 C 
ENDROOT
BRANCH   7  14
ATOM     14  C   UNL d   1      31.940  17.033 -23.713  0.00  0.00     0.001 A 
ATOM     15  C   UNL d   1      31.739  16.925 -22.917  0.00  0.00     0.001 A 
ATOM     16  C   UNL d   1      32.175  16.397 -22.459  0.00  0.00     0.011 A 
ATOM     17  C   UNL d   1      32.806  15.980 -22.789  0.00  0.00     0.058 A 
ATOM     18  C   UNL d   1      33.005  16.090 -23.588  0.00  0.00     0.011 A 
ATOM     19 CL   UNL d   1      33.241  15.453 -22.331  0.00  0.00    -0.082 Cl
ATOM     20  C   UNL d   1      32.569  16.617 -24.047  0.00  0.00     0.001 A 
ENDBRANCH   7  14
BRANCH   3  21
ATOM     21  C   UNL d   1      32.603  18.466 -24.175  0.00  0.00     0.299 C 
ATOM     22  O   UNL d   1      33.238  18.296 -24.674  0.00  0.00    -0.259 OA
BRANCH  21  23
ATOM     23  O   UNL d   1      32.742  18.830 -23.447  0.00  0.00    -0.296 OA
ATOM     24  C   UNL d   1      33.123  19.561 -23.413  0.00  0.00     0.185 C 
ENDBRANCH  21  23
ENDBRANCH   3  21
BRANCH   5  25
ATOM     25  C   UNL d   1      29.295  15.739 -24.163  0.00  0.00     0.108 C 
BRANCH  25  26
ATOM     26  C   UNL d   1      28.909  15.678 -23.440  0.00  0.00     0.118 A 
ATOM     27  O   UNL d   1      29.257  15.475 -22.715  0.00  0.00    -0.304 OA
ATOM     28  C   UNL d   1      28.669  15.479 -22.133  0.00  0.00     0.123 A 
ATOM     29  C   UNL d   1      27.955  15.684 -22.492  0.00  0.00     0.029 A 
ATOM     30  C   UNL d   1      28.100  15.807 -23.296  0.00  0.00     0.028 A 
ENDBRANCH  25  26
ENDBRANCH   5  25
TORSDOF 5
ENDMDL
MODEL 2
REMARK VINA RESULT:       1.5      0.854      3.752
REMARK  5 active torsions:
REMARK  status: ('A' for Active; 'I' for Inactive)
REMARK    1  A    between atoms: C_11  and  C_3 
REMARK    2  A    between atoms: C_13  and  N_5 
REMARK    3  A    between atoms: C_12  and  C_7 
REMARK    4  A    between atoms: O_21  and  C_11 
REMARK    5  A    between atoms: C_20  and  C_13 
ROOT
ATOM      1  C   UNL d   1      31.573  17.979 -24.268  0.00  0.00     0.080 A 
ATOM      2  C   UNL d   1      32.289  18.291 -23.993  0.00  0.00     0.267 A 
ATOM      3  C   UNL d   1      30.626  16.919 -24.315  0.00  0.00     0.106 A 
ATOM      4  C   UNL d   1      31.098  18.429 -24.771  0.00  0.00     0.108 A 
ATOM      5  N   UNL d   1      32.524  19.057 -24.227  0.00  0.00    -0.271 N 
ATOM      6  C   UNL d   1      30.147  17.370 -24.822  0.00  0.00     0.208 A 
ATOM      7  C   UNL d   1      31.336  17.228 -24.042  0.00  0.00     0.015 A 
ATOM      8  O   UNL d   1      30.383  18.125 -25.049  0.00  0.00    -0.288 OA
ATOM      9  C   UNL d   1      31.322  19.187 -25.007  0.00  0.00     0.043 A 
ATOM     10  C   UNL d   1      32.035  19.497 -24.733  0.00  0.00     0.069 A 
ATOM     11  O   UNL d   1      32.774  17.850 -23.488  0.00  0.00    -0.267 OA
ATOM     12  N   UNL d   1      29.434  17.060 -25.096  0.00  0.00    -0.121 N 
ATOM     13  C   UNL d   1      32.275  20.269 -24.967  0.00  0.00     0.019 C 
ENDROOT
BRANCH   7  14
ATOM     14  C   UNL d   1      31.813  16.783 -23.541  0.00  0.00     0.001 A 
ATOM     15  C   UNL d   1      31.702  16.836 -22.722  0.00  0.00     0.001 A 
ATOM     16  C   UNL d   1      32.180  16.391 -22.221  0.00  0.00     0.011 A 
ATOM     17  C   UNL d   1      32.764  15.897 -22.529  0.00  0.00     0.058 A 
ATOM     18  C   UNL d   1      32.873  15.846 -23.351  0.00  0.00     0.011 A 
ATOM     19 CL   UNL d   1      33.241  15.453 -22.028  0.00  0.00    -0.082 Cl
ATOM     20  C   UNL d   1      32.396  16.290 -23.854  0.00  0.00     0.001 A 
ENDBRANCH   7  14
BRANCH   3  21
ATOM     21  C   UNL d   1      30.390  16.164 -24.088  0.00  0.00     0.299 C 
ATOM     22  O   UNL d   1      30.729  15.499 -24.440  0.00  0.00    -0.259 OA
BRANCH  21  23
ATOM     23  O   UNL d   1      29.812  16.069 -23.507  0.00  0.00    -0.296 OA
ATOM     24  C   UNL d   1      29.096  15.700 -23.689  0.00  0.00     0.185 C 
ENDBRANCH  21  23
ENDBRANCH   3  21
BRANCH   5  25
ATOM     25  C   UNL d   1      33.237  19.367 -23.952  0.00  0.00     0.108 C 
BRANCH  25  26
ATOM     26  C   UNL d   1      33.238  19.929 -23.351  0.00  0.00     0.118 A 
ATOM     27  O   UNL d   1      33.239  19.773 -22.536  0.00  0.00    -0.304 OA
ATOM     28  C   UNL d   1      33.239  20.495 -22.134  0.00  0.00     0.123 A 
ATOM     29  C   UNL d   1      33.240  21.101 -22.694  0.00  0.00     0.029 A 
ATOM     30  C   UNL d   1      33.239  20.754 -23.444  0.00  0.00     0.028 A 
ENDBRANCH  25  26
ENDBRANCH   5  25
TORSDOF 5
ENDMDL
