MODEL 1
REMARK VINA RESULT:     101.3      0.000      0.000
REMARK  7 active torsions:
REMARK  status: ('A' for Active; 'I' for Inactive)
REMARK    1  A    between atoms: C_7  and  C_1 
REMARK    2  A    between atoms: C_9  and  N_2 
REMARK    3  A    between atoms: C_15  and  C_7 
REMARK    4  A    between atoms: C_8  and  C_9 
REMARK       I    between atoms: N_14  and  C_8 
REMARK    5  A    between atoms: C_20  and  N_14 
REMARK    6  A    between atoms: C_33  and  C_27 
REMARK    7  A    between atoms: C_34  and  C_32 
ROOT
ATOM      1  C   UNL d   1     -50.280  27.389  34.449  0.00  0.00     0.095 A 
ATOM      2  N   UNL d   1     -49.771  27.471  35.786  0.00  0.00    -0.300 N 
ATOM      3  C   UNL d   1     -49.654  27.911  34.196  0.00  0.00     0.202 A 
ATOM      4  C   UNL d   1     -50.338  27.171  35.236  0.00  0.00     0.087 A 
ATOM      5  C   UNL d   1     -49.109  28.192  34.757  0.00  0.00     0.055 A 
ATOM      6  C   UNL d   1     -49.157  27.981  35.547  0.00  0.00     0.067 A 
ATOM      7  C   UNL d   1     -48.600  28.276  36.086  0.00  0.00     0.018 A 
ATOM      8  C   UNL d   1     -48.484  28.709  34.521  0.00  0.00     0.005 A 
ATOM      9  O   UNL d   1     -49.596  28.127  33.417  0.00  0.00    -0.286 OA
ATOM     10  C   UNL d   1     -47.938  28.995  35.066  0.00  0.00     0.000 A 
ATOM     11  C   UNL d   1     -47.996  28.778  35.850  0.00  0.00     0.002 A 
ENDROOT
BRANCH   2  12
ATOM     12  C   UNL d   1     -49.829  27.254  36.569  0.00  0.00     0.144 C 
BRANCH  12  13
ATOM     13  C   UNL d   1     -50.479  26.818  36.829  0.00  0.00     0.297 C 
ATOM     14  N   UNL d   1     -50.821  26.986  37.554  0.00  0.00    -0.207 NA
ATOM     15  O   UNL d   1     -50.783  26.213  36.359  0.00  0.00    -0.264 OA
BRANCH  14  16
ATOM     16  C   UNL d   1     -51.471  26.549  37.815  0.00  0.00     0.087 A 
ATOM     17  C   UNL d   1     -51.350  25.885  38.270  0.00  0.00     0.045 A 
ATOM     18  C   UNL d   1     -51.996  25.447  38.532  0.00  0.00     0.121 A 
ATOM     19  O   UNL d   1     -52.036  24.755  38.998  0.00  0.00    -0.299 OA
ATOM     20  C   UNL d   1     -52.763  25.686  38.332  0.00  0.00     0.119 A 
ATOM     21  C   UNL d   1     -52.842  24.557  39.090  0.00  0.00     0.304 A 
ATOM     22  O   UNL d   1     -53.294  25.135  38.676  0.00  0.00    -0.300 OA
ATOM     23  C   UNL d   1     -52.883  26.350  37.876  0.00  0.00     0.028 A 
ATOM     24  C   UNL d   1     -52.233  26.786  37.616  0.00  0.00     0.021 A 
ENDBRANCH  14  16
ENDBRANCH  12  13
ENDBRANCH   2  12
BRANCH   1  25
ATOM     25  C   UNL d   1     -50.826  27.104  33.904  0.00  0.00     0.200 C 
ATOM     26  O   UNL d   1     -51.316  27.625  33.508  0.00  0.00    -0.286 OA
BRANCH  25  27
ATOM     27  C   UNL d   1     -50.883  26.296  33.755  0.00  0.00     0.039 A 
ATOM     28  C   UNL d   1     -51.604  25.892  33.860  0.00  0.00     0.003 A 
ATOM     29  C   UNL d   1     -51.667  25.074  33.710  0.00  0.00     0.000 A 
ATOM     30  C   UNL d   1     -51.008  24.660  33.456  0.00  0.00     0.000 A 
ATOM     31  C   UNL d   1     -50.287  25.080  33.355  0.00  0.00     0.000 A 
ATOM     32  C   UNL d   1     -50.220  25.894  33.502  0.00  0.00     0.003 A 
BRANCH  30  33
ATOM     33  C   UNL d   1     -51.072  23.842  33.307  0.00  0.00     0.000 C 
ATOM     34  C   UNL d   1     -51.791  23.481  33.427  0.00  0.00     0.000 C 
ENDBRANCH  30  33
ENDBRANCH  25  27
ENDBRANCH   1  25
BRANCH  10  35
ATOM     35  C   UNL d   1     -47.332  29.502  34.813  0.00  0.00     0.000 C 
ATOM     36  C   UNL d   1     -47.278  30.274  35.127  0.00  0.00     0.000 C 
ENDBRANCH  10  35
TORSDOF 7
ENDMDL
MODEL 2
REMARK VINA RESULT:     103.8      1.888      5.152
REMARK  7 active torsions:
REMARK  status: ('A' for Active; 'I' for Inactive)
REMARK    1  A    between atoms: C_7  and  C_1 
REMARK    2  A    between atoms: C_9  and  N_2 
REMARK    3  A    between atoms: C_15  and  C_7 
REMARK    4  A    between atoms: C_8  and  C_9 
REMARK       I    between atoms: N_14  and  C_8 
REMARK    5  A    between atoms: C_20  and  N_14 
REMARK    6  A    between atoms: C_33  and  C_27 
REMARK    7  A    between atoms: C_34  and  C_32 
ROOT
ATOM      1  C   UNL d   1     -48.002  29.061  35.312  0.00  0.00     0.095 A 
ATOM      2  N   UNL d   1     -48.987  28.223  34.694  0.00  0.00    -0.300 N 
ATOM      3  C   UNL d   1     -48.348  28.881  36.070  0.00  0.00     0.202 A 
ATOM      4  C   UNL d   1     -48.319  28.736  34.630  0.00  0.00     0.087 A 
ATOM      5  C   UNL d   1     -49.005  28.373  36.106  0.00  0.00     0.055 A 
ATOM      6  C   UNL d   1     -49.330  28.042  35.431  0.00  0.00     0.067 A 
ATOM      7  C   UNL d   1     -49.987  27.538  35.496  0.00  0.00     0.018 A 
ATOM      8  C   UNL d   1     -49.357  28.185  36.851  0.00  0.00     0.005 A 
ATOM      9  O   UNL d   1     -48.034  29.202  36.744  0.00  0.00    -0.286 OA
ATOM     10  C   UNL d   1     -50.008  27.685  36.901  0.00  0.00     0.000 A 
ATOM     11  C   UNL d   1     -50.323  27.361  36.223  0.00  0.00     0.002 A 
ENDROOT
BRANCH   2  12
ATOM     12  C   UNL d   1     -49.302  27.900  34.016  0.00  0.00     0.144 C 
BRANCH  12  13
ATOM     13  C   UNL d   1     -49.579  27.123  34.020  0.00  0.00     0.297 C 
ATOM     14  N   UNL d   1     -49.825  26.772  33.322  0.00  0.00    -0.207 NA
ATOM     15  O   UNL d   1     -49.607  26.699  34.727  0.00  0.00    -0.264 OA
BRANCH  14  16
ATOM     16  C   UNL d   1     -50.102  25.995  33.325  0.00  0.00     0.087 A 
ATOM     17  C   UNL d   1     -50.904  25.856  33.314  0.00  0.00     0.045 A 
ATOM     18  C   UNL d   1     -51.184  25.082  33.317  0.00  0.00     0.121 A 
ATOM     19  O   UNL d   1     -51.964  24.781  33.307  0.00  0.00    -0.299 OA
ATOM     20  C   UNL d   1     -50.649  24.451  33.332  0.00  0.00     0.119 A 
ATOM     21  C   UNL d   1     -51.913  23.948  33.317  0.00  0.00     0.304 A 
ATOM     22  O   UNL d   1     -51.097  23.742  33.332  0.00  0.00    -0.300 OA
ATOM     23  C   UNL d   1     -49.846  24.591  33.343  0.00  0.00     0.028 A 
ATOM     24  C   UNL d   1     -49.569  25.368  33.340  0.00  0.00     0.021 A 
ENDBRANCH  14  16
ENDBRANCH  12  13
ENDBRANCH   2  12
BRANCH   1  25
ATOM     25  C   UNL d   1     -47.351  29.562  35.261  0.00  0.00     0.200 C 
ATOM     26  O   UNL d   1     -46.604  29.277  35.434  0.00  0.00    -0.286 OA
BRANCH  25  27
ATOM     27  C   UNL d   1     -47.447  30.349  35.039  0.00  0.00     0.039 A 
ATOM     28  C   UNL d   1     -47.001  30.953  35.402  0.00  0.00     0.003 A 
ATOM     29  C   UNL d   1     -47.094  31.751  35.181  0.00  0.00     0.000 A 
ATOM     30  C   UNL d   1     -47.634  31.946  34.596  0.00  0.00     0.000 A 
ATOM     31  C   UNL d   1     -48.077  31.328  34.238  0.00  0.00     0.000 A 
ATOM     32  C   UNL d   1     -47.987  30.531  34.456  0.00  0.00     0.003 A 
BRANCH  30  33
ATOM     33  C   UNL d   1     -47.726  32.745  34.375  0.00  0.00     0.000 C 
ATOM     34  C   UNL d   1     -47.886  32.915  33.595  0.00  0.00     0.000 C 
ENDBRANCH  30  33
ENDBRANCH  25  27
ENDBRANCH   1  25
BRANCH  10  35
ATOM     35  C   UNL d   1     -50.338  27.514  37.642  0.00  0.00     0.000 C 
ATOM     36  C   UNL d   1     -50.553  26.729  37.830  0.00  0.00     0.000 C 
ENDBRANCH  10  35
TORSDOF 7
ENDMDL
