MODEL 1
REMARK VINA RESULT:      23.2      0.000      0.000
REMARK  10 active torsions:
REMARK  status: ('A' for Active; 'I' for Inactive)
REMARK    1  A    between atoms: C_2  and  S_1 
REMARK    2  A    between atoms: N_3  and  S_1 
REMARK    3  A    between atoms: C_19  and  N_3 
REMARK    4  A    between atoms: C_4  and  C_8 
REMARK       I    between atoms: N_14  and  C_4 
REMARK    5  A    between atoms: O_27  and  C_7 
REMARK    6  A    between atoms: O_28  and  C_11 
REMARK    7  A    between atoms: C_29  and  N_14 
REMARK    8  A    between atoms: C_22  and  C_19 
REMARK    9  A    between atoms: C_21  and  C_30 
REMARK   10  A    between atoms: C_30  and  C_29 
ROOT
ATOM      1  C   UNL d   1      45.678 -14.699  44.644  0.00  0.00     0.058 A 
ATOM      2  C   UNL d   1      45.079 -15.165  44.333  0.00  0.00     0.005 A 
ATOM      3  C   UNL d   1      46.386 -15.058  44.894  0.00  0.00     0.005 A 
ATOM      4  C   UNL d   1      45.884 -16.337  44.517  0.00  0.00     0.020 A 
ATOM      5  C   UNL d   1      45.182 -15.989  44.269  0.00  0.00     0.002 A 
ATOM      6  C   UNL d   1      46.484 -15.877  44.828  0.00  0.00     0.002 A 
ENDROOT
BRANCH   1   7
ATOM      7  C   UNL d   1      45.583 -13.888  44.710  0.00  0.00     0.279 C 
ATOM      8  O   UNL d   1      44.823 -13.559  44.675  0.00  0.00    -0.265 OA
ATOM      9  N   UNL d   1      46.238 -13.402  44.810  0.00  0.00    -0.206 NA
BRANCH   9  10
ATOM     10  C   UNL d   1      46.137 -12.586  44.876  0.00  0.00     0.102 C 
BRANCH  10  11
ATOM     11  C   UNL d   1      46.227 -12.119  44.213  0.00  0.00     0.021 C 
BRANCH  11  12
ATOM     12  C   UNL d   1      45.653 -12.123  43.637  0.00  0.00     0.004 A 
ATOM     13  C   UNL d   1      45.858 -12.127  42.837  0.00  0.00     0.026 A 
ATOM     14  C   UNL d   1      45.276 -12.131  42.265  0.00  0.00     0.116 A 
ATOM     15  C   UNL d   1      44.472 -12.133  42.488  0.00  0.00     0.116 A 
ATOM     16  C   UNL d   1      44.267 -12.129  43.275  0.00  0.00     0.026 A 
ATOM     17  C   UNL d   1      44.858 -12.125  43.855  0.00  0.00     0.002 A 
BRANCH  14  18
ATOM     18  O   UNL d   1      45.484 -12.135  41.466  0.00  0.00    -0.326 OA
ATOM     19  C   UNL d   1      46.035 -12.677  41.060  0.00  0.00     0.181 C 
ENDBRANCH  14  18
BRANCH  15  20
ATOM     20  O   UNL d   1      43.882 -12.137  41.933  0.00  0.00    -0.326 OA
ATOM     21  C   UNL d   1      43.106 -12.083  42.160  0.00  0.00     0.181 C 
ENDBRANCH  15  20
ENDBRANCH  11  12
ENDBRANCH  10  11
ENDBRANCH   9  10
ENDBRANCH   1   7
BRANCH   4  22
ATOM     22  C   UNL d   1      45.982 -17.157  44.452  0.00  0.00     0.112 C 
BRANCH  22  23
ATOM     23  N   UNL d   1      46.639 -17.454  44.074  0.00  0.00    -0.157 NA
BRANCH  23  24
ATOM     24  S   UNL d   1      46.590 -18.174  43.657  0.00  0.00     0.285 S 
ATOM     25  O   UNL d   1      46.577 -17.758  42.946  0.00  0.00    -0.198 OA
ATOM     26  O   UNL d   1      46.603 -18.586  44.373  0.00  0.00    -0.198 OA
BRANCH  24  27
ATOM     27  C   UNL d   1      46.542 -18.887  43.256  0.00  0.00     0.105 A 
ATOM     28  C   UNL d   1      46.439 -19.586  43.663  0.00  0.00     0.012 A 
ATOM     29  C   UNL d   1      46.390 -20.304  43.254  0.00  0.00     0.001 A 
ATOM     30  C   UNL d   1      46.382 -19.568  44.492  0.00  0.00     0.001 C 
ATOM     31  C   UNL d   1      46.447 -20.317  42.428  0.00  0.00     0.000 A 
ATOM     32  C   UNL d   1      46.552 -19.607  42.013  0.00  0.00     0.001 A 
ATOM     33  C   UNL d   1      46.600 -18.887  42.426  0.00  0.00     0.013 A 
ATOM     34  C   UNL d   1      46.609 -19.614  41.193  0.00  0.00     0.000 C 
ENDBRANCH  24  27
ENDBRANCH  23  24
ENDBRANCH  22  23
ENDBRANCH   4  22
TORSDOF 10
ENDMDL
