MODEL 1
REMARK VINA RESULT:     -10.1      0.000      0.000
REMARK  1 active torsions:
REMARK  status: ('A' for Active; 'I' for Inactive)
REMARK       I    between atoms: C_4  and  N_1 
REMARK    1  A    between atoms: C_7  and  C_4 
ROOT
ATOM      1  N   UNL d   1      52.819  33.818  53.892  0.00  0.00    -0.175 N 
ATOM      2  N   UNL d   1      52.654  34.605  54.098  0.00  0.00    -0.057 NA
ATOM      3  N   UNL d   1      53.232  34.859  54.616  0.00  0.00    -0.129 NA
ATOM      4  C   UNL d   1      52.371  33.345  53.375  0.00  0.00     0.282 C 
ATOM      5  C   UNL d   1      53.505  33.587  54.287  0.00  0.00     0.107 A 
ATOM      6  C   UNL d   1      53.763  34.230  54.736  0.00  0.00     0.122 A 
ATOM      7  O   UNL d   1      52.607  32.573  53.226  0.00  0.00    -0.265 OA
ATOM      8  C   UNL d   1      53.929  32.883  54.299  0.00  0.00     0.021 A 
ATOM      9  C   UNL d   1      54.452  34.164  55.202  0.00  0.00     0.022 A 
ATOM     10  C   UNL d   1      54.611  32.818  54.759  0.00  0.00     0.002 A 
ATOM     11  C   UNL d   1      54.875  33.457  55.212  0.00  0.00     0.002 A 
ENDROOT
BRANCH   4  12
ATOM     12  C   UNL d   1      51.696  33.656  53.021  0.00  0.00     0.058 A 
ATOM     13  C   UNL d   1      50.964  33.592  53.397  0.00  0.00     0.005 A 
ATOM     14  C   UNL d   1      50.289  33.902  53.042  0.00  0.00     0.000 A 
ATOM     15  C   UNL d   1      50.335  34.279  52.313  0.00  0.00     0.000 A 
ATOM     16  C   UNL d   1      51.066  34.345  51.935  0.00  0.00     0.000 A 
ATOM     17  C   UNL d   1      49.645  34.592  51.960  0.00  0.00     0.000 C 
ATOM     18  C   UNL d   1      51.744  34.034  52.287  0.00  0.00     0.005 A 
ENDBRANCH   4  12
TORSDOF 1
ENDMDL
MODEL 2
REMARK VINA RESULT:      -9.7      1.955      3.189
REMARK  1 active torsions:
REMARK  status: ('A' for Active; 'I' for Inactive)
REMARK       I    between atoms: C_4  and  N_1 
REMARK    1  A    between atoms: C_7  and  C_4 
ROOT
ATOM      1  N   UNL d   1      53.048  32.883  53.753  0.00  0.00    -0.175 N 
ATOM      2  N   UNL d   1      53.331  32.681  54.507  0.00  0.00    -0.057 NA
ATOM      3  N   UNL d   1      53.429  33.369  54.935  0.00  0.00    -0.129 NA
ATOM      4  C   UNL d   1      52.872  32.351  53.139  0.00  0.00     0.282 C 
ATOM      5  C   UNL d   1      52.970  33.703  53.719  0.00  0.00     0.107 A 
ATOM      6  C   UNL d   1      53.205  34.007  54.450  0.00  0.00     0.122 A 
ATOM      7  O   UNL d   1      52.594  32.637  52.422  0.00  0.00    -0.265 OA
ATOM      8  C   UNL d   1      52.718  34.214  53.126  0.00  0.00     0.021 A 
ATOM      9  C   UNL d   1      53.187  34.830  54.586  0.00  0.00     0.022 A 
ATOM     10  C   UNL d   1      52.700  35.028  53.260  0.00  0.00     0.002 A 
ATOM     11  C   UNL d   1      52.934  35.340  53.989  0.00  0.00     0.002 A 
ENDROOT
BRANCH   4  12
ATOM     12  C   UNL d   1      52.979  31.543  53.257  0.00  0.00     0.058 A 
ATOM     13  C   UNL d   1      52.325  31.045  53.329  0.00  0.00     0.005 A 
ATOM     14  C   UNL d   1      52.432  30.237  53.447  0.00  0.00     0.000 A 
ATOM     15  C   UNL d   1      53.189  29.918  53.496  0.00  0.00     0.000 A 
ATOM     16  C   UNL d   1      53.844  30.414  53.425  0.00  0.00     0.000 A 
ATOM     17  C   UNL d   1      53.288  29.097  53.617  0.00  0.00     0.000 C 
ATOM     18  C   UNL d   1      53.740  31.223  53.306  0.00  0.00     0.005 A 
ENDBRANCH   4  12
TORSDOF 1
ENDMDL
MODEL 3
REMARK VINA RESULT:      -9.2      2.129      3.297
REMARK  1 active torsions:
REMARK  status: ('A' for Active; 'I' for Inactive)
REMARK       I    between atoms: C_4  and  N_1 
REMARK    1  A    between atoms: C_7  and  C_4 
ROOT
ATOM      1  N   UNL d   1      53.190  31.966  53.627  0.00  0.00    -0.175 N 
ATOM      2  N   UNL d   1      52.849  32.263  52.931  0.00  0.00    -0.057 NA
ATOM      3  N   UNL d   1      52.661  31.631  52.450  0.00  0.00    -0.129 NA
ATOM      4  C   UNL d   1      53.463  32.419  54.269  0.00  0.00     0.282 C 
ATOM      5  C   UNL d   1      53.212  31.144  53.572  0.00  0.00     0.107 A 
ATOM      6  C   UNL d   1      52.885  30.934  52.843  0.00  0.00     0.122 A 
ATOM      7  O   UNL d   1      53.788  32.042  54.921  0.00  0.00    -0.265 OA
ATOM      8  C   UNL d   1      53.483  30.559  54.082  0.00  0.00     0.021 A 
ATOM      9  C   UNL d   1      52.830  30.130  52.626  0.00  0.00     0.022 A 
ATOM     10  C   UNL d   1      53.429  29.764  53.867  0.00  0.00     0.002 A 
ATOM     11  C   UNL d   1      53.103  29.546  53.140  0.00  0.00     0.002 A 
ENDROOT
BRANCH   4  12
ATOM     12  C   UNL d   1      53.403  33.240  54.242  0.00  0.00     0.058 A 
ATOM     13  C   UNL d   1      54.076  33.700  54.121  0.00  0.00     0.005 A 
ATOM     14  C   UNL d   1      54.016  34.521  54.094  0.00  0.00     0.000 A 
ATOM     15  C   UNL d   1      53.287  34.891  54.188  0.00  0.00     0.000 A 
ATOM     16  C   UNL d   1      52.612  34.432  54.310  0.00  0.00     0.000 A 
ATOM     17  C   UNL d   1      53.236  35.725  54.160  0.00  0.00     0.000 C 
ATOM     18  C   UNL d   1      52.669  33.610  54.337  0.00  0.00     0.005 A 
ENDBRANCH   4  12
TORSDOF 1
ENDMDL
MODEL 4
REMARK VINA RESULT:      -8.4      0.695      3.692
REMARK  1 active torsions:
REMARK  status: ('A' for Active; 'I' for Inactive)
REMARK       I    between atoms: C_4  and  N_1 
REMARK    1  A    between atoms: C_7  and  C_4 
ROOT
ATOM      1  N   UNL d   1      52.381  33.809  53.605  0.00  0.00    -0.175 N 
ATOM      2  N   UNL d   1      52.597  34.610  53.640  0.00  0.00    -0.057 NA
ATOM      3  N   UNL d   1      51.990  35.052  53.319  0.00  0.00    -0.129 NA
ATOM      4  C   UNL d   1      52.838  33.168  53.872  0.00  0.00     0.282 C 
ATOM      5  C   UNL d   1      51.634  33.760  53.259  0.00  0.00     0.107 A 
ATOM      6  C   UNL d   1      51.390  34.528  53.081  0.00  0.00     0.122 A 
ATOM      7  O   UNL d   1      52.547  32.405  53.798  0.00  0.00    -0.265 OA
ATOM      8  C   UNL d   1      51.145  33.123  53.082  0.00  0.00     0.021 A 
ATOM      9  C   UNL d   1      50.647  34.658  52.723  0.00  0.00     0.022 A 
ATOM     10  C   UNL d   1      50.411  33.251  52.727  0.00  0.00     0.002 A 
ATOM     11  C   UNL d   1      50.159  34.017  52.546  0.00  0.00     0.002 A 
ENDROOT
BRANCH   4  12
ATOM     12  C   UNL d   1      53.578  33.308  54.207  0.00  0.00     0.058 A 
ATOM     13  C   UNL d   1      53.639  33.515  55.003  0.00  0.00     0.005 A 
ATOM     14  C   UNL d   1      54.378  33.655  55.338  0.00  0.00     0.000 A 
ATOM     15  C   UNL d   1      55.062  33.588  54.885  0.00  0.00     0.000 A 
ATOM     16  C   UNL d   1      55.003  33.381  54.089  0.00  0.00     0.000 A 
ATOM     17  C   UNL d   1      55.808  33.732  55.233  0.00  0.00     0.000 C 
ATOM     18  C   UNL d   1      54.265  33.241  53.750  0.00  0.00     0.005 A 
ENDBRANCH   4  12
TORSDOF 1
ENDMDL
MODEL 5
REMARK VINA RESULT:      -8.4      2.582      3.132
REMARK  1 active torsions:
REMARK  status: ('A' for Active; 'I' for Inactive)
REMARK       I    between atoms: C_4  and  N_1 
REMARK    1  A    between atoms: C_7  and  C_4 
ROOT
ATOM      1  N   UNL d   1      54.134  32.301  54.306  0.00  0.00    -0.175 N 
ATOM      2  N   UNL d   1      53.706  32.065  54.977  0.00  0.00    -0.057 NA
ATOM      3  N   UNL d   1      53.895  32.570  55.589  0.00  0.00    -0.129 NA
ATOM      4  C   UNL d   1      54.108  31.938  53.558  0.00  0.00     0.282 C 
ATOM      5  C   UNL d   1      54.590  32.957  54.509  0.00  0.00     0.107 A 
ATOM      6  C   UNL d   1      54.443  33.126  55.304  0.00  0.00     0.122 A 
ATOM      7  O   UNL d   1      54.566  32.237  52.946  0.00  0.00    -0.265 OA
ATOM      8  C   UNL d   1      55.116  33.422  54.082  0.00  0.00     0.021 A 
ATOM      9  C   UNL d   1      54.829  33.768  55.672  0.00  0.00     0.022 A 
ATOM     10  C   UNL d   1      55.497  34.057  54.446  0.00  0.00     0.002 A 
ATOM     11  C   UNL d   1      55.357  34.233  55.241  0.00  0.00     0.002 A 
ENDROOT
BRANCH   4  12
ATOM     12  C   UNL d   1      53.623  31.283  53.440  0.00  0.00     0.058 A 
ATOM     13  C   UNL d   1      53.885  30.530  53.651  0.00  0.00     0.005 A 
ATOM     14  C   UNL d   1      53.400  29.875  53.533  0.00  0.00     0.000 A 
ATOM     15  C   UNL d   1      52.651  29.963  53.205  0.00  0.00     0.000 A 
ATOM     16  C   UNL d   1      52.386  30.715  52.992  0.00  0.00     0.000 A 
ATOM     17  C   UNL d   1      52.165  29.293  53.088  0.00  0.00     0.000 C 
ATOM     18  C   UNL d   1      52.870  31.373  53.109  0.00  0.00     0.005 A 
ENDBRANCH   4  12
TORSDOF 1
ENDMDL
