MODEL 1
REMARK VINA RESULT:      -1.8      0.000      0.000
REMARK  4 active torsions:
REMARK  status: ('A' for Active; 'I' for Inactive)
REMARK    1  A    between atoms: C_2  and  C_1 
REMARK       I    between atoms: N_7  and  C_2 
REMARK    2  A    between atoms: C_12  and  N_7 
REMARK    3  A    between atoms: C_13  and  N_7 
REMARK    4  A    between atoms: O_14  and  C_11 
ROOT
ATOM      1  C   UNL d   1      32.708  17.613 -23.655  0.00  0.00     0.120 A 
ATOM      2  C   UNL d   1      32.603  17.771 -22.851  0.00  0.00     0.305 A 
ATOM      3  O   UNL d   1      32.685  18.550 -22.576  0.00  0.00    -0.271 OA
ATOM      4  C   UNL d   1      32.894  18.225 -24.180  0.00  0.00     0.012 A 
ATOM      5  C   UNL d   1      32.870  19.162 -23.097  0.00  0.00     0.125 A 
ATOM      6  C   UNL d   1      32.975  18.996 -23.906  0.00  0.00     0.025 A 
ATOM      7  O   UNL d   1      32.418  17.158 -22.330  0.00  0.00    -0.259 OA
ATOM      8  C   UNL d   1      32.951  19.929 -22.825  0.00  0.00     0.117 A 
ATOM      9  C   UNL d   1      33.159  19.604 -24.428  0.00  0.00     0.002 A 
ATOM     10  C   UNL d   1      33.241  20.375 -24.154  0.00  0.00     0.002 A 
ATOM     11  C   UNL d   1      33.136  20.541 -23.345  0.00  0.00     0.026 A 
ENDROOT
BRANCH   1  12
ATOM     12  C   UNL d   1      32.627  16.838 -23.933  0.00  0.00     0.270 C 
ATOM     13  N   UNL d   1      31.924  16.611 -24.310  0.00  0.00    -0.273 N 
ATOM     14  O   UNL d   1      33.240  16.296 -23.837  0.00  0.00    -0.266 OA
BRANCH  13  15
ATOM     15  C   UNL d   1      31.310  17.157 -24.405  0.00  0.00     0.067 A 
ATOM     16  C   UNL d   1      31.354  17.719 -25.002  0.00  0.00     0.018 A 
ATOM     17  C   UNL d   1      30.740  18.263 -25.095  0.00  0.00     0.002 A 
ATOM     18  C   UNL d   1      30.084  18.245 -24.591  0.00  0.00     0.000 A 
ATOM     19  C   UNL d   1      30.045  17.674 -23.988  0.00  0.00     0.002 A 
ATOM     20  C   UNL d   1      30.655  17.130 -23.893  0.00  0.00     0.018 A 
ENDBRANCH  13  15
BRANCH  13  21
ATOM     21  C   UNL d   1      31.835  15.836 -24.591  0.00  0.00     0.083 C 
ATOM     22  C   UNL d   1      32.447  15.480 -25.013  0.00  0.00     0.021 C 
ENDBRANCH  13  21
ENDBRANCH   1  12
BRANCH   8  23
ATOM     23  O   UNL d   1      32.846  20.095 -22.015  0.00  0.00    -0.326 OA
ATOM     24  C   UNL d   1      32.662  20.863 -21.775  0.00  0.00     0.181 C 
ENDBRANCH   8  23
TORSDOF 4
ENDMDL
MODEL 2
REMARK VINA RESULT:      -1.2      1.220      2.045
REMARK  4 active torsions:
REMARK  status: ('A' for Active; 'I' for Inactive)
REMARK    1  A    between atoms: C_2  and  C_1 
REMARK       I    between atoms: N_7  and  C_2 
REMARK    2  A    between atoms: C_12  and  N_7 
REMARK    3  A    between atoms: C_13  and  N_7 
REMARK    4  A    between atoms: O_14  and  C_11 
ROOT
ATOM      1  C   UNL d   1      31.200  17.507 -24.381  0.00  0.00     0.120 A 
ATOM      2  C   UNL d   1      31.245  17.621 -23.564  0.00  0.00     0.305 A 
ATOM      3  O   UNL d   1      31.771  18.186 -23.260  0.00  0.00    -0.271 OA
ATOM      4  C   UNL d   1      31.676  17.953 -24.890  0.00  0.00     0.012 A 
ATOM      5  C   UNL d   1      32.247  18.631 -23.765  0.00  0.00     0.125 A 
ATOM      6  C   UNL d   1      32.198  18.513 -24.588  0.00  0.00     0.025 A 
ATOM      7  O   UNL d   1      30.768  17.174 -23.058  0.00  0.00    -0.259 OA
ATOM      8  C   UNL d   1      32.765  19.188 -23.464  0.00  0.00     0.117 A 
ATOM      9  C   UNL d   1      32.670  18.955 -25.095  0.00  0.00     0.002 A 
ATOM     10  C   UNL d   1      33.192  19.515 -24.792  0.00  0.00     0.002 A 
ATOM     11  C   UNL d   1      33.241  19.633 -23.969  0.00  0.00     0.026 A 
ENDROOT
BRANCH   1  12
ATOM     12  C   UNL d   1      30.677  16.945 -24.688  0.00  0.00     0.270 C 
ATOM     13  N   UNL d   1      30.921  16.156 -24.762  0.00  0.00    -0.273 N 
ATOM     14  O   UNL d   1      29.917  17.168 -24.919  0.00  0.00    -0.266 OA
BRANCH  13  15
ATOM     15  C   UNL d   1      31.684  15.936 -24.529  0.00  0.00     0.067 A 
ATOM     16  C   UNL d   1      32.263  15.810 -25.097  0.00  0.00     0.018 A 
ATOM     17  C   UNL d   1      33.022  15.591 -24.862  0.00  0.00     0.002 A 
ATOM     18  C   UNL d   1      33.203  15.497 -24.060  0.00  0.00     0.000 A 
ATOM     19  C   UNL d   1      32.612  15.625 -23.488  0.00  0.00     0.002 A 
ATOM     20  C   UNL d   1      31.854  15.844 -23.720  0.00  0.00     0.018 A 
ENDBRANCH  13  15
BRANCH  13  21
ATOM     21  C   UNL d   1      30.402  15.588 -25.069  0.00  0.00     0.083 C 
ATOM     22  C   UNL d   1      29.588  15.704 -25.017  0.00  0.00     0.021 C 
ENDBRANCH  13  21
ENDBRANCH   1  12
BRANCH   8  23
ATOM     23  O   UNL d   1      32.815  19.306 -22.642  0.00  0.00    -0.326 OA
ATOM     24  C   UNL d   1      32.777  20.072 -22.335  0.00  0.00     0.181 C 
ENDBRANCH   8  23
TORSDOF 4
ENDMDL
