MODEL 1
REMARK VINA RESULT:      -5.3      0.000      0.000
REMARK  1 active torsions:
REMARK  status: ('A' for Active; 'I' for Inactive)
REMARK    1  A    between atoms: C_9  and  C_3 
ROOT
ATOM      1  N   UNL d   1      56.276  -1.044  32.582  0.00  0.00    -0.145 NA
ATOM      2  N   UNL d   1      56.667  -1.347  31.924  0.00  0.00    -0.106 NA
ATOM      3  C   UNL d   1      56.277  -0.229  32.725  0.00  0.00     0.103 A 
ATOM      4  C   UNL d   1      57.059  -0.838  31.406  0.00  0.00     0.297 A 
ATOM      5  C   UNL d   1      56.667   0.285  32.212  0.00  0.00     0.026 A 
ATOM      6  C   UNL d   1      57.060  -0.024  31.549  0.00  0.00     0.066 A 
ATOM      7  O   UNL d   1      57.450  -1.142  30.748  0.00  0.00    -0.264 OA
ENDROOT
BRANCH   3   8
ATOM      8  C   UNL d   1      55.886   0.074  33.384  0.00  0.00     0.022 A 
ATOM      9  C   UNL d   1      55.056   0.080  33.408  0.00  0.00     0.022 A 
ATOM     10  C   UNL d   1      54.665   0.383  34.067  0.00  0.00     0.099 A 
ATOM     11  N   UNL d   1      55.097   0.680  34.704  0.00  0.00    -0.242 NA
ATOM     12  C   UNL d   1      55.930   0.672  34.677  0.00  0.00     0.099 A 
ATOM     13  C   UNL d   1      56.322   0.370  34.018  0.00  0.00     0.022 A 
ENDBRANCH   3   8
TORSDOF 1
ENDMDL
MODEL 2
REMARK VINA RESULT:      -5.1      1.745      3.157
REMARK  1 active torsions:
REMARK  status: ('A' for Active; 'I' for Inactive)
REMARK    1  A    between atoms: C_9  and  C_3 
ROOT
ATOM      1  N   UNL d   1      56.660   0.450  33.775  0.00  0.00    -0.145 NA
ATOM      2  N   UNL d   1      56.289   0.608  34.493  0.00  0.00    -0.106 NA
ATOM      3  C   UNL d   1      56.212   0.206  33.124  0.00  0.00     0.103 A 
ATOM      4  C   UNL d   1      55.472   0.523  34.564  0.00  0.00     0.297 A 
ATOM      5  C   UNL d   1      55.394   0.119  33.187  0.00  0.00     0.026 A 
ATOM      6  C   UNL d   1      55.025   0.279  33.913  0.00  0.00     0.066 A 
ATOM      7  O   UNL d   1      55.102   0.682  35.282  0.00  0.00    -0.264 OA
ENDROOT
BRANCH   3   8
ATOM      8  C   UNL d   1      56.583   0.047  32.405  0.00  0.00     0.022 A 
ATOM      9  C   UNL d   1      56.658  -0.736  32.140  0.00  0.00     0.022 A 
ATOM     10  C   UNL d   1      57.029  -0.894  31.421  0.00  0.00     0.099 A 
ATOM     11  N   UNL d   1      57.327  -0.275  30.964  0.00  0.00    -0.242 NA
ATOM     12  C   UNL d   1      57.250   0.510  31.234  0.00  0.00     0.099 A 
ATOM     13  C   UNL d   1      56.880   0.669  31.952  0.00  0.00     0.022 A 
ENDBRANCH   3   8
TORSDOF 1
ENDMDL
MODEL 3
REMARK VINA RESULT:      -4.9      8.538      9.129
REMARK  1 active torsions:
REMARK  status: ('A' for Active; 'I' for Inactive)
REMARK    1  A    between atoms: C_9  and  C_3 
ROOT
ATOM      1  N   UNL d   1      59.652  -6.622  35.607  0.00  0.00    -0.145 NA
ATOM      2  N   UNL d   1      59.934  -5.857  35.724  0.00  0.00    -0.106 NA
ATOM      3  C   UNL d   1      60.103  -7.271  35.851  0.00  0.00     0.103 A 
ATOM      4  C   UNL d   1      60.666  -5.738  36.086  0.00  0.00     0.297 A 
ATOM      5  C   UNL d   1      60.836  -7.159  36.214  0.00  0.00     0.026 A 
ATOM      6  C   UNL d   1      61.116  -6.386  36.330  0.00  0.00     0.066 A 
ATOM      7  O   UNL d   1      60.947  -4.973  36.203  0.00  0.00    -0.264 OA
ENDROOT
BRANCH   3   8
ATOM      8  C   UNL d   1      59.820  -8.036  35.734  0.00  0.00     0.022 A 
ATOM      9  C   UNL d   1      59.384  -8.415  36.330  0.00  0.00     0.022 A 
ATOM     10  C   UNL d   1      59.102  -9.180  36.212  0.00  0.00     0.099 A 
ATOM     11  N   UNL d   1      59.252  -9.571  35.502  0.00  0.00    -0.242 NA
ATOM     12  C   UNL d   1      59.691  -9.188  34.905  0.00  0.00     0.099 A 
ATOM     13  C   UNL d   1      59.973  -8.423  35.022  0.00  0.00     0.022 A 
ENDBRANCH   3   8
TORSDOF 1
ENDMDL
MODEL 4
REMARK VINA RESULT:      -4.5      1.678      3.306
REMARK  1 active torsions:
REMARK  status: ('A' for Active; 'I' for Inactive)
REMARK    1  A    between atoms: C_9  and  C_3 
ROOT
ATOM      1  N   UNL d   1      56.229   0.640  32.399  0.00  0.00    -0.145 NA
ATOM      2  N   UNL d   1      55.723   0.631  33.048  0.00  0.00    -0.106 NA
ATOM      3  C   UNL d   1      56.535  -0.069  32.103  0.00  0.00     0.103 A 
ATOM      4  C   UNL d   1      55.520  -0.085  33.404  0.00  0.00     0.297 A 
ATOM      5  C   UNL d   1      56.337  -0.789  32.454  0.00  0.00     0.026 A 
ATOM      6  C   UNL d   1      55.826  -0.794  33.109  0.00  0.00     0.066 A 
ATOM      7  O   UNL d   1      55.014  -0.093  34.053  0.00  0.00    -0.264 OA
ENDROOT
BRANCH   3   8
ATOM      8  C   UNL d   1      57.041  -0.060  31.453  0.00  0.00     0.022 A 
ATOM      9  C   UNL d   1      57.244   0.660  31.094  0.00  0.00     0.022 A 
ATOM     10  C   UNL d   1      57.751   0.669  30.444  0.00  0.00     0.099 A 
ATOM     11  N   UNL d   1      58.058  -0.038  30.149  0.00  0.00    -0.242 NA
ATOM     12  C   UNL d   1      57.852  -0.760  30.513  0.00  0.00     0.099 A 
ATOM     13  C   UNL d   1      57.346  -0.770  31.162  0.00  0.00     0.022 A 
ENDBRANCH   3   8
TORSDOF 1
ENDMDL
MODEL 5
REMARK VINA RESULT:      -2.7      4.215      5.636
REMARK  1 active torsions:
REMARK  status: ('A' for Active; 'I' for Inactive)
REMARK    1  A    between atoms: C_9  and  C_3 
ROOT
ATOM      1  N   UNL d   1      58.398  -1.400  29.828  0.00  0.00    -0.145 NA
ATOM      2  N   UNL d   1      58.046  -0.665  29.942  0.00  0.00    -0.106 NA
ATOM      3  C   UNL d   1      58.883  -1.529  29.170  0.00  0.00     0.103 A 
ATOM      4  C   UNL d   1      58.177  -0.055  29.402  0.00  0.00     0.297 A 
ATOM      5  C   UNL d   1      59.019  -0.924  28.626  0.00  0.00     0.026 A 
ATOM      6  C   UNL d   1      58.662  -0.184  28.745  0.00  0.00     0.066 A 
ATOM      7  O   UNL d   1      57.825   0.680  29.517  0.00  0.00    -0.264 OA
ENDROOT
BRANCH   3   8
ATOM      8  C   UNL d   1      59.235  -2.265  29.056  0.00  0.00     0.022 A 
ATOM      9  C   UNL d   1      58.773  -2.915  28.824  0.00  0.00     0.022 A 
ATOM     10  C   UNL d   1      59.125  -3.651  28.709  0.00  0.00     0.099 A 
ATOM     11  N   UNL d   1      59.937  -3.744  28.825  0.00  0.00    -0.242 NA
ATOM     12  C   UNL d   1      60.397  -3.089  29.058  0.00  0.00     0.099 A 
ATOM     13  C   UNL d   1      60.047  -2.353  29.173  0.00  0.00     0.022 A 
ENDBRANCH   3   8
TORSDOF 1
ENDMDL
MODEL 6
REMARK VINA RESULT:      -2.6      4.277      5.244
REMARK  1 active torsions:
REMARK  status: ('A' for Active; 'I' for Inactive)
REMARK    1  A    between atoms: C_9  and  C_3 
ROOT
ATOM      1  N   UNL d   1      60.121  -1.646  29.153  0.00  0.00    -0.145 NA
ATOM      2  N   UNL d   1      60.515  -2.369  29.162  0.00  0.00    -0.106 NA
ATOM      3  C   UNL d   1      59.294  -1.626  29.168  0.00  0.00     0.103 A 
ATOM      4  C   UNL d   1      60.086  -3.073  29.186  0.00  0.00     0.297 A 
ATOM      5  C   UNL d   1      58.858  -2.326  29.191  0.00  0.00     0.026 A 
ATOM      6  C   UNL d   1      59.260  -3.053  29.200  0.00  0.00     0.066 A 
ATOM      7  O   UNL d   1      60.481  -3.796  29.195  0.00  0.00    -0.264 OA
ENDROOT
BRANCH   3   8
ATOM      8  C   UNL d   1      58.900  -0.902  29.158  0.00  0.00     0.022 A 
ATOM      9  C   UNL d   1      58.880  -0.448  28.464  0.00  0.00     0.022 A 
ATOM     10  C   UNL d   1      58.486   0.276  28.455  0.00  0.00     0.099 A 
ATOM     11  N   UNL d   1      58.109   0.550  29.136  0.00  0.00    -0.242 NA
ATOM     12  C   UNL d   1      58.130   0.091  29.832  0.00  0.00     0.099 A 
ATOM     13  C   UNL d   1      58.524  -0.632  29.842  0.00  0.00     0.022 A 
ENDBRANCH   3   8
TORSDOF 1
ENDMDL
