MODEL 1
REMARK VINA RESULT:      97.6      0.000      0.000
REMARK  6 active torsions:
REMARK  status: ('A' for Active; 'I' for Inactive)
REMARK    1  A    between atoms: C_9  and  N_1 
REMARK    2  A    between atoms: C_8  and  C_3 
REMARK       I    between atoms: N_12  and  C_8 
REMARK    3  A    between atoms: C_17  and  C_9 
REMARK    4  A    between atoms: C_23  and  N_12 
REMARK    5  A    between atoms: C_13  and  C_23 
REMARK    6  A    between atoms: C_20  and  C_17 
ROOT
ATOM      1  N   UNL d   1     -55.626-100.377 -43.450  0.00  0.00    -0.273 N 
ATOM      2  C   UNL d   1     -55.699-100.789 -42.745  0.00  0.00     0.177 A 
ATOM      3  C   UNL d   1     -55.547-101.587 -42.897  0.00  0.00     0.115 A 
ATOM      4  C   UNL d   1     -55.427-100.912 -44.047  0.00  0.00     0.167 A 
ATOM      5  C   UNL d   1     -55.378-101.661 -43.705  0.00  0.00     0.123 A 
ATOM      6  N   UNL d   1     -55.285-100.816 -44.852  0.00  0.00    -0.225 NA
ATOM      7  N   UNL d   1     -55.187-102.315 -44.168  0.00  0.00    -0.241 NA
ATOM      8  C   UNL d   1     -55.094-101.470 -45.316  0.00  0.00     0.101 A 
ATOM      9  C   UNL d   1     -55.045-102.219 -44.973  0.00  0.00     0.099 A 
ATOM     10  N   UNL d   1     -55.892-100.462 -42.012  0.00  0.00    -0.128 N 
ATOM     11  C   UNL d   1     -54.952-101.374 -46.122  0.00  0.00     0.021 A 
ATOM     12  C   UNL d   1     -54.854-102.873 -45.437  0.00  0.00     0.021 A 
ATOM     13  C   UNL d   1     -54.760-102.029 -46.589  0.00  0.00     0.002 A 
ATOM     14  C   UNL d   1     -54.711-102.778 -46.246  0.00  0.00     0.002 A 
ENDROOT
BRANCH   1  15
ATOM     15  C   UNL d   1     -55.731 -99.563 -43.554  0.00  0.00     0.083 C 
BRANCH  15  16
ATOM     16  C   UNL d   1     -56.114 -99.282 -44.230  0.00  0.00     0.021 C 
BRANCH  16  17
ATOM     17  C   UNL d   1     -56.926 -99.141 -44.204  0.00  0.00     0.029 A 
ATOM     18  C   UNL d   1     -57.272 -98.910 -43.499  0.00  0.00     0.140 A 
ATOM     19  F   UNL d   1     -56.665 -98.870 -42.930  0.00  0.00    -0.204 F 
ATOM     20  C   UNL d   1     -58.073 -98.768 -43.462  0.00  0.00     0.030 A 
ATOM     21  C   UNL d   1     -58.538 -98.860 -44.145  0.00  0.00     0.002 A 
ATOM     22  C   UNL d   1     -58.185 -99.092 -44.849  0.00  0.00     0.000 A 
ATOM     23  C   UNL d   1     -57.381 -99.232 -44.876  0.00  0.00     0.002 A 
ENDBRANCH  16  17
ENDBRANCH  15  16
ENDBRANCH   1  15
BRANCH   3  24
ATOM     24  C   UNL d   1     -55.558-102.204 -42.347  0.00  0.00     0.284 C 
ATOM     25  N   UNL d   1     -54.990-102.223 -41.749  0.00  0.00    -0.204 NA
ATOM     26  O   UNL d   1     -56.129-102.796 -42.395  0.00  0.00    -0.265 OA
BRANCH  25  27
ATOM     27  C   UNL d   1     -55.000-102.846 -41.192  0.00  0.00     0.127 C 
BRANCH  27  28
ATOM     28  C   UNL d   1     -55.214-102.700 -40.415  0.00  0.00     0.119 A 
ATOM     29  O   UNL d   1     -55.964-102.814 -40.093  0.00  0.00    -0.304 OA
ATOM     30  C   UNL d   1     -55.931-102.598 -39.298  0.00  0.00     0.123 A 
ATOM     31  C   UNL d   1     -55.151-102.351 -39.139  0.00  0.00     0.029 A 
ATOM     32  C   UNL d   1     -54.720-102.415 -39.820  0.00  0.00     0.028 A 
ENDBRANCH  27  28
ENDBRANCH  25  27
ENDBRANCH   3  24
TORSDOF 6
ENDMDL
