MODEL 1
REMARK VINA RESULT:      -0.8      0.000      0.000
REMARK  10 active torsions:
REMARK  status: ('A' for Active; 'I' for Inactive)
REMARK    1  A    between atoms: C_11  and  C_1 
REMARK    2  A    between atoms: C_21  and  N_5 
REMARK    3  A    between atoms: N_20  and  C_8 
REMARK    4  A    between atoms: C_9  and  C_11 
REMARK    5  A    between atoms: C_25  and  N_20 
REMARK    6  A    between atoms: C_28  and  C_21 
REMARK    7  A    between atoms: C_22  and  C_25 
REMARK    8  A    between atoms: C_26  and  C_22 
REMARK    9  A    between atoms: O_24  and  C_26 
REMARK   10  A    between atoms: C_27  and  O_24 
ROOT
ATOM      1  C   UNL d   1      33.188  21.665 -22.144  0.00  0.00     0.093 A 
ATOM      2  N   UNL d   1      33.134  22.509 -23.306  0.00  0.00    -0.258 N 
ATOM      3  N   UNL d   1      33.085  21.080 -23.461  0.00  0.00    -0.209 NA
ATOM      4  C   UNL d   1      33.083  21.834 -23.800  0.00  0.00     0.152 A 
ATOM      5  C   UNL d   1      33.186  22.435 -22.482  0.00  0.00     0.269 A 
ATOM      6  C   UNL d   1      33.137  20.987 -22.634  0.00  0.00     0.169 A 
ATOM      7  C   UNL d   1      33.031  21.922 -24.614  0.00  0.00     0.035 A 
ATOM      8  C   UNL d   1      33.131  23.263 -23.645  0.00  0.00     0.084 A 
ATOM      9  O   UNL d   1      33.235  23.095 -22.005  0.00  0.00    -0.266 OA
ATOM     10  C   UNL d   1      33.079  23.341 -24.467  0.00  0.00     0.019 A 
ATOM     11  C   UNL d   1      33.029  22.673 -24.949  0.00  0.00     0.005 A 
ATOM     12  C   UNL d   1      32.981  21.254 -25.097  0.00  0.00     0.003 C 
ENDROOT
BRANCH   1  13
ATOM     13  C   UNL d   1      33.239  21.574 -21.331  0.00  0.00     0.019 C 
BRANCH  13  14
ATOM     14  C   UNL d   1      32.794  22.062 -20.838  0.00  0.00     0.088 A 
ATOM     15  C   UNL d   1      32.794  22.045 -20.012  0.00  0.00     0.272 A 
ATOM     16  N   UNL d   1      32.271  22.625 -19.741  0.00  0.00    -0.259 N 
ATOM     17  O   UNL d   1      33.241  21.534 -19.535  0.00  0.00    -0.266 OA
ATOM     18  C   UNL d   1      31.946  23.003 -20.409  0.00  0.00     0.153 A 
ATOM     19  S   UNL d   1      32.274  22.649 -21.080  0.00  0.00    -0.053 SA
ATOM     20  S   UNL d   1      31.402  23.612 -20.397  0.00  0.00    -0.052 SA
BRANCH  16  21
ATOM     21  C   UNL d   1      32.098  22.802 -18.958  0.00  0.00     0.084 C 
BRANCH  21  22
ATOM     22  C   UNL d   1      32.653  23.214 -18.498  0.00  0.00     0.019 C 
ATOM     23  C   UNL d   1      32.415  23.599 -17.807  0.00  0.00     0.002 C 
ENDBRANCH  21  22
ENDBRANCH  16  21
ENDBRANCH  13  14
ENDBRANCH   1  13
BRANCH   6  24
ATOM     24  N   UNL d   1      33.139  20.235 -22.298  0.00  0.00    -0.225 NA
BRANCH  24  25
ATOM     25  C   UNL d   1      33.212  19.571 -22.771  0.00  0.00     0.103 C 
BRANCH  25  26
ATOM     26  C   UNL d   1      33.218  18.819 -22.434  0.00  0.00     0.047 C 
BRANCH  26  27
ATOM     27  C   UNL d   1      32.862  18.191 -22.824  0.00  0.00     0.124 C 
BRANCH  27  28
ATOM     28  O   UNL d   1      32.827  17.449 -22.467  0.00  0.00    -0.303 OA
BRANCH  28  29
ATOM     29  C   UNL d   1      33.114  16.781 -22.866  0.00  0.00     0.123 C 
ATOM     30  C   UNL d   1      32.611  16.144 -23.015  0.00  0.00     0.029 C 
ENDBRANCH  28  29
ENDBRANCH  27  28
ENDBRANCH  26  27
ENDBRANCH  25  26
ENDBRANCH  24  25
ENDBRANCH   6  24
TORSDOF 10
ENDMDL
MODEL 2
REMARK VINA RESULT:      -0.0      1.986      4.714
REMARK  10 active torsions:
REMARK  status: ('A' for Active; 'I' for Inactive)
REMARK    1  A    between atoms: C_11  and  C_1 
REMARK    2  A    between atoms: C_21  and  N_5 
REMARK    3  A    between atoms: N_20  and  C_8 
REMARK    4  A    between atoms: C_9  and  C_11 
REMARK    5  A    between atoms: C_25  and  N_20 
REMARK    6  A    between atoms: C_28  and  C_21 
REMARK    7  A    between atoms: C_22  and  C_25 
REMARK    8  A    between atoms: C_26  and  C_22 
REMARK    9  A    between atoms: O_24  and  C_26 
REMARK   10  A    between atoms: C_27  and  O_24 
ROOT
ATOM      1  C   UNL d   1      33.241  19.730 -23.307  0.00  0.00     0.093 A 
ATOM      2  N   UNL d   1      33.241  20.850 -24.208  0.00  0.00    -0.258 N 
ATOM      3  N   UNL d   1      33.241  21.079 -22.788  0.00  0.00    -0.209 NA
ATOM      4  C   UNL d   1      33.241  21.379 -23.558  0.00  0.00     0.152 A 
ATOM      5  C   UNL d   1      33.241  20.029 -24.093  0.00  0.00     0.269 A 
ATOM      6  C   UNL d   1      33.241  20.255 -22.654  0.00  0.00     0.169 A 
ATOM      7  C   UNL d   1      33.241  22.190 -23.686  0.00  0.00     0.035 A 
ATOM      8  C   UNL d   1      33.241  21.151 -24.978  0.00  0.00     0.084 A 
ATOM      9  O   UNL d   1      33.241  19.517 -24.729  0.00  0.00    -0.266 OA
ATOM     10  C   UNL d   1      33.241  21.969 -25.097  0.00  0.00     0.019 A 
ATOM     11  C   UNL d   1      33.241  22.486 -24.454  0.00  0.00     0.005 A 
ATOM     12  C   UNL d   1      33.241  22.707 -23.044  0.00  0.00     0.003 C 
ENDROOT
BRANCH   1  13
ATOM     13  C   UNL d   1      33.241  18.921 -23.175  0.00  0.00     0.019 C 
BRANCH  13  14
ATOM     14  C   UNL d   1      32.628  18.460 -23.479  0.00  0.00     0.088 A 
ATOM     15  C   UNL d   1      32.341  17.760 -23.148  0.00  0.00     0.272 A 
ATOM     16  N   UNL d   1      31.730  17.479 -23.628  0.00  0.00    -0.259 N 
ATOM     17  O   UNL d   1      32.617  17.398 -22.455  0.00  0.00    -0.266 OA
ATOM     18  C   UNL d   1      31.641  18.013 -24.261  0.00  0.00     0.153 A 
ATOM     19  S   UNL d   1      32.199  18.615 -24.161  0.00  0.00    -0.053 SA
ATOM     20  S   UNL d   1      31.098  17.950 -24.869  0.00  0.00    -0.052 SA
BRANCH  16  21
ATOM     21  C   UNL d   1      31.286  16.798 -23.509  0.00  0.00     0.084 C 
BRANCH  21  22
ATOM     22  C   UNL d   1      30.524  16.742 -23.834  0.00  0.00     0.019 C 
ATOM     23  C   UNL d   1      30.069  16.064 -23.711  0.00  0.00     0.002 C 
ENDBRANCH  21  22
ENDBRANCH  16  21
ENDBRANCH  13  14
ENDBRANCH   1  13
BRANCH   6  24
ATOM     24  N   UNL d   1      33.241  19.958 -21.887  0.00  0.00    -0.225 NA
BRANCH  24  25
ATOM     25  C   UNL d   1      33.176  20.464 -21.246  0.00  0.00     0.103 C 
BRANCH  25  26
ATOM     26  C   UNL d   1      33.228  20.171 -20.478  0.00  0.00     0.047 C 
BRANCH  26  27
ATOM     27  C   UNL d   1      33.078  20.665 -19.839  0.00  0.00     0.124 C 
BRANCH  27  28
ATOM     28  O   UNL d   1      32.482  21.232 -19.886  0.00  0.00    -0.303 OA
BRANCH  28  29
ATOM     29  C   UNL d   1      32.406  21.806 -19.292  0.00  0.00     0.123 C 
ATOM     30  C   UNL d   1      32.634  22.585 -19.441  0.00  0.00     0.029 C 
ENDBRANCH  28  29
ENDBRANCH  27  28
ENDBRANCH  26  27
ENDBRANCH  25  26
ENDBRANCH  24  25
ENDBRANCH   6  24
TORSDOF 10
ENDMDL
MODEL 3
REMARK VINA RESULT:       2.1      2.170      5.263
REMARK  10 active torsions:
REMARK  status: ('A' for Active; 'I' for Inactive)
REMARK    1  A    between atoms: C_11  and  C_1 
REMARK    2  A    between atoms: C_21  and  N_5 
REMARK    3  A    between atoms: N_20  and  C_8 
REMARK    4  A    between atoms: C_9  and  C_11 
REMARK    5  A    between atoms: C_25  and  N_20 
REMARK    6  A    between atoms: C_28  and  C_21 
REMARK    7  A    between atoms: C_22  and  C_25 
REMARK    8  A    between atoms: C_26  and  C_22 
REMARK    9  A    between atoms: O_24  and  C_26 
REMARK   10  A    between atoms: C_27  and  O_24 
ROOT
ATOM      1  C   UNL d   1      33.173  20.132 -23.071  0.00  0.00     0.093 A 
ATOM      2  N   UNL d   1      33.090  20.295 -21.646  0.00  0.00    -0.258 N 
ATOM      3  N   UNL d   1      33.047  21.453 -22.499  0.00  0.00    -0.209 NA
ATOM      4  C   UNL d   1      33.033  21.126 -21.740  0.00  0.00     0.152 A 
ATOM      5  C   UNL d   1      33.160  19.793 -22.303  0.00  0.00     0.269 A 
ATOM      6  C   UNL d   1      33.116  20.962 -23.170  0.00  0.00     0.169 A 
ATOM      7  C   UNL d   1      32.965  21.611 -21.081  0.00  0.00     0.035 A 
ATOM      8  C   UNL d   1      33.077  19.968 -20.887  0.00  0.00     0.084 A 
ATOM      9  O   UNL d   1      33.215  18.984 -22.207  0.00  0.00    -0.266 OA
ATOM     10  C   UNL d   1      33.007  20.466 -20.230  0.00  0.00     0.019 A 
ATOM     11  C   UNL d   1      32.952  21.284 -20.327  0.00  0.00     0.005 A 
ATOM     12  C   UNL d   1      32.910  22.428 -21.178  0.00  0.00     0.003 C 
ENDROOT
BRANCH   1  13
ATOM     13  C   UNL d   1      33.241  19.650 -23.731  0.00  0.00     0.019 C 
BRANCH  13  14
ATOM     14  C   UNL d   1      32.743  18.997 -23.812  0.00  0.00     0.088 A 
ATOM     15  C   UNL d   1      32.217  18.865 -24.434  0.00  0.00     0.272 A 
ATOM     16  N   UNL d   1      31.829  18.148 -24.296  0.00  0.00    -0.259 N 
ATOM     17  O   UNL d   1      32.097  19.362 -25.087  0.00  0.00    -0.266 OA
ATOM     18  C   UNL d   1      32.121  17.838 -23.580  0.00  0.00     0.153 A 
ATOM     19  S   UNL d   1      32.684  18.368 -23.289  0.00  0.00    -0.053 SA
ATOM     20  S   UNL d   1      31.889  17.135 -23.233  0.00  0.00    -0.052 SA
BRANCH  16  21
ATOM     21  C   UNL d   1      31.259  17.799 -24.774  0.00  0.00     0.084 C 
BRANCH  21  22
ATOM     22  C   UNL d   1      30.698  17.289 -24.437  0.00  0.00     0.019 C 
ATOM     23  C   UNL d   1      29.902  17.346 -24.652  0.00  0.00     0.002 C 
ENDBRANCH  21  22
ENDBRANCH  16  21
ENDBRANCH  13  14
ENDBRANCH   1  13
BRANCH   6  24
ATOM     24  N   UNL d   1      33.129  21.289 -23.925  0.00  0.00    -0.225 NA
BRANCH  24  25
ATOM     25  C   UNL d   1      33.213  22.097 -24.025  0.00  0.00     0.103 C 
BRANCH  25  26
ATOM     26  C   UNL d   1      33.171  22.430 -24.778  0.00  0.00     0.047 C 
BRANCH  26  27
ATOM     27  C   UNL d   1      33.240  23.243 -24.873  0.00  0.00     0.124 C 
BRANCH  27  28
ATOM     28  O   UNL d   1      32.582  23.691 -25.083  0.00  0.00    -0.303 OA
BRANCH  28  29
ATOM     29  C   UNL d   1      31.858  23.576 -24.693  0.00  0.00     0.123 C 
ATOM     30  C   UNL d   1      31.150  23.702 -25.096  0.00  0.00     0.029 C 
ENDBRANCH  28  29
ENDBRANCH  27  28
ENDBRANCH  26  27
ENDBRANCH  25  26
ENDBRANCH  24  25
ENDBRANCH   6  24
TORSDOF 10
ENDMDL
