MODEL 1
REMARK VINA RESULT:       6.5      0.000      0.000
REMARK  10 active torsions:
REMARK  status: ('A' for Active; 'I' for Inactive)
REMARK    1  A    between atoms: C_11  and  S_1 
REMARK    2  A    between atoms: N_12  and  S_1 
REMARK    3  A    between atoms: C_2  and  O_7 
REMARK    4  A    between atoms: C_3  and  S_18 
REMARK    5  A    between atoms: C_6  and  C_17 
REMARK    6  A    between atoms: O_7  and  C_6 
REMARK    7  A    between atoms: C_29  and  N_12 
REMARK    8  A    between atoms: C_30  and  N_12 
REMARK    9  A    between atoms: C_28  and  C_14 
REMARK   10  A    between atoms: S_18  and  C_28 
ROOT
ATOM      1  C   UNL d   1     -41.200-122.513 -51.892  0.00  0.00     0.167 A 
ATOM      2  C   UNL d   1     -41.243-122.926 -52.613  0.00  0.00     0.222 A 
ATOM      3  C   UNL d   1     -41.322-122.488 -53.314  0.00  0.00     0.069 A 
ATOM      4  C   UNL d   1     -41.234-121.688 -51.875  0.00  0.00     0.151 A 
ATOM      5  O   UNL d   1     -41.312-121.267 -52.577  0.00  0.00    -0.302 OA
ATOM      6  C   UNL d   1     -41.356-121.663 -53.296  0.00  0.00     0.110 A 
ATOM      7  O   UNL d   1     -41.209-123.743 -52.630  0.00  0.00    -0.284 OA
ENDROOT
BRANCH   1   8
ATOM      8  O   UNL d   1     -41.123-122.744 -51.099  0.00  0.00    -0.268 OA
BRANCH   8   9
ATOM      9  C   UNL d   1     -41.653-123.285 -50.772  0.00  0.00     0.300 C 
ATOM     10  O   UNL d   1     -42.093-123.766 -51.270  0.00  0.00    -0.259 OA
BRANCH   9  11
ATOM     11  C   UNL d   1     -41.735-123.337 -49.956  0.00  0.00     0.064 A 
ATOM     12  C   UNL d   1     -42.362-122.960 -49.565  0.00  0.00     0.006 A 
ATOM     13  C   UNL d   1     -42.434-123.017 -48.768  0.00  0.00     0.013 A 
ATOM     14  C   UNL d   1     -41.901-123.440 -48.331  0.00  0.00     0.104 A 
ATOM     15  C   UNL d   1     -41.279-123.815 -48.707  0.00  0.00     0.013 A 
ATOM     16  C   UNL d   1     -41.189-123.769 -49.514  0.00  0.00     0.006 A 
BRANCH  14  17
ATOM     17  S   UNL d   1     -41.976-123.498 -47.504  0.00  0.00     0.271 S 
ATOM     18  O   UNL d   1     -41.215-123.793 -47.683  0.00  0.00    -0.200 OA
ATOM     19  O   UNL d   1     -41.830-123.645 -46.704  0.00  0.00    -0.200 OA
BRANCH  17  20
ATOM     20  N   UNL d   1     -42.660-123.256 -47.128  0.00  0.00    -0.229 N 
BRANCH  20  21
ATOM     21  C   UNL d   1     -43.159-123.809 -46.798  0.00  0.00     0.092 C 
ATOM     22  C   UNL d   1     -43.965-123.644 -46.706  0.00  0.00     0.021 C 
ENDBRANCH  20  21
BRANCH  20  23
ATOM     23  C   UNL d   1     -42.845-122.453 -47.083  0.00  0.00     0.092 C 
ATOM     24  C   UNL d   1     -43.510-122.205 -46.678  0.00  0.00     0.021 C 
ENDBRANCH  20  23
ENDBRANCH  17  20
ENDBRANCH  14  17
ENDBRANCH   9  11
ENDBRANCH   8   9
ENDBRANCH   1   8
BRANCH   6  25
ATOM     25  C   UNL d   1     -41.434-121.238 -53.999  0.00  0.00     0.063 C 
BRANCH  25  26
ATOM     26  S   UNL d   1     -42.234-121.315 -54.204  0.00  0.00    -0.046 SA
BRANCH  26  27
ATOM     27  C   UNL d   1     -42.442-121.595 -54.946  0.00  0.00     0.194 A 
ATOM     28  N   UNL d   1     -42.020-121.349 -55.608  0.00  0.00    -0.221 NA
ATOM     29  C   UNL d   1     -42.226-121.625 -56.347  0.00  0.00     0.085 A 
ATOM     30  C   UNL d   1     -41.804-121.379 -57.009  0.00  0.00     0.021 C 
ATOM     31  C   UNL d   1     -42.858-122.153 -56.434  0.00  0.00     0.038 A 
ATOM     32  C   UNL d   1     -43.274-122.393 -55.761  0.00  0.00     0.085 A 
ATOM     33  N   UNL d   1     -43.061-122.111 -55.024  0.00  0.00    -0.221 NA
ATOM     34  C   UNL d   1     -43.906-122.921 -55.847  0.00  0.00     0.021 C 
ENDBRANCH  26  27
ENDBRANCH  25  26
ENDBRANCH   6  25
TORSDOF 10
ENDMDL
MODEL 2
REMARK VINA RESULT:       6.7      1.282      6.804
REMARK  10 active torsions:
REMARK  status: ('A' for Active; 'I' for Inactive)
REMARK    1  A    between atoms: C_11  and  S_1 
REMARK    2  A    between atoms: N_12  and  S_1 
REMARK    3  A    between atoms: C_2  and  O_7 
REMARK    4  A    between atoms: C_3  and  S_18 
REMARK    5  A    between atoms: C_6  and  C_17 
REMARK    6  A    between atoms: O_7  and  C_6 
REMARK    7  A    between atoms: C_29  and  N_12 
REMARK    8  A    between atoms: C_30  and  N_12 
REMARK    9  A    between atoms: C_28  and  C_14 
REMARK   10  A    between atoms: S_18  and  C_28 
ROOT
ATOM      1  C   UNL d   1     -41.478-122.555 -51.524  0.00  0.00     0.167 A 
ATOM      2  C   UNL d   1     -41.470-123.387 -51.545  0.00  0.00     0.222 A 
ATOM      3  C   UNL d   1     -41.774-123.800 -50.892  0.00  0.00     0.069 A 
ATOM      4  C   UNL d   1     -41.780-122.151 -50.871  0.00  0.00     0.151 A 
ATOM      5  O   UNL d   1     -42.079-122.574 -50.231  0.00  0.00    -0.302 OA
ATOM      6  C   UNL d   1     -42.077-123.396 -50.238  0.00  0.00     0.110 A 
ATOM      7  O   UNL d   1     -41.170-123.787 -52.192  0.00  0.00    -0.284 OA
ENDROOT
BRANCH   1   8
ATOM      8  O   UNL d   1     -41.232-121.963 -52.051  0.00  0.00    -0.268 OA
BRANCH   8   9
ATOM      9  C   UNL d   1     -41.789-121.482 -52.423  0.00  0.00     0.300 C 
ATOM     10  O   UNL d   1     -42.235-120.962 -51.971  0.00  0.00    -0.259 OA
BRANCH   9  11
ATOM     11  C   UNL d   1     -41.893-121.528 -53.236  0.00  0.00     0.064 A 
ATOM     12  C   UNL d   1     -41.242-121.526 -53.751  0.00  0.00     0.006 A 
ATOM     13  C   UNL d   1     -41.352-121.570 -54.544  0.00  0.00     0.013 A 
ATOM     14  C   UNL d   1     -42.096-121.619 -54.859  0.00  0.00     0.104 A 
ATOM     15  C   UNL d   1     -42.745-121.622 -54.360  0.00  0.00     0.013 A 
ATOM     16  C   UNL d   1     -42.653-121.577 -53.553  0.00  0.00     0.006 A 
BRANCH  14  17
ATOM     17  S   UNL d   1     -42.211-121.666 -55.681  0.00  0.00     0.271 S 
ATOM     18  O   UNL d   1     -41.781-120.961 -55.553  0.00  0.00    -0.200 OA
ATOM     19  O   UNL d   1     -42.202-121.507 -56.492  0.00  0.00    -0.200 OA
BRANCH  17  20
ATOM     20  N   UNL d   1     -42.617-122.293 -56.013  0.00  0.00    -0.229 N 
BRANCH  20  21
ATOM     21  C   UNL d   1     -43.406-122.213 -56.198  0.00  0.00     0.092 C 
ATOM     22  C   UNL d   1     -43.840-122.863 -56.469  0.00  0.00     0.021 C 
ENDBRANCH  20  21
BRANCH  20  23
ATOM     23  C   UNL d   1     -42.228-123.006 -56.159  0.00  0.00     0.092 C 
ATOM     24  C   UNL d   1     -42.141-123.559 -55.563  0.00  0.00     0.021 C 
ENDBRANCH  20  23
ENDBRANCH  17  20
ENDBRANCH  14  17
ENDBRANCH   9  11
ENDBRANCH   8   9
ENDBRANCH   1   8
BRANCH   6  25
ATOM     25  C   UNL d   1     -42.377-123.816 -49.595  0.00  0.00     0.063 C 
BRANCH  25  26
ATOM     26  S   UNL d   1     -41.781-123.776 -49.021  0.00  0.00    -0.046 SA
BRANCH  26  27
ATOM     27  C   UNL d   1     -41.958-123.523 -48.261  0.00  0.00     0.194 A 
ATOM     28  N   UNL d   1     -41.454-122.998 -47.878  0.00  0.00    -0.221 NA
ATOM     29  C   UNL d   1     -41.628-122.745 -47.123  0.00  0.00     0.085 A 
ATOM     30  C   UNL d   1     -41.123-122.220 -46.741  0.00  0.00     0.021 C 
ATOM     31  C   UNL d   1     -42.311-123.014 -46.740  0.00  0.00     0.038 A 
ATOM     32  C   UNL d   1     -42.809-123.542 -47.135  0.00  0.00     0.085 A 
ATOM     33  N   UNL d   1     -42.628-123.791 -47.892  0.00  0.00    -0.221 NA
ATOM     34  C   UNL d   1     -43.492-123.811 -46.752  0.00  0.00     0.021 C 
ENDBRANCH  26  27
ENDBRANCH  25  26
ENDBRANCH   6  25
TORSDOF 10
ENDMDL
