MODEL 1
REMARK VINA RESULT:      20.9      0.000      0.000
REMARK  2 active torsions:
REMARK  status: ('A' for Active; 'I' for Inactive)
REMARK    1  A    between atoms: C_6  and  C_1 
REMARK       I    between atoms: N_12  and  C_6 
REMARK    2  A    between atoms: O_15  and  C_13 
ROOT
ATOM      1  C   UNL d   1     -56.731 -98.843 -44.353  0.00  0.00     0.101 A 
ATOM      2  C   UNL d   1     -57.021 -98.815 -45.119  0.00  0.00     0.208 A 
ATOM      3  C   UNL d   1     -57.259 -98.842 -43.718  0.00  0.00     0.011 A 
ATOM      4  O   UNL d   1     -57.841 -98.785 -45.263  0.00  0.00    -0.288 OA
ATOM      5  C   UNL d   1     -58.079 -98.813 -43.866  0.00  0.00     0.025 A 
ATOM      6  C   UNL d   1     -58.359 -98.785 -44.615  0.00  0.00     0.102 A 
ATOM      7  N   UNL d   1     -56.491 -98.816 -45.733  0.00  0.00    -0.121 N 
ATOM      8  C   UNL d   1     -58.590 -98.813 -43.213  0.00  0.00     0.026 A 
ATOM      9  C   UNL d   1     -59.173 -98.756 -44.782  0.00  0.00     0.027 A 
ATOM     10  C   UNL d   1     -59.409 -98.783 -43.378  0.00  0.00     0.094 A 
ATOM     11  C   UNL d   1     -59.690 -98.756 -44.130  0.00  0.00     0.026 A 
ENDROOT
BRANCH   1  12
ATOM     12  C   UNL d   1     -55.919 -98.872 -44.223  0.00  0.00     0.283 C 
ATOM     13  O   UNL d   1     -55.433 -99.004 -44.808  0.00  0.00    -0.265 OA
ATOM     14  N   UNL d   1     -55.586 -98.764 -43.482  0.00  0.00    -0.205 NA
ATOM     15  C   UNL d   1     -54.779 -98.796 -43.370  0.00  0.00     0.123 C 
ENDBRANCH   1  12
BRANCH  10  16
ATOM     16  O   UNL d   1     -59.955 -98.780 -42.816  0.00  0.00    -0.328 OA
ATOM     17  C   UNL d   1     -59.849 -98.775 -41.973  0.00  0.00     0.181 C 
ENDBRANCH  10  16
TORSDOF 2
ENDMDL
