MODEL 1
REMARK VINA RESULT:      39.9      0.000      0.000
REMARK  6 active torsions:
REMARK  status: ('A' for Active; 'I' for Inactive)
REMARK    1  A    between atoms: N_2  and  S_1 
REMARK    2  A    between atoms: C_3  and  S_1 
REMARK    3  A    between atoms: O_13  and  C_8 
REMARK    4  A    between atoms: C_14  and  O_13 
REMARK    5  A    between atoms: C_15  and  C_14 
REMARK    6  A    between atoms: C_16  and  C_15 
ROOT
ATOM      1  C   UNL d   1     -50.625  26.161  33.829  0.00  0.00     0.104 A 
ATOM      2  C   UNL d   1     -50.777  26.844  33.392  0.00  0.00     0.015 A 
ATOM      3  C   UNL d   1     -50.035  26.131  34.355  0.00  0.00     0.015 A 
ATOM      4  C   UNL d   1     -49.701  27.497  34.037  0.00  0.00     0.100 A 
ATOM      5  C   UNL d   1     -50.322  27.501  33.495  0.00  0.00     0.025 A 
ATOM      6  C   UNL d   1     -49.548  26.813  34.475  0.00  0.00     0.025 A 
ENDROOT
BRANCH   1   7
ATOM      7  S   UNL d   1     -51.105  25.488  33.712  0.00  0.00     0.271 S 
ATOM      8  O   UNL d   1     -51.643  25.967  33.307  0.00  0.00    -0.200 OA
ATOM      9  O   UNL d   1     -50.551  25.013  34.124  0.00  0.00    -0.200 OA
BRANCH   7  10
ATOM     10  N   UNL d   1     -51.591  24.806  33.593  0.00  0.00    -0.229 N 
ATOM     11  C   UNL d   1     -52.398  25.014  33.655  0.00  0.00     0.092 A 
ATOM     12  C   UNL d   1     -53.051  24.517  33.577  0.00  0.00     0.020 A 
ATOM     13  C   UNL d   1     -53.053  23.725  33.424  0.00  0.00     0.002 A 
ATOM     14  C   UNL d   1     -52.453  23.196  33.306  0.00  0.00     0.002 A 
ATOM     15  C   UNL d   1     -51.643  23.370  33.318  0.00  0.00     0.020 A 
ATOM     16  C   UNL d   1     -51.257  24.070  33.442  0.00  0.00     0.092 A 
ENDBRANCH   7  10
ENDBRANCH   1   7
BRANCH   4  17
ATOM     17  O   UNL d   1     -49.242  28.173  34.133  0.00  0.00    -0.305 OA
BRANCH  17  18
ATOM     18  C   UNL d   1     -48.719  28.217  34.748  0.00  0.00     0.123 C 
BRANCH  18  19
ATOM     19  C   UNL d   1     -48.148  28.829  34.770  0.00  0.00     0.027 C 
BRANCH  19  20
ATOM     20  C   UNL d   1     -48.043  29.281  35.452  0.00  0.00     0.002 C 
ATOM     21  C   UNL d   1     -47.772  30.070  35.413  0.00  0.00     0.000 C 
ENDBRANCH  19  20
ENDBRANCH  18  19
ENDBRANCH  17  18
ENDBRANCH   4  17
TORSDOF 6
ENDMDL
