MODEL 1
REMARK VINA RESULT:      -6.4      0.000      0.000
REMARK  4 active torsions:
REMARK  status: ('A' for Active; 'I' for Inactive)
REMARK    1  A    between atoms: C_4  and  S_1 
REMARK    2  A    between atoms: N_5  and  S_1 
REMARK    3  A    between atoms: C_3  and  C_12 
REMARK    4  A    between atoms: C_12  and  N_5 
ROOT
ATOM      1  S   UNL d   1     -41.753-122.723 -51.411  0.00  0.00     0.285 S 
ATOM      2  O   UNL d   1     -42.182-123.393 -51.627  0.00  0.00    -0.198 OA
ATOM      3  O   UNL d   1     -41.316-122.037 -51.200  0.00  0.00    -0.198 OA
ENDROOT
BRANCH   1   4
ATOM      4  C   UNL d   1     -41.726-122.981 -50.630  0.00  0.00     0.105 A 
ATOM      5  C   UNL d   1     -42.291-122.701 -50.082  0.00  0.00     0.013 A 
ATOM      6  C   UNL d   1     -42.245-122.974 -49.304  0.00  0.00     0.001 A 
ATOM      7  C   UNL d   1     -42.809-122.693 -48.760  0.00  0.00     0.000 A 
ATOM      8  C   UNL d   1     -41.664-123.507 -49.069  0.00  0.00     0.000 A 
ATOM      9  C   UNL d   1     -42.772-122.960 -47.979  0.00  0.00     0.000 A 
ATOM     10  C   UNL d   1     -42.192-123.493 -47.739  0.00  0.00     0.000 A 
ATOM     11  C   UNL d   1     -41.640-123.762 -48.293  0.00  0.00     0.000 A 
ATOM     12  C   UNL d   1     -41.123-123.770 -49.615  0.00  0.00     0.001 A 
ATOM     13  C   UNL d   1     -41.149-123.511 -50.395  0.00  0.00     0.013 A 
ENDBRANCH   1   4
BRANCH   1  14
ATOM     14  N   UNL d   1     -41.774-122.452 -52.200  0.00  0.00    -0.155 NA
BRANCH  14  15
ATOM     15  C   UNL d   1     -41.248-122.747 -52.760  0.00  0.00     0.132 C 
BRANCH  15  16
ATOM     16  C   UNL d   1     -41.404-122.659 -53.574  0.00  0.00     0.108 A 
ATOM     17  N   UNL d   1     -41.838-122.051 -53.913  0.00  0.00    -0.237 NA
ATOM     18  C   UNL d   1     -41.858-122.176 -54.738  0.00  0.00     0.111 A 
ATOM     19  C   UNL d   1     -42.238-121.693 -55.300  0.00  0.00     0.028 C 
ATOM     20  S   UNL d   1     -41.432-122.866 -54.891  0.00  0.00    -0.066 SA
ATOM     21  C   UNL d   1     -41.152-123.165 -54.171  0.00  0.00     0.058 A 
ENDBRANCH  15  16
ENDBRANCH  14  15
ENDBRANCH   1  14
TORSDOF 4
ENDMDL
MODEL 2
REMARK VINA RESULT:      -6.1      1.146      4.929
REMARK  4 active torsions:
REMARK  status: ('A' for Active; 'I' for Inactive)
REMARK    1  A    between atoms: C_4  and  S_1 
REMARK    2  A    between atoms: N_5  and  S_1 
REMARK    3  A    between atoms: C_3  and  C_12 
REMARK    4  A    between atoms: C_12  and  N_5 
ROOT
ATOM      1  S   UNL d   1     -41.504-122.653 -51.913  0.00  0.00     0.285 S 
ATOM      2  O   UNL d   1     -41.141-121.913 -51.929  0.00  0.00    -0.198 OA
ATOM      3  O   UNL d   1     -41.873-123.407 -51.886  0.00  0.00    -0.198 OA
ENDROOT
BRANCH   1   4
ATOM      4  C   UNL d   1     -41.516-122.675 -52.735  0.00  0.00     0.105 A 
ATOM      5  C   UNL d   1     -41.927-122.084 -53.159  0.00  0.00     0.013 A 
ATOM      6  C   UNL d   1     -41.925-122.127 -53.984  0.00  0.00     0.001 A 
ATOM      7  C   UNL d   1     -42.336-121.537 -54.404  0.00  0.00     0.000 A 
ATOM      8  C   UNL d   1     -41.533-122.729 -54.382  0.00  0.00     0.000 A 
ATOM      9  C   UNL d   1     -42.341-121.569 -55.229  0.00  0.00     0.000 A 
ATOM     10  C   UNL d   1     -41.949-122.171 -55.632  0.00  0.00     0.000 A 
ATOM     11  C   UNL d   1     -41.546-122.749 -55.199  0.00  0.00     0.000 A 
ATOM     12  C   UNL d   1     -41.137-123.296 -53.954  0.00  0.00     0.001 A 
ATOM     13  C   UNL d   1     -41.125-123.274 -53.133  0.00  0.00     0.013 A 
ENDBRANCH   1   4
BRANCH   1  14
ATOM     14  N   UNL d   1     -41.496-122.640 -51.078  0.00  0.00    -0.155 NA
BRANCH  14  15
ATOM     15  C   UNL d   1     -41.885-123.221 -50.645  0.00  0.00     0.132 C 
BRANCH  15  16
ATOM     16  C   UNL d   1     -41.919-123.176 -49.813  0.00  0.00     0.108 A 
ATOM     17  N   UNL d   1     -41.309-123.373 -49.301  0.00  0.00    -0.237 NA
ATOM     18  C   UNL d   1     -41.576-123.247 -48.519  0.00  0.00     0.111 A 
ATOM     19  C   UNL d   1     -41.138-123.375 -47.823  0.00  0.00     0.028 C 
ATOM     20  S   UNL d   1     -42.353-122.973 -48.568  0.00  0.00    -0.066 SA
ATOM     21  C   UNL d   1     -42.565-122.930 -49.368  0.00  0.00     0.058 A 
ENDBRANCH  15  16
ENDBRANCH  14  15
ENDBRANCH   1  14
TORSDOF 4
ENDMDL
