MODEL 1
REMARK VINA RESULT:      49.5      0.000      0.000
REMARK  5 active torsions:
REMARK  status: ('A' for Active; 'I' for Inactive)
REMARK    1  A    between atoms: N_2  and  S_1 
REMARK    2  A    between atoms: C_6  and  S_1 
REMARK    3  A    between atoms: C_5  and  N_2 
REMARK    4  A    between atoms: C_3  and  C_8 
REMARK    5  A    between atoms: C_7  and  C_4 
ROOT
ATOM      1  S   UNL d   1     -51.641  26.106  33.945  0.00  0.00     0.285 S 
ATOM      2  O   UNL d   1     -52.096  26.462  33.372  0.00  0.00    -0.198 OA
ATOM      3  O   UNL d   1     -51.181  25.744  34.526  0.00  0.00    -0.198 OA
ENDROOT
BRANCH   1   4
ATOM      4  N   UNL d   1     -52.220  25.535  34.048  0.00  0.00    -0.158 NA
BRANCH   4   5
ATOM      5  C   UNL d   1     -52.084  24.750  33.835  0.00  0.00     0.100 A 
ATOM      6  C   UNL d   1     -52.651  24.205  33.909  0.00  0.00     0.083 A 
ATOM      7  C   UNL d   1     -52.515  23.419  33.695  0.00  0.00     0.008 A 
ATOM      8  C   UNL d   1     -51.747  23.195  33.391  0.00  0.00     0.000 A 
ATOM      9  C   UNL d   1     -51.180  23.740  33.318  0.00  0.00     0.002 A 
ATOM     10  C   UNL d   1     -51.338  24.550  33.543  0.00  0.00     0.020 A 
BRANCH   6  11
ATOM     11  C   UNL d   1     -53.396  24.404  34.200  0.00  0.00     0.212 C 
ATOM     12  O   UNL d   1     -53.979  24.696  33.705  0.00  0.00    -0.644 OA
ATOM     13  O   UNL d   1     -53.537  24.300  35.006  0.00  0.00    -0.644 OA
ENDBRANCH   6  11
ENDBRANCH   4   5
ENDBRANCH   1   4
BRANCH   1  14
ATOM     14  C   UNL d   1     -51.058  26.682  33.841  0.00  0.00     0.105 A 
ATOM     15  C   UNL d   1     -51.260  27.470  33.708  0.00  0.00     0.017 A 
ATOM     16  C   UNL d   1     -50.698  28.025  33.607  0.00  0.00     0.072 A 
ATOM     17  C   UNL d   1     -49.898  27.827  33.633  0.00  0.00     0.004 A 
ATOM     18  C   UNL d   1     -49.697  27.039  33.766  0.00  0.00     0.001 A 
ATOM     19  C   UNL d   1     -50.258  26.484  33.867  0.00  0.00     0.013 A 
BRANCH  16  20
ATOM     20  C   UNL d   1     -50.925  28.838  33.470  0.00  0.00     0.419 C 
ATOM     21  F   UNL d   1     -51.172  29.624  33.340  0.00  0.00    -0.166 F 
ATOM     22  F   UNL d   1     -51.747  28.628  33.575  0.00  0.00    -0.166 F 
ATOM     23  F   UNL d   1     -50.127  29.026  33.371  0.00  0.00    -0.166 F 
ENDBRANCH  16  20
ENDBRANCH   1  14
TORSDOF 5
ENDMDL
MODEL 2
REMARK VINA RESULT:      51.0      5.796      7.654
REMARK  5 active torsions:
REMARK  status: ('A' for Active; 'I' for Inactive)
REMARK    1  A    between atoms: N_2  and  S_1 
REMARK    2  A    between atoms: C_6  and  S_1 
REMARK    3  A    between atoms: C_5  and  N_2 
REMARK    4  A    between atoms: C_3  and  C_8 
REMARK    5  A    between atoms: C_7  and  C_4 
ROOT
ATOM      1  S   UNL d   1     -47.225  31.401  35.241  0.00  0.00     0.285 S 
ATOM      2  O   UNL d   1     -47.549  31.050  34.583  0.00  0.00    -0.198 OA
ATOM      3  O   UNL d   1     -46.896  31.757  35.909  0.00  0.00    -0.198 OA
ENDROOT
BRANCH   1   4
ATOM      4  N   UNL d   1     -47.098  32.088  34.813  0.00  0.00    -0.158 NA
BRANCH   4   5
ATOM      5  C   UNL d   1     -47.712  32.446  34.395  0.00  0.00     0.100 A 
ATOM      6  C   UNL d   1     -47.569  32.859  33.738  0.00  0.00     0.083 A 
ATOM      7  C   UNL d   1     -48.183  33.218  33.319  0.00  0.00     0.008 A 
ATOM      8  C   UNL d   1     -48.986  33.139  33.605  0.00  0.00     0.000 A 
ATOM      9  C   UNL d   1     -49.129  32.727  34.262  0.00  0.00     0.002 A 
ATOM     10  C   UNL d   1     -48.481  32.361  34.684  0.00  0.00     0.020 A 
BRANCH   6  11
ATOM     11  C   UNL d   1     -46.801  32.945  33.448  0.00  0.00     0.212 C 
ATOM     12  O   UNL d   1     -46.484  33.687  33.307  0.00  0.00    -0.644 OA
ATOM     13  O   UNL d   1     -46.362  32.261  33.306  0.00  0.00    -0.644 OA
ENDBRANCH   6  11
ENDBRANCH   4   5
ENDBRANCH   1   4
BRANCH   1  14
ATOM     14  C   UNL d   1     -47.352  30.709  35.673  0.00  0.00     0.105 A 
ATOM     15  C   UNL d   1     -47.616  30.021  35.303  0.00  0.00     0.017 A 
ATOM     16  C   UNL d   1     -47.739  29.353  35.720  0.00  0.00     0.072 A 
ATOM     17  C   UNL d   1     -47.606  29.330  36.533  0.00  0.00     0.004 A 
ATOM     18  C   UNL d   1     -47.342  30.018  36.903  0.00  0.00     0.001 A 
ATOM     19  C   UNL d   1     -47.219  30.685  36.486  0.00  0.00     0.013 A 
BRANCH  16  20
ATOM     20  C   UNL d   1     -48.013  28.649  35.319  0.00  0.00     0.419 C 
ATOM     21  F   UNL d   1     -48.258  27.961  34.916  0.00  0.00    -0.166 F 
ATOM     22  F   UNL d   1     -47.281  28.612  34.879  0.00  0.00    -0.166 F 
ATOM     23  F   UNL d   1     -48.715  28.697  35.752  0.00  0.00    -0.166 F 
ENDBRANCH  16  20
ENDBRANCH   1  14
TORSDOF 5
ENDMDL
