MODEL 1
REMARK VINA RESULT:      -1.2      0.000      0.000
REMARK  3 active torsions:
REMARK  status: ('A' for Active; 'I' for Inactive)
REMARK    1  A    between atoms: N_5  and  S_1 
REMARK    2  A    between atoms: C_6  and  S_1 
REMARK    3  A    between atoms: C_2  and  C_13 
ROOT
ATOM      1  N   UNL d   1     -41.849-122.854 -51.336  0.00  0.00    -0.229 N 
ATOM      2  C   UNL d   1     -41.871-122.428 -53.181  0.00  0.00     0.039 A 
ATOM      3  C   UNL d   1     -41.854-121.947 -51.611  0.00  0.00     0.092 A 
ATOM      4  C   UNL d   1     -41.856-123.549 -51.986  0.00  0.00     0.092 A 
ATOM      5  C   UNL d   1     -41.864-121.731 -52.538  0.00  0.00     0.023 A 
ATOM      6  C   UNL d   1     -41.867-123.335 -52.905  0.00  0.00     0.023 A 
ENDROOT
BRANCH   1   7
ATOM      7  S   UNL d   1     -41.840-123.051 -50.499  0.00  0.00     0.271 S 
ATOM      8  O   UNL d   1     -41.270-122.471 -50.364  0.00  0.00    -0.200 OA
ATOM      9  O   UNL d   1     -42.410-123.632 -50.633  0.00  0.00    -0.200 OA
BRANCH   7  10
ATOM     10  C   UNL d   1     -41.834-123.243 -49.696  0.00  0.00     0.106 A 
ATOM     11  C   UNL d   1     -42.538-123.183 -49.260  0.00  0.00     0.040 A 
ATOM     12  C   UNL d   1     -42.524-123.375 -48.465  0.00  0.00     0.123 A 
ATOM     13  O   UNL d   1     -43.217-123.321 -48.014  0.00  0.00    -0.301 OA
ATOM     14  C   UNL d   1     -41.821-123.627 -48.096  0.00  0.00     0.123 A 
ATOM     15  C   UNL d   1     -43.358-123.519 -47.044  0.00  0.00     0.149 A 
ATOM     16  C   UNL d   1     -42.454-123.817 -46.676  0.00  0.00     0.149 A 
ATOM     17  O   UNL d   1     -41.815-123.817 -47.301  0.00  0.00    -0.301 OA
ATOM     18  C   UNL d   1     -41.125-123.680 -48.555  0.00  0.00     0.028 A 
ATOM     19  C   UNL d   1     -41.131-123.490 -49.346  0.00  0.00     0.015 A 
ENDBRANCH   7  10
ENDBRANCH   1   7
BRANCH   2  20
ATOM     20  C   UNL d   1     -41.882-122.212 -54.109  0.00  0.00     0.163 A 
ATOM     21  N   UNL d   1     -42.529-122.161 -54.551  0.00  0.00    -0.225 NA
ATOM     22  C   UNL d   1     -42.306-121.972 -55.281  0.00  0.00     0.101 A 
ATOM     23  C   UNL d   1     -42.737-121.853 -55.937  0.00  0.00     0.021 A 
ATOM     24  C   UNL d   1     -41.524-121.906 -55.291  0.00  0.00     0.101 A 
ATOM     25  C   UNL d   1     -42.356-121.667 -56.603  0.00  0.00     0.002 A 
ATOM     26  C   UNL d   1     -41.570-121.600 -56.617  0.00  0.00     0.002 A 
ATOM     27  C   UNL d   1     -41.165-121.719 -55.965  0.00  0.00     0.021 A 
ATOM     28  N   UNL d   1     -41.259-122.054 -54.566  0.00  0.00    -0.225 NA
ENDBRANCH   2  20
TORSDOF 3
ENDMDL
