MODEL 1
REMARK VINA RESULT:      45.5      0.000      0.000
REMARK  4 active torsions:
REMARK  status: ('A' for Active; 'I' for Inactive)
REMARK    1  A    between atoms: C_7  and  C_3 
REMARK       I    between atoms: N_13  and  C_7 
REMARK    2  A    between atoms: C_14  and  N_13 
REMARK    3  A    between atoms: C_16  and  C_14 
REMARK    4  A    between atoms: C_15  and  C_16 
ROOT
ATOM      1  C   UNL d   1     -50.856  26.524  33.472  0.00  0.00     0.285 C 
ATOM      2  O   UNL d   1     -51.441  27.090  33.428  0.00  0.00    -0.265 OA
ATOM      3  N   UNL d   1     -50.070  26.747  33.557  0.00  0.00    -0.206 NA
ENDROOT
BRANCH   1   4
ATOM      4  C   UNL d   1     -51.045  25.719  33.432  0.00  0.00     0.133 A 
ATOM      5  C   UNL d   1     -51.838  25.492  33.410  0.00  0.00     0.272 A 
ATOM      6  N   UNL d   1     -52.041  24.690  33.370  0.00  0.00    -0.265 N 
ATOM      7  O   UNL d   1     -52.435  26.058  33.427  0.00  0.00    -0.266 OA
ATOM      8  C   UNL d   1     -51.443  24.124  33.353  0.00  0.00     0.181 A 
ATOM      9  C   UNL d   1     -52.760  24.305  33.341  0.00  0.00     0.123 A 
ATOM     10  N   UNL d   1     -50.654  24.349  33.375  0.00  0.00    -0.220 NA
ATOM     11  S   UNL d   1     -51.797  23.381  33.313  0.00  0.00    -0.049 SA
ATOM     12  C   UNL d   1     -50.453  25.148  33.415  0.00  0.00     0.111 A 
ATOM     13  C   UNL d   1     -52.620  23.499  33.306  0.00  0.00     0.043 A 
ENDBRANCH   1   4
BRANCH   3  14
ATOM     14  C   UNL d   1     -49.871  27.543  33.598  0.00  0.00     0.102 C 
BRANCH  14  15
ATOM     15  C   UNL d   1     -49.082  27.785  33.625  0.00  0.00     0.021 C 
BRANCH  15  16
ATOM     16  C   UNL d   1     -48.817  28.276  34.236  0.00  0.00     0.002 A 
ATOM     17  C   UNL d   1     -48.600  27.945  34.962  0.00  0.00     0.000 A 
ATOM     18  C   UNL d   1     -48.338  28.431  35.565  0.00  0.00     0.000 A 
ATOM     19  C   UNL d   1     -48.287  29.257  35.454  0.00  0.00     0.000 A 
ATOM     20  C   UNL d   1     -48.505  29.576  34.731  0.00  0.00     0.000 A 
ATOM     21  C   UNL d   1     -48.770  29.094  34.118  0.00  0.00     0.000 A 
ENDBRANCH  15  16
ENDBRANCH  14  15
ENDBRANCH   3  14
TORSDOF 4
ENDMDL
MODEL 2
REMARK VINA RESULT:      47.6      1.197      1.657
REMARK  4 active torsions:
REMARK  status: ('A' for Active; 'I' for Inactive)
REMARK    1  A    between atoms: C_7  and  C_3 
REMARK       I    between atoms: N_13  and  C_7 
REMARK    2  A    between atoms: C_14  and  N_13 
REMARK    3  A    between atoms: C_16  and  C_14 
REMARK    4  A    between atoms: C_15  and  C_16 
ROOT
ATOM      1  C   UNL d   1     -49.639  26.868  33.886  0.00  0.00     0.285 C 
ATOM      2  O   UNL d   1     -48.955  26.668  33.492  0.00  0.00    -0.265 OA
ATOM      3  N   UNL d   1     -49.640  27.483  34.431  0.00  0.00    -0.206 NA
ENDROOT
BRANCH   1   4
ATOM      4  C   UNL d   1     -50.342  26.455  33.744  0.00  0.00     0.133 A 
ATOM      5  C   UNL d   1     -50.319  25.633  33.671  0.00  0.00     0.272 A 
ATOM      6  N   UNL d   1     -51.016  25.207  33.529  0.00  0.00    -0.265 N 
ATOM      7  O   UNL d   1     -49.606  25.228  33.739  0.00  0.00    -0.266 OA
ATOM      8  C   UNL d   1     -51.729  25.613  33.462  0.00  0.00     0.181 A 
ATOM      9  C   UNL d   1     -51.163  24.410  33.433  0.00  0.00     0.123 A 
ATOM     10  N   UNL d   1     -51.753  26.431  33.534  0.00  0.00    -0.220 NA
ATOM     11  S   UNL d   1     -52.324  25.060  33.323  0.00  0.00    -0.049 SA
ATOM     12  C   UNL d   1     -51.059  26.854  33.675  0.00  0.00     0.111 A 
ATOM     13  C   UNL d   1     -51.965  24.310  33.306  0.00  0.00     0.043 A 
ENDBRANCH   1   4
BRANCH   3  14
ATOM     14  C   UNL d   1     -48.947  27.900  34.579  0.00  0.00     0.102 C 
BRANCH  14  15
ATOM     15  C   UNL d   1     -48.844  28.318  35.283  0.00  0.00     0.021 C 
BRANCH  15  16
ATOM     16  C   UNL d   1     -48.296  28.937  35.325  0.00  0.00     0.002 A 
ATOM     17  C   UNL d   1     -47.523  28.782  35.572  0.00  0.00     0.000 A 
ATOM     18  C   UNL d   1     -46.982  29.394  35.613  0.00  0.00     0.000 A 
ATOM     19  C   UNL d   1     -47.204  30.172  35.408  0.00  0.00     0.000 A 
ATOM     20  C   UNL d   1     -47.974  30.316  35.164  0.00  0.00     0.000 A 
ATOM     21  C   UNL d   1     -48.524  29.706  35.119  0.00  0.00     0.000 A 
ENDBRANCH  15  16
ENDBRANCH  14  15
ENDBRANCH   3  14
TORSDOF 4
ENDMDL
