MODEL 1
REMARK VINA RESULT:      -5.2      0.000      0.000
REMARK  4 active torsions:
REMARK  status: ('A' for Active; 'I' for Inactive)
REMARK    1  A    between atoms: N_7  and  C_3 
REMARK       I    between atoms: C_8  and  N_7 
REMARK    2  A    between atoms: C_10  and  C_8 
REMARK    3  A    between atoms: C_12  and  C_10 
REMARK    4  A    between atoms: C_16  and  C_12 
ROOT
ATOM      1  N   UNL d   1      57.994   0.009  30.569  0.00  0.00    -0.190 NA
ATOM      2  C   UNL d   1      57.510  -0.466  31.035  0.00  0.00     0.281 C 
ATOM      3  O   UNL d   1      57.560  -1.288  30.979  0.00  0.00    -0.265 OA
ENDROOT
BRANCH   1   4
ATOM      4  C   UNL d   1      58.531  -0.337  30.043  0.00  0.00     0.159 A 
ATOM      5  N   UNL d   1      59.272  -0.002  29.928  0.00  0.00    -0.241 N 
ATOM      6  C   UNL d   1      59.802  -0.345  29.409  0.00  0.00     0.343 A 
ATOM      7  C   UNL d   1      59.481   0.682  30.340  0.00  0.00     0.105 C 
ATOM      8  N   UNL d   1      59.593  -1.029  28.998  0.00  0.00    -0.224 N 
ATOM      9  O   UNL d   1      60.548  -0.007  29.295  0.00  0.00    -0.245 OA
ATOM     10  C   UNL d   1      58.852  -1.377  29.102  0.00  0.00     0.271 A 
ATOM     11  C   UNL d   1      60.129  -1.375  28.473  0.00  0.00     0.107 C 
ATOM     12  C   UNL d   1      58.322  -1.021  29.632  0.00  0.00     0.099 A 
ATOM     13  O   UNL d   1      58.645  -2.054  28.695  0.00  0.00    -0.266 OA
ENDBRANCH   1   4
BRANCH   2  14
ATOM     14  C   UNL d   1      56.975  -0.120  31.557  0.00  0.00     0.063 C 
BRANCH  14  15
ATOM     15  C   UNL d   1      56.585  -0.585  32.107  0.00  0.00     0.005 C 
BRANCH  15  16
ATOM     16  C   UNL d   1      56.221  -0.246  32.750  0.00  0.00     0.000 A 
ATOM     17  C   UNL d   1      55.435  -0.443  32.919  0.00  0.00     0.000 A 
ATOM     18  C   UNL d   1      55.052  -0.099  33.579  0.00  0.00     0.000 A 
ATOM     19  C   UNL d   1      55.459   0.426  34.046  0.00  0.00     0.000 A 
ATOM     20  C   UNL d   1      56.243   0.624  33.879  0.00  0.00     0.000 A 
ATOM     21  C   UNL d   1      56.624   0.281  33.222  0.00  0.00     0.000 A 
ENDBRANCH  15  16
ENDBRANCH  14  15
ENDBRANCH   2  14
TORSDOF 4
ENDMDL
MODEL 2
REMARK VINA RESULT:      -5.1      0.799      1.010
REMARK  4 active torsions:
REMARK  status: ('A' for Active; 'I' for Inactive)
REMARK    1  A    between atoms: N_7  and  C_3 
REMARK       I    between atoms: C_8  and  N_7 
REMARK    2  A    between atoms: C_10  and  C_8 
REMARK    3  A    between atoms: C_12  and  C_10 
REMARK    4  A    between atoms: C_16  and  C_12 
ROOT
ATOM      1  N   UNL d   1      57.984   0.621  31.079  0.00  0.00    -0.190 NA
ATOM      2  C   UNL d   1      57.388   0.147  31.392  0.00  0.00     0.281 C 
ATOM      3  O   UNL d   1      57.237  -0.595  31.066  0.00  0.00    -0.265 OA
ENDROOT
BRANCH   1   4
ATOM      4  C   UNL d   1      58.432   0.353  30.438  0.00  0.00     0.159 A 
ATOM      5  N   UNL d   1      59.253   0.383  30.463  0.00  0.00    -0.241 N 
ATOM      6  C   UNL d   1      59.695   0.118  29.829  0.00  0.00     0.343 A 
ATOM      7  C   UNL d   1      59.631   0.682  31.133  0.00  0.00     0.105 C 
ATOM      8  N   UNL d   1      59.316  -0.181  29.159  0.00  0.00    -0.224 N 
ATOM      9  O   UNL d   1      60.520   0.149  29.856  0.00  0.00    -0.245 OA
ATOM     10  C   UNL d   1      58.492  -0.218  29.118  0.00  0.00     0.271 A 
ATOM     11  C   UNL d   1      59.763  -0.449  28.518  0.00  0.00     0.107 C 
ATOM     12  C   UNL d   1      58.054   0.054  29.768  0.00  0.00     0.099 A 
ATOM     13  O   UNL d   1      58.118  -0.514  28.455  0.00  0.00    -0.266 OA
ENDBRANCH   1   4
BRANCH   2  14
ATOM     14  C   UNL d   1      56.943   0.416  32.030  0.00  0.00     0.063 C 
BRANCH  14  15
ATOM     15  C   UNL d   1      56.503  -0.116  32.472  0.00  0.00     0.005 C 
BRANCH  15  16
ATOM     16  C   UNL d   1      56.058   0.140  33.102  0.00  0.00     0.000 A 
ATOM     17  C   UNL d   1      56.435   0.311  33.819  0.00  0.00     0.000 A 
ATOM     18  C   UNL d   1      55.984   0.576  34.473  0.00  0.00     0.000 A 
ATOM     19  C   UNL d   1      55.181   0.661  34.394  0.00  0.00     0.000 A 
ATOM     20  C   UNL d   1      54.802   0.491  33.680  0.00  0.00     0.000 A 
ATOM     21  C   UNL d   1      55.252   0.228  33.029  0.00  0.00     0.000 A 
ENDBRANCH  15  16
ENDBRANCH  14  15
ENDBRANCH   2  14
TORSDOF 4
ENDMDL
MODEL 3
REMARK VINA RESULT:      -2.7      9.264      9.644
REMARK  4 active torsions:
REMARK  status: ('A' for Active; 'I' for Inactive)
REMARK    1  A    between atoms: N_7  and  C_3 
REMARK       I    between atoms: C_8  and  N_7 
REMARK    2  A    between atoms: C_10  and  C_8 
REMARK    3  A    between atoms: C_12  and  C_10 
REMARK    4  A    between atoms: C_16  and  C_12 
ROOT
ATOM      1  N   UNL d   1      59.145  -9.818  32.110  0.00  0.00    -0.190 NA
ATOM      2  C   UNL d   1      58.831  -9.567  32.827  0.00  0.00     0.281 C 
ATOM      3  O   UNL d   1      58.048  -9.312  32.869  0.00  0.00    -0.265 OA
ENDROOT
BRANCH   1   4
ATOM      4  C   UNL d   1      58.676  -9.815  31.428  0.00  0.00     0.159 A 
ATOM      5  N   UNL d   1      59.025  -9.810  30.685  0.00  0.00    -0.241 N 
ATOM      6  C   UNL d   1      58.561  -9.807  30.012  0.00  0.00     0.343 A 
ATOM      7  C   UNL d   1      59.847  -9.809  30.617  0.00  0.00     0.105 C 
ATOM      8  N   UNL d   1      57.738  -9.809  30.079  0.00  0.00    -0.224 N 
ATOM      9  O   UNL d   1      58.913  -9.803  29.265  0.00  0.00    -0.245 OA
ATOM     10  C   UNL d   1      57.372  -9.814  30.820  0.00  0.00     0.271 A 
ATOM     11  C   UNL d   1      57.268  -9.806  29.400  0.00  0.00     0.107 C 
ATOM     12  C   UNL d   1      57.854  -9.817  31.496  0.00  0.00     0.099 A 
ATOM     13  O   UNL d   1      56.558  -9.816  30.886  0.00  0.00    -0.266 OA
ENDBRANCH   1   4
BRANCH   2  14
ATOM     14  C   UNL d   1      59.300  -9.571  33.504  0.00  0.00     0.063 C 
BRANCH  14  15
ATOM     15  C   UNL d   1      58.972  -9.369  34.227  0.00  0.00     0.005 C 
BRANCH  15  16
ATOM     16  C   UNL d   1      59.449  -9.206  34.865  0.00  0.00     0.000 A 
ATOM     17  C   UNL d   1      59.558  -8.418  35.097  0.00  0.00     0.000 A 
ATOM     18  C   UNL d   1      60.047  -8.241  35.752  0.00  0.00     0.000 A 
ATOM     19  C   UNL d   1      60.408  -8.846  36.154  0.00  0.00     0.000 A 
ATOM     20  C   UNL d   1      60.302  -9.633  35.926  0.00  0.00     0.000 A 
ATOM     21  C   UNL d   1      59.814  -9.809  35.272  0.00  0.00     0.000 A 
ENDBRANCH  15  16
ENDBRANCH  14  15
ENDBRANCH   2  14
TORSDOF 4
ENDMDL
