MODEL 1
REMARK VINA RESULT:      -8.2      0.000      0.000
REMARK  5 active torsions:
REMARK  status: ('A' for Active; 'I' for Inactive)
REMARK    1  A    between atoms: C_6  and  S_1 
REMARK    2  A    between atoms: C_9  and  S_1 
REMARK    3  A    between atoms: C_2  and  S_11 
REMARK    4  A    between atoms: N_4  and  C_3 
REMARK    5  A    between atoms: S_11  and  C_10 
ROOT
ATOM      1  C   UNL d   1     -48.067  11.923  23.098  0.00  0.00     0.133 A 
ATOM      2  C   UNL d   1     -47.247  11.911  23.017  0.00  0.00     0.035 A 
ATOM      3  C   UNL d   1     -46.814  12.611  23.095  0.00  0.00     0.094 A 
ATOM      4  C   UNL d   1     -48.456  12.638  23.256  0.00  0.00     0.054 A 
ATOM      5  C   UNL d   1     -47.205  13.321  23.253  0.00  0.00     0.012 A 
ATOM      6  C   UNL d   1     -48.024  13.333  23.333  0.00  0.00     0.009 A 
ENDROOT
BRANCH   4   7
ATOM      7  S   UNL d   1     -49.277  12.652  23.337  0.00  0.00    -0.047 SA
BRANCH   7   8
ATOM      8  C   UNL d   1     -49.697  13.339  23.158  0.00  0.00     0.194 A 
ATOM      9  N   UNL d   1     -49.937  13.910  23.698  0.00  0.00    -0.220 NA
ATOM     10  C   UNL d   1     -50.338  14.500  23.280  0.00  0.00     0.101 A 
ATOM     11  C   UNL d   1     -50.696  15.195  23.521  0.00  0.00     0.021 A 
ATOM     12  C   UNL d   1     -50.339  14.282  22.483  0.00  0.00     0.101 A 
ATOM     13  C   UNL d   1     -51.059  15.683  22.970  0.00  0.00     0.002 A 
ATOM     14  C   UNL d   1     -51.064  15.470  22.169  0.00  0.00     0.002 A 
ATOM     15  C   UNL d   1     -50.703  14.769  21.928  0.00  0.00     0.021 A 
ATOM     16  N   UNL d   1     -49.945  13.569  22.409  0.00  0.00    -0.220 NA
ENDBRANCH   7   8
ENDBRANCH   4   7
BRANCH   1  17
ATOM     17  N   UNL d   1     -48.502  11.224  23.020  0.00  0.00    -0.113 N 
ATOM     18  O   UNL d   1     -48.489  10.808  22.308  0.00  0.00    -0.532 OA
ATOM     19  O   UNL d   1     -48.949  10.944  23.654  0.00  0.00    -0.532 OA
ENDBRANCH   1  17
BRANCH   3  20
ATOM     20  S   UNL d   1     -45.998  12.598  23.014  0.00  0.00     0.278 S 
ATOM     21  O   UNL d   1     -45.930  12.147  23.696  0.00  0.00    -0.213 OA
ATOM     22  O   UNL d   1     -45.178  12.585  22.935  0.00  0.00    -0.213 OA
BRANCH  20  23
ATOM     23  C   UNL d   1     -46.060  13.053  22.326  0.00  0.00     0.503 C 
ATOM     24  F   UNL d   1     -46.115  13.467  21.703  0.00  0.00    -0.157 F 
ATOM     25  F   UNL d   1     -46.010  13.910  22.234  0.00  0.00    -0.157 F 
ATOM     26  F   UNL d   1     -46.190  12.797  21.511  0.00  0.00    -0.157 F 
ENDBRANCH  20  23
ENDBRANCH   3  20
TORSDOF 5
ENDMDL
MODEL 2
REMARK VINA RESULT:      -7.7      2.601      4.553
REMARK  5 active torsions:
REMARK  status: ('A' for Active; 'I' for Inactive)
REMARK    1  A    between atoms: C_6  and  S_1 
REMARK    2  A    between atoms: C_9  and  S_1 
REMARK    3  A    between atoms: C_2  and  S_11 
REMARK    4  A    between atoms: N_4  and  C_3 
REMARK    5  A    between atoms: S_11  and  C_10 
ROOT
ATOM      1  C   UNL d   1     -48.910  14.217  22.633  0.00  0.00     0.133 A 
ATOM      2  C   UNL d   1     -49.618  13.922  22.329  0.00  0.00     0.035 A 
ATOM      3  C   UNL d   1     -49.654  13.147  22.045  0.00  0.00     0.094 A 
ATOM      4  C   UNL d   1     -48.237  13.734  22.653  0.00  0.00     0.054 A 
ATOM      5  C   UNL d   1     -48.981  12.669  22.068  0.00  0.00     0.012 A 
ATOM      6  C   UNL d   1     -48.275  12.963  22.371  0.00  0.00     0.009 A 
ENDROOT
BRANCH   4   7
ATOM      7  S   UNL d   1     -47.528  14.028  22.957  0.00  0.00    -0.047 SA
BRANCH   7   8
ATOM      8  C   UNL d   1     -46.820  13.632  22.806  0.00  0.00     0.194 A 
ATOM      9  N   UNL d   1     -46.266  13.838  22.236  0.00  0.00    -0.220 NA
ATOM     10  C   UNL d   1     -45.646  13.292  22.277  0.00  0.00     0.101 A 
ATOM     11  C   UNL d   1     -44.951  13.220  21.852  0.00  0.00     0.021 A 
ATOM     12  C   UNL d   1     -45.829  12.754  22.876  0.00  0.00     0.101 A 
ATOM     13  C   UNL d   1     -44.429  12.610  22.018  0.00  0.00     0.002 A 
ATOM     14  C   UNL d   1     -44.606  12.066  22.619  0.00  0.00     0.002 A 
ATOM     15  C   UNL d   1     -45.307  12.141  23.046  0.00  0.00     0.021 A 
ATOM     16  N   UNL d   1     -46.551  12.964  23.201  0.00  0.00    -0.220 NA
ENDBRANCH   7   8
ENDBRANCH   4   7
BRANCH   1  17
ATOM     17  N   UNL d   1     -48.872  14.992  22.917  0.00  0.00    -0.113 N 
ATOM     18  O   UNL d   1     -48.569  15.592  22.438  0.00  0.00    -0.532 OA
ATOM     19  O   UNL d   1     -49.137  15.167  23.678  0.00  0.00    -0.532 OA
ENDBRANCH   1  17
BRANCH   3  20
ATOM     20  S   UNL d   1     -50.358  12.854  21.743  0.00  0.00     0.278 S 
ATOM     21  O   UNL d   1     -50.233  13.257  21.039  0.00  0.00    -0.213 OA
ATOM     22  O   UNL d   1     -51.064  12.561  21.439  0.00  0.00    -0.213 OA
BRANCH  20  23
ATOM     23  C   UNL d   1     -50.490  12.445  22.450  0.00  0.00     0.503 C 
ATOM     24  F   UNL d   1     -50.609  12.073  23.091  0.00  0.00    -0.157 F 
ATOM     25  F   UNL d   1     -50.225  11.656  22.680  0.00  0.00    -0.157 F 
ATOM     26  F   UNL d   1     -50.929  12.693  23.152  0.00  0.00    -0.157 F 
ENDBRANCH  20  23
ENDBRANCH   3  20
TORSDOF 5
ENDMDL
MODEL 3
REMARK VINA RESULT:      -7.6      2.311      4.153
REMARK  5 active torsions:
REMARK  status: ('A' for Active; 'I' for Inactive)
REMARK    1  A    between atoms: C_6  and  S_1 
REMARK    2  A    between atoms: C_9  and  S_1 
REMARK    3  A    between atoms: C_2  and  S_11 
REMARK    4  A    between atoms: N_4  and  C_3 
REMARK    5  A    between atoms: S_11  and  C_10 
ROOT
ATOM      1  C   UNL d   1     -49.940  13.192  22.361  0.00  0.00     0.133 A 
ATOM      2  C   UNL d   1     -50.242  13.947  22.499  0.00  0.00     0.035 A 
ATOM      3  C   UNL d   1     -49.918  14.419  23.096  0.00  0.00     0.094 A 
ATOM      4  C   UNL d   1     -49.312  12.908  22.822  0.00  0.00     0.054 A 
ATOM      5  C   UNL d   1     -49.293  14.132  23.552  0.00  0.00     0.012 A 
ATOM      6  C   UNL d   1     -48.991  13.379  23.415  0.00  0.00     0.009 A 
ENDROOT
BRANCH   4   7
ATOM      7  S   UNL d   1     -49.008  12.153  22.685  0.00  0.00    -0.047 SA
BRANCH   7   8
ATOM      8  C   UNL d   1     -48.225  11.983  22.881  0.00  0.00     0.194 A 
ATOM      9  N   UNL d   1     -47.575  12.456  22.715  0.00  0.00    -0.220 NA
ATOM     10  C   UNL d   1     -46.902  12.074  23.009  0.00  0.00     0.101 A 
ATOM     11  C   UNL d   1     -46.111  12.279  23.005  0.00  0.00     0.021 A 
ATOM     12  C   UNL d   1     -47.151  11.367  23.355  0.00  0.00     0.101 A 
ATOM     13  C   UNL d   1     -45.555  11.781  23.346  0.00  0.00     0.002 A 
ATOM     14  C   UNL d   1     -45.798  11.069  23.695  0.00  0.00     0.002 A 
ATOM     15  C   UNL d   1     -46.597  10.864  23.698  0.00  0.00     0.021 A 
ATOM     16  N   UNL d   1     -47.964  11.311  23.275  0.00  0.00    -0.220 NA
ENDBRANCH   7   8
ENDBRANCH   4   7
BRANCH   1  17
ATOM     17  N   UNL d   1     -50.262  12.718  21.765  0.00  0.00    -0.113 N 
ATOM     18  O   UNL d   1     -50.871  12.190  21.943  0.00  0.00    -0.532 OA
ATOM     19  O   UNL d   1     -49.976  12.774  20.994  0.00  0.00    -0.532 OA
ENDBRANCH   1  17
BRANCH   3  20
ATOM     20  S   UNL d   1     -50.219  15.169  23.232  0.00  0.00     0.278 S 
ATOM     21  O   UNL d   1     -50.823  14.853  23.689  0.00  0.00    -0.213 OA
ATOM     22  O   UNL d   1     -50.522  15.922  23.370  0.00  0.00    -0.213 OA
BRANCH  20  23
ATOM     23  C   UNL d   1     -49.613  15.494  22.773  0.00  0.00     0.503 C 
ATOM     24  F   UNL d   1     -49.064  15.790  22.355  0.00  0.00    -0.157 F 
ATOM     25  F   UNL d   1     -49.633  15.754  21.950  0.00  0.00    -0.157 F 
ATOM     26  F   UNL d   1     -48.794  15.664  22.990  0.00  0.00    -0.157 F 
ENDBRANCH  20  23
ENDBRANCH   3  20
TORSDOF 5
ENDMDL
MODEL 4
REMARK VINA RESULT:      -7.0      2.277      4.116
REMARK  5 active torsions:
REMARK  status: ('A' for Active; 'I' for Inactive)
REMARK    1  A    between atoms: C_6  and  S_1 
REMARK    2  A    between atoms: C_9  and  S_1 
REMARK    3  A    between atoms: C_2  and  S_11 
REMARK    4  A    between atoms: N_4  and  C_3 
REMARK    5  A    between atoms: S_11  and  C_10 
ROOT
ATOM      1  C   UNL d   1     -49.776  13.080  22.574  0.00  0.00     0.133 A 
ATOM      2  C   UNL d   1     -50.254  13.744  22.676  0.00  0.00     0.035 A 
ATOM      3  C   UNL d   1     -49.967  14.401  23.088  0.00  0.00     0.094 A 
ATOM      4  C   UNL d   1     -49.007  13.074  22.884  0.00  0.00     0.054 A 
ATOM      5  C   UNL d   1     -49.200  14.390  23.395  0.00  0.00     0.012 A 
ATOM      6  C   UNL d   1     -48.723  13.728  23.293  0.00  0.00     0.009 A 
ENDROOT
BRANCH   4   7
ATOM      7  S   UNL d   1     -48.526  12.410  22.782  0.00  0.00    -0.047 SA
BRANCH   7   8
ATOM      8  C   UNL d   1     -47.708  12.499  22.725  0.00  0.00     0.194 A 
ATOM      9  N   UNL d   1     -47.147  12.054  23.127  0.00  0.00    -0.220 NA
ATOM     10  C   UNL d   1     -46.399  12.330  22.905  0.00  0.00     0.101 A 
ATOM     11  C   UNL d   1     -45.645  12.102  23.123  0.00  0.00     0.021 A 
ATOM     12  C   UNL d   1     -46.513  12.946  22.366  0.00  0.00     0.101 A 
ATOM     13  C   UNL d   1     -44.992  12.485  22.806  0.00  0.00     0.002 A 
ATOM     14  C   UNL d   1     -45.099  13.103  22.264  0.00  0.00     0.002 A 
ATOM     15  C   UNL d   1     -45.860  13.332  22.045  0.00  0.00     0.021 A 
ATOM     16  N   UNL d   1     -47.317  13.049  22.256  0.00  0.00    -0.220 NA
ENDBRANCH   7   8
ENDBRANCH   4   7
BRANCH   1  17
ATOM     17  N   UNL d   1     -50.061  12.422  22.163  0.00  0.00    -0.113 N 
ATOM     18  O   UNL d   1     -50.090  12.432  21.339  0.00  0.00    -0.532 OA
ATOM     19  O   UNL d   1     -50.317  11.757  22.577  0.00  0.00    -0.532 OA
ENDBRANCH   1  17
BRANCH   3  20
ATOM     20  S   UNL d   1     -50.443  15.060  23.189  0.00  0.00     0.278 S 
ATOM     21  O   UNL d   1     -50.931  14.640  23.697  0.00  0.00    -0.213 OA
ATOM     22  O   UNL d   1     -50.922  15.722  23.292  0.00  0.00    -0.213 OA
BRANCH  20  23
ATOM     23  C   UNL d   1     -49.955  15.490  22.678  0.00  0.00     0.503 C 
ATOM     24  F   UNL d   1     -49.513  15.880  22.213  0.00  0.00    -0.157 F 
ATOM     25  F   UNL d   1     -50.040  15.625  21.829  0.00  0.00    -0.157 F 
ATOM     26  F   UNL d   1     -49.226  15.922  22.851  0.00  0.00    -0.157 F 
ENDBRANCH  20  23
ENDBRANCH   3  20
TORSDOF 5
ENDMDL
MODEL 5
REMARK VINA RESULT:      -6.7      8.577      9.999
REMARK  5 active torsions:
REMARK  status: ('A' for Active; 'I' for Inactive)
REMARK    1  A    between atoms: C_6  and  S_1 
REMARK    2  A    between atoms: C_9  and  S_1 
REMARK    3  A    between atoms: C_2  and  S_11 
REMARK    4  A    between atoms: N_4  and  C_3 
REMARK    5  A    between atoms: S_11  and  C_10 
ROOT
ATOM      1  C   UNL d   1     -40.277  14.606  20.798  0.00  0.00     0.133 A 
ATOM      2  C   UNL d   1     -39.861  14.631  21.510  0.00  0.00     0.035 A 
ATOM      3  C   UNL d   1     -39.051  14.466  21.521  0.00  0.00     0.094 A 
ATOM      4  C   UNL d   1     -39.880  14.414  20.095  0.00  0.00     0.054 A 
ATOM      5  C   UNL d   1     -38.660  14.275  20.819  0.00  0.00     0.012 A 
ATOM      6  C   UNL d   1     -39.075  14.250  20.109  0.00  0.00     0.009 A 
ENDROOT
BRANCH   4   7
ATOM      7  S   UNL d   1     -40.295  14.388  19.382  0.00  0.00    -0.047 SA
BRANCH   7   8
ATOM      8  C   UNL d   1     -39.884  14.326  18.669  0.00  0.00     0.194 A 
ATOM      9  N   UNL d   1     -39.656  13.625  18.306  0.00  0.00    -0.220 NA
ATOM     10  C   UNL d   1     -39.260  13.821  17.606  0.00  0.00     0.101 A 
ATOM     11  C   UNL d   1     -38.914  13.360  17.026  0.00  0.00     0.021 A 
ATOM     12  C   UNL d   1     -39.249  14.645  17.550  0.00  0.00     0.101 A 
ATOM     13  C   UNL d   1     -38.552  13.714  16.381  0.00  0.00     0.002 A 
ATOM     14  C   UNL d   1     -38.538  14.541  16.318  0.00  0.00     0.002 A 
ATOM     15  C   UNL d   1     -38.888  15.004  16.904  0.00  0.00     0.021 A 
ATOM     16  N   UNL d   1     -39.633  14.954  18.203  0.00  0.00    -0.220 NA
ENDBRANCH   7   8
ENDBRANCH   4   7
BRANCH   1  17
ATOM     17  N   UNL d   1     -41.086  14.771  20.784  0.00  0.00    -0.113 N 
ATOM     18  O   UNL d   1     -41.633  14.154  20.822  0.00  0.00    -0.532 OA
ATOM     19  O   UNL d   1     -41.348  15.551  20.732  0.00  0.00    -0.532 OA
ENDBRANCH   1  17
BRANCH   3  20
ATOM     20  S   UNL d   1     -38.639  14.492  22.229  0.00  0.00     0.278 S 
ATOM     21  O   UNL d   1     -38.517  15.298  22.138  0.00  0.00    -0.213 OA
ATOM     22  O   UNL d   1     -38.224  14.518  22.940  0.00  0.00    -0.213 OA
BRANCH  20  23
ATOM     23  C   UNL d   1     -38.758  13.679  22.326  0.00  0.00     0.503 C 
ATOM     24  F   UNL d   1     -38.867  12.942  22.416  0.00  0.00    -0.157 F 
ATOM     25  F   UNL d   1     -39.380  13.268  22.763  0.00  0.00    -0.157 F 
ATOM     26  F   UNL d   1     -38.294  13.017  22.020  0.00  0.00    -0.157 F 
ENDBRANCH  20  23
ENDBRANCH   3  20
TORSDOF 5
ENDMDL
MODEL 6
REMARK VINA RESULT:      -6.3      9.688     10.576
REMARK  5 active torsions:
REMARK  status: ('A' for Active; 'I' for Inactive)
REMARK    1  A    between atoms: C_6  and  S_1 
REMARK    2  A    between atoms: C_9  and  S_1 
REMARK    3  A    between atoms: C_2  and  S_11 
REMARK    4  A    between atoms: N_4  and  C_3 
REMARK    5  A    between atoms: S_11  and  C_10 
ROOT
ATOM      1  C   UNL d   1     -39.051  14.022  17.845  0.00  0.00     0.133 A 
ATOM      2  C   UNL d   1     -39.481  14.400  17.252  0.00  0.00     0.035 A 
ATOM      3  C   UNL d   1     -39.760  15.169  17.370  0.00  0.00     0.094 A 
ATOM      4  C   UNL d   1     -38.899  14.415  18.559  0.00  0.00     0.054 A 
ATOM      5  C   UNL d   1     -39.607  15.557  18.084  0.00  0.00     0.012 A 
ATOM      6  C   UNL d   1     -39.178  15.179  18.675  0.00  0.00     0.009 A 
ENDROOT
BRANCH   4   7
ATOM      7  S   UNL d   1     -38.469  14.037  19.154  0.00  0.00    -0.047 SA
BRANCH   7   8
ATOM      8  C   UNL d   1     -38.514  14.311  19.931  0.00  0.00     0.194 A 
ATOM      9  N   UNL d   1     -38.011  14.862  20.276  0.00  0.00    -0.220 NA
ATOM     10  C   UNL d   1     -38.257  14.973  21.058  0.00  0.00     0.101 A 
ATOM     11  C   UNL d   1     -37.972  15.448  21.659  0.00  0.00     0.021 A 
ATOM     12  C   UNL d   1     -38.912  14.485  21.184  0.00  0.00     0.101 A 
ATOM     13  C   UNL d   1     -38.335  15.444  22.395  0.00  0.00     0.002 A 
ATOM     14  C   UNL d   1     -38.993  14.957  22.527  0.00  0.00     0.002 A 
ATOM     15  C   UNL d   1     -39.280  14.478  21.920  0.00  0.00     0.021 A 
ATOM     16  N   UNL d   1     -39.069  14.079  20.490  0.00  0.00    -0.220 NA
ENDBRANCH   7   8
ENDBRANCH   4   7
BRANCH   1  17
ATOM     17  N   UNL d   1     -38.771  13.253  17.729  0.00  0.00    -0.113 N 
ATOM     18  O   UNL d   1     -39.267  12.609  17.866  0.00  0.00    -0.532 OA
ATOM     19  O   UNL d   1     -37.996  13.130  17.475  0.00  0.00    -0.532 OA
ENDBRANCH   1  17
BRANCH   3  20
ATOM     20  S   UNL d   1     -40.187  15.545  16.780  0.00  0.00     0.278 S 
ATOM     21  O   UNL d   1     -39.500  15.671  16.351  0.00  0.00    -0.213 OA
ATOM     22  O   UNL d   1     -40.616  15.922  16.187  0.00  0.00    -0.213 OA
BRANCH  20  23
ATOM     23  C   UNL d   1     -40.884  15.421  17.208  0.00  0.00     0.503 C 
ATOM     24  F   UNL d   1     -41.517  15.307  17.595  0.00  0.00    -0.157 F 
ATOM     25  F   UNL d   1     -41.436  14.757  17.170  0.00  0.00    -0.157 F 
ATOM     26  F   UNL d   1     -41.253  15.919  17.809  0.00  0.00    -0.157 F 
ENDBRANCH  20  23
ENDBRANCH   3  20
TORSDOF 5
ENDMDL
MODEL 7
REMARK VINA RESULT:      -6.3      1.775      2.429
REMARK  5 active torsions:
REMARK  status: ('A' for Active; 'I' for Inactive)
REMARK    1  A    between atoms: C_6  and  S_1 
REMARK    2  A    between atoms: C_9  and  S_1 
REMARK    3  A    between atoms: C_2  and  S_11 
REMARK    4  A    between atoms: N_4  and  C_3 
REMARK    5  A    between atoms: S_11  and  C_10 
ROOT
ATOM      1  C   UNL d   1     -46.547  14.164  22.713  0.00  0.00     0.133 A 
ATOM      2  C   UNL d   1     -45.846  13.731  22.737  0.00  0.00     0.035 A 
ATOM      3  C   UNL d   1     -45.861  12.913  22.619  0.00  0.00     0.094 A 
ATOM      4  C   UNL d   1     -47.266  13.777  22.570  0.00  0.00     0.054 A 
ATOM      5  C   UNL d   1     -46.580  12.531  22.477  0.00  0.00     0.012 A 
ATOM      6  C   UNL d   1     -47.279  12.963  22.453  0.00  0.00     0.009 A 
ENDROOT
BRANCH   4   7
ATOM      7  S   UNL d   1     -47.969  14.209  22.546  0.00  0.00    -0.047 SA
BRANCH   7   8
ATOM      8  C   UNL d   1     -48.694  13.816  22.572  0.00  0.00     0.194 A 
ATOM      9  N   UNL d   1     -49.131  13.572  21.920  0.00  0.00    -0.220 NA
ATOM     10  C   UNL d   1     -49.817  13.203  22.200  0.00  0.00     0.101 A 
ATOM     11  C   UNL d   1     -50.449  12.856  21.814  0.00  0.00     0.021 A 
ATOM     12  C   UNL d   1     -49.792  13.227  23.026  0.00  0.00     0.101 A 
ATOM     13  C   UNL d   1     -51.064  12.527  22.246  0.00  0.00     0.002 A 
ATOM     14  C   UNL d   1     -51.045  12.548  23.074  0.00  0.00     0.002 A 
ATOM     15  C   UNL d   1     -50.407  12.898  23.462  0.00  0.00     0.021 A 
ATOM     16  N   UNL d   1     -49.101  13.604  23.253  0.00  0.00    -0.220 NA
ENDBRANCH   7   8
ENDBRANCH   4   7
BRANCH   1  17
ATOM     17  N   UNL d   1     -46.534  14.982  22.831  0.00  0.00    -0.113 N 
ATOM     18  O   UNL d   1     -46.464  15.287  23.594  0.00  0.00    -0.532 OA
ATOM     19  O   UNL d   1     -46.591  15.493  22.186  0.00  0.00    -0.532 OA
ENDBRANCH   1  17
BRANCH   3  20
ATOM     20  S   UNL d   1     -45.163  12.483  22.643  0.00  0.00     0.278 S 
ATOM     21  O   UNL d   1     -45.354  12.199  23.389  0.00  0.00    -0.213 OA
ATOM     22  O   UNL d   1     -44.463  12.051  22.668  0.00  0.00    -0.213 OA
BRANCH  20  23
ATOM     23  C   UNL d   1     -44.964  12.766  21.892  0.00  0.00     0.503 C 
ATOM     24  F   UNL d   1     -44.782  13.024  21.211  0.00  0.00    -0.157 F 
ATOM     25  F   UNL d   1     -44.380  13.363  21.672  0.00  0.00    -0.157 F 
ATOM     26  F   UNL d   1     -45.285  12.543  21.121  0.00  0.00    -0.157 F 
ENDBRANCH  20  23
ENDBRANCH   3  20
TORSDOF 5
ENDMDL
MODEL 8
REMARK VINA RESULT:      -6.0      8.174     10.506
REMARK  5 active torsions:
REMARK  status: ('A' for Active; 'I' for Inactive)
REMARK    1  A    between atoms: C_6  and  S_1 
REMARK    2  A    between atoms: C_9  and  S_1 
REMARK    3  A    between atoms: C_2  and  S_11 
REMARK    4  A    between atoms: N_4  and  C_3 
REMARK    5  A    between atoms: S_11  and  C_10 
ROOT
ATOM      1  C   UNL d   1     -39.051  14.683  20.416  0.00  0.00     0.133 A 
ATOM      2  C   UNL d   1     -39.757  14.918  20.773  0.00  0.00     0.035 A 
ATOM      3  C   UNL d   1     -40.462  14.905  20.342  0.00  0.00     0.094 A 
ATOM      4  C   UNL d   1     -39.052  14.435  19.625  0.00  0.00     0.054 A 
ATOM      5  C   UNL d   1     -40.458  14.657  19.554  0.00  0.00     0.012 A 
ATOM      6  C   UNL d   1     -39.754  14.423  19.198  0.00  0.00     0.009 A 
ENDROOT
BRANCH   4   7
ATOM      7  S   UNL d   1     -38.346  14.199  19.266  0.00  0.00    -0.047 SA
BRANCH   7   8
ATOM      8  C   UNL d   1     -38.293  14.171  18.444  0.00  0.00     0.194 A 
ATOM      9  N   UNL d   1     -38.373  13.498  17.980  0.00  0.00    -0.220 NA
ATOM     10  C   UNL d   1     -38.279  13.723  17.189  0.00  0.00     0.101 A 
ATOM     11  C   UNL d   1     -38.301  13.296  16.492  0.00  0.00     0.021 A 
ATOM     12  C   UNL d   1     -38.142  14.538  17.178  0.00  0.00     0.101 A 
ATOM     13  C   UNL d   1     -38.187  13.676  15.774  0.00  0.00     0.002 A 
ATOM     14  C   UNL d   1     -38.049  14.493  15.756  0.00  0.00     0.002 A 
ATOM     15  C   UNL d   1     -38.027  14.922  16.460  0.00  0.00     0.021 A 
ATOM     16  N   UNL d   1     -38.151  14.812  17.950  0.00  0.00    -0.220 NA
ENDBRANCH   7   8
ENDBRANCH   4   7
BRANCH   1  17
ATOM     17  N   UNL d   1     -38.345  14.695  20.845  0.00  0.00    -0.113 N 
ATOM     18  O   UNL d   1     -37.940  15.405  20.951  0.00  0.00    -0.532 OA
ATOM     19  O   UNL d   1     -38.046  13.997  21.168  0.00  0.00    -0.532 OA
ENDBRANCH   1  17
BRANCH   3  20
ATOM     20  S   UNL d   1     -41.163  15.138  20.697  0.00  0.00     0.278 S 
ATOM     21  O   UNL d   1     -41.009  15.921  20.506  0.00  0.00    -0.213 OA
ATOM     22  O   UNL d   1     -41.867  15.374  21.054  0.00  0.00    -0.213 OA
BRANCH  20  23
ATOM     23  C   UNL d   1     -41.324  14.351  20.893  0.00  0.00     0.503 C 
ATOM     24  F   UNL d   1     -41.470  13.637  21.073  0.00  0.00    -0.157 F 
ATOM     25  F   UNL d   1     -41.140  13.922  21.620  0.00  0.00    -0.157 F 
ATOM     26  F   UNL d   1     -41.722  13.742  20.427  0.00  0.00    -0.157 F 
ENDBRANCH  20  23
ENDBRANCH   3  20
TORSDOF 5
ENDMDL
MODEL 9
REMARK VINA RESULT:      -5.9      2.151      4.319
REMARK  5 active torsions:
REMARK  status: ('A' for Active; 'I' for Inactive)
REMARK    1  A    between atoms: C_6  and  S_1 
REMARK    2  A    between atoms: C_9  and  S_1 
REMARK    3  A    between atoms: C_2  and  S_11 
REMARK    4  A    between atoms: N_4  and  C_3 
REMARK    5  A    between atoms: S_11  and  C_10 
ROOT
ATOM      1  C   UNL d   1     -48.315  12.165  23.090  0.00  0.00     0.133 A 
ATOM      2  C   UNL d   1     -48.654  12.890  22.888  0.00  0.00     0.035 A 
ATOM      3  C   UNL d   1     -48.207  13.583  22.940  0.00  0.00     0.094 A 
ATOM      4  C   UNL d   1     -47.527  12.135  23.345  0.00  0.00     0.054 A 
ATOM      5  C   UNL d   1     -47.421  13.548  23.194  0.00  0.00     0.012 A 
ATOM      6  C   UNL d   1     -47.084  12.825  23.395  0.00  0.00     0.009 A 
ENDROOT
BRANCH   4   7
ATOM      7  S   UNL d   1     -47.187  11.410  23.547  0.00  0.00    -0.047 SA
BRANCH   7   8
ATOM      8  C   UNL d   1     -46.376  11.294  23.446  0.00  0.00     0.194 A 
ATOM      9  N   UNL d   1     -45.950  10.638  23.698  0.00  0.00    -0.220 NA
ATOM     10  C   UNL d   1     -45.159  10.753  23.482  0.00  0.00     0.101 A 
ATOM     11  C   UNL d   1     -44.492  10.293  23.585  0.00  0.00     0.021 A 
ATOM     12  C   UNL d   1     -45.111  11.483  23.098  0.00  0.00     0.101 A 
ATOM     13  C   UNL d   1     -43.765  10.554  23.307  0.00  0.00     0.002 A 
ATOM     14  C   UNL d   1     -43.710  11.286  22.921  0.00  0.00     0.002 A 
ATOM     15  C   UNL d   1     -44.384  11.749  22.818  0.00  0.00     0.021 A 
ATOM     16  N   UNL d   1     -45.859  11.814  23.077  0.00  0.00    -0.220 NA
ENDBRANCH   7   8
ENDBRANCH   4   7
BRANCH   1  17
ATOM     17  N   UNL d   1     -48.761  11.471  23.040  0.00  0.00    -0.113 N 
ATOM     18  O   UNL d   1     -48.775  11.041  22.336  0.00  0.00    -0.532 OA
ATOM     19  O   UNL d   1     -49.190  11.208  23.692  0.00  0.00    -0.532 OA
ENDBRANCH   1  17
BRANCH   3  20
ATOM     20  S   UNL d   1     -48.544  14.303  22.739  0.00  0.00     0.278 S 
ATOM     21  O   UNL d   1     -48.697  14.461  23.529  0.00  0.00    -0.213 OA
ATOM     22  O   UNL d   1     -48.882  15.026  22.538  0.00  0.00    -0.213 OA
BRANCH  20  23
ATOM     23  C   UNL d   1     -48.392  14.150  21.940  0.00  0.00     0.503 C 
ATOM     24  F   UNL d   1     -48.257  14.010  21.215  0.00  0.00    -0.157 F 
ATOM     25  F   UNL d   1     -48.947  13.942  21.311  0.00  0.00    -0.157 F 
ATOM     26  F   UNL d   1     -47.640  14.155  21.515  0.00  0.00    -0.157 F 
ENDBRANCH  20  23
ENDBRANCH   3  20
TORSDOF 5
ENDMDL
