MODEL 1
REMARK VINA RESULT:      -5.2      0.000      0.000
REMARK  6 active torsions:
REMARK  status: ('A' for Active; 'I' for Inactive)
REMARK    1  A    between atoms: N_5  and  S_1 
REMARK    2  A    between atoms: C_8  and  S_1 
REMARK    3  A    between atoms: C_2  and  C_14 
REMARK    4  A    between atoms: C_7  and  N_5 
REMARK    5  A    between atoms: C_6  and  C_7 
REMARK       I    between atoms: N_11  and  C_6 
REMARK    6  A    between atoms: C_19  and  N_11 
ROOT
ATOM      1  C   UNL d   1      58.249  -0.894  29.915  0.00  0.00     0.298 C 
ATOM      2  N   UNL d   1      58.168  -0.142  30.213  0.00  0.00    -0.207 NA
ATOM      3  O   UNL d   1      57.890  -1.537  30.296  0.00  0.00    -0.264 OA
ENDROOT
BRANCH   2   4
ATOM      4  C   UNL d   1      57.726  -0.015  30.898  0.00  0.00     0.085 A 
ATOM      5  C   UNL d   1      57.058  -0.474  31.037  0.00  0.00     0.019 A 
ATOM      6  C   UNL d   1      56.602  -0.359  31.726  0.00  0.00     0.004 A 
ATOM      7  C   UNL d   1      56.821   0.218  32.270  0.00  0.00     0.024 A 
ATOM      8  C   UNL d   1      57.491   0.680  32.132  0.00  0.00     0.004 A 
ATOM      9  C   UNL d   1      57.946   0.569  31.452  0.00  0.00     0.019 A 
BRANCH   7  10
ATOM     10  C   UNL d   1      56.358   0.324  32.951  0.00  0.00     0.111 A 
ATOM     11  N   UNL d   1      55.539   0.348  32.934  0.00  0.00    -0.239 NA
ATOM     12  C   UNL d   1      55.264   0.460  33.706  0.00  0.00     0.088 A 
ATOM     13  C   UNL d   1      54.507   0.527  34.020  0.00  0.00     0.020 A 
ATOM     14  C   UNL d   1      55.922   0.504  34.201  0.00  0.00     0.049 A 
ATOM     15  C   UNL d   1      54.406   0.638  34.830  0.00  0.00     0.002 A 
ATOM     16  C   UNL d   1      55.064   0.682  35.325  0.00  0.00     0.001 A 
ATOM     17  C   UNL d   1      55.823   0.615  35.011  0.00  0.00     0.008 A 
ATOM     18  S   UNL d   1      56.600   0.420  33.733  0.00  0.00    -0.066 SA
ENDBRANCH   7  10
ENDBRANCH   2   4
BRANCH   1  19
ATOM     19  C   UNL d   1      58.689  -1.028  29.230  0.00  0.00     0.151 C 
ATOM     20  C   UNL d   1      58.937  -0.400  28.759  0.00  0.00     0.027 C 
BRANCH  19  21
ATOM     21  N   UNL d   1      58.992  -1.690  28.826  0.00  0.00    -0.153 NA
BRANCH  21  22
ATOM     22  S   UNL d   1      59.799  -1.744  28.682  0.00  0.00     0.285 S 
ATOM     23  O   UNL d   1      59.851  -0.935  28.693  0.00  0.00    -0.198 OA
ATOM     24  O   UNL d   1      60.599  -1.795  28.539  0.00  0.00    -0.198 OA
BRANCH  22  25
ATOM     25  C   UNL d   1      59.736  -2.571  28.673  0.00  0.00     0.106 A 
ATOM     26  C   UNL d   1      60.388  -3.042  28.862  0.00  0.00     0.024 A 
ATOM     27  C   UNL d   1      60.311  -3.877  28.849  0.00  0.00     0.059 A 
ATOM     28 CL   UNL d   1      60.967  -4.348  29.039  0.00  0.00    -0.082 Cl
ATOM     29  C   UNL d   1      59.591  -4.224  28.649  0.00  0.00     0.011 A 
ATOM     30  C   UNL d   1      58.944  -3.751  28.461  0.00  0.00     0.002 A 
ATOM     31  C   UNL d   1      59.020  -2.916  28.474  0.00  0.00     0.013 A 
ENDBRANCH  22  25
ENDBRANCH  21  22
ENDBRANCH  19  21
ENDBRANCH   1  19
TORSDOF 6
ENDMDL
