MODEL 1
REMARK VINA RESULT:      -8.2      0.000      0.000
REMARK  4 active torsions:
REMARK  status: ('A' for Active; 'I' for Inactive)
REMARK    1  A    between atoms: C_5  and  N_1 
REMARK    2  A    between atoms: C_9  and  C_3 
REMARK    3  A    between atoms: C_7  and  C_5 
REMARK    4  A    between atoms: O_10  and  C_8 
ROOT
ATOM      1  N   UNL d   1      53.093  32.132  53.685  0.00  0.00    -0.289 N 
ATOM      2  N   UNL d   1      52.346  31.782  52.615  0.00  0.00    -0.227 NA
ATOM      3  C   UNL d   1      52.596  32.429  53.084  0.00  0.00     0.148 A 
ATOM      4  C   UNL d   1      53.153  31.304  53.590  0.00  0.00     0.083 A 
ATOM      5  C   UNL d   1      52.691  31.086  52.928  0.00  0.00     0.099 A 
ATOM      6  C   UNL d   1      53.561  30.711  54.009  0.00  0.00     0.019 A 
ATOM      7  C   UNL d   1      52.641  30.297  52.694  0.00  0.00     0.021 A 
ATOM      8  C   UNL d   1      53.512  29.918  53.775  0.00  0.00     0.002 A 
ATOM      9  C   UNL d   1      53.053  29.712  53.119  0.00  0.00     0.002 A 
ENDROOT
BRANCH   1  10
ATOM     10  C   UNL d   1      53.467  32.571  54.276  0.00  0.00     0.083 C 
BRANCH  10  11
ATOM     11  C   UNL d   1      54.203  32.897  54.150  0.00  0.00     0.040 A 
ATOM     12  C   UNL d   1      54.591  33.273  54.762  0.00  0.00     0.096 A 
ATOM     13  C   UNL d   1      55.336  33.603  54.636  0.00  0.00     0.024 A 
ATOM     14  C   UNL d   1      55.690  33.552  53.891  0.00  0.00     0.002 A 
ATOM     15  C   UNL d   1      55.297  33.172  53.275  0.00  0.00     0.000 A 
ATOM     16  C   UNL d   1      54.553  32.844  53.406  0.00  0.00     0.004 A 
BRANCH  12  17
ATOM     17  O   UNL d   1      54.241  33.324  55.500  0.00  0.00    -0.328 OA
ATOM     18  C   UNL d   1      54.638  33.689  56.128  0.00  0.00     0.181 C 
ENDBRANCH  12  17
ENDBRANCH  10  11
ENDBRANCH   1  10
BRANCH   3  19
ATOM     19  C   UNL d   1      52.387  33.217  52.972  0.00  0.00     0.037 C 
ATOM     20  C   UNL d   1      51.667  33.403  52.619  0.00  0.00     0.003 C 
ENDBRANCH   3  19
TORSDOF 4
ENDMDL
MODEL 2
REMARK VINA RESULT:      -8.1      0.889      2.547
REMARK  4 active torsions:
REMARK  status: ('A' for Active; 'I' for Inactive)
REMARK    1  A    between atoms: C_5  and  N_1 
REMARK    2  A    between atoms: C_9  and  C_3 
REMARK    3  A    between atoms: C_7  and  C_5 
REMARK    4  A    between atoms: O_10  and  C_8 
ROOT
ATOM      1  N   UNL d   1      52.820  32.597  53.151  0.00  0.00    -0.289 N 
ATOM      2  N   UNL d   1      51.624  31.972  53.095  0.00  0.00    -0.227 NA
ATOM      3  C   UNL d   1      52.449  31.851  53.178  0.00  0.00     0.148 A 
ATOM      4  C   UNL d   1      52.230  33.181  53.051  0.00  0.00     0.083 A 
ATOM      5  C   UNL d   1      51.489  32.795  53.016  0.00  0.00     0.099 A 
ATOM      6  C   UNL d   1      52.256  34.011  52.987  0.00  0.00     0.019 A 
ATOM      7  C   UNL d   1      50.795  33.229  52.919  0.00  0.00     0.021 A 
ATOM      8  C   UNL d   1      51.560  34.448  52.889  0.00  0.00     0.002 A 
ATOM      9  C   UNL d   1      50.831  34.058  52.856  0.00  0.00     0.002 A 
ENDROOT
BRANCH   1  10
ATOM     10  C   UNL d   1      53.630  32.746  53.211  0.00  0.00     0.083 C 
BRANCH  10  11
ATOM     11  C   UNL d   1      53.971  32.908  53.934  0.00  0.00     0.040 A 
ATOM     12  C   UNL d   1      54.758  33.123  53.973  0.00  0.00     0.096 A 
ATOM     13  C   UNL d   1      55.103  33.287  54.704  0.00  0.00     0.024 A 
ATOM     14  C   UNL d   1      54.655  33.235  55.395  0.00  0.00     0.002 A 
ATOM     15  C   UNL d   1      53.861  33.018  55.353  0.00  0.00     0.000 A 
ATOM     16  C   UNL d   1      53.520  32.855  54.622  0.00  0.00     0.004 A 
BRANCH  12  17
ATOM     17  O   UNL d   1      55.203  33.175  53.289  0.00  0.00    -0.328 OA
ATOM     18  C   UNL d   1      55.937  33.558  53.295  0.00  0.00     0.181 C 
ENDBRANCH  12  17
ENDBRANCH  10  11
ENDBRANCH   1  10
BRANCH   3  19
ATOM     19  C   UNL d   1      52.824  31.124  53.270  0.00  0.00     0.037 C 
ATOM     20  C   UNL d   1      52.487  30.446  52.947  0.00  0.00     0.003 C 
ENDBRANCH   3  19
TORSDOF 4
ENDMDL
MODEL 3
REMARK VINA RESULT:      -8.1      1.405      3.613
REMARK  4 active torsions:
REMARK  status: ('A' for Active; 'I' for Inactive)
REMARK    1  A    between atoms: C_5  and  N_1 
REMARK    2  A    between atoms: C_9  and  C_3 
REMARK    3  A    between atoms: C_7  and  C_5 
REMARK    4  A    between atoms: O_10  and  C_8 
ROOT
ATOM      1  N   UNL d   1      53.075  32.786  53.340  0.00  0.00    -0.289 N 
ATOM      2  N   UNL d   1      53.611  31.792  54.081  0.00  0.00    -0.227 NA
ATOM      3  C   UNL d   1      53.120  31.958  53.423  0.00  0.00     0.148 A 
ATOM      4  C   UNL d   1      53.537  33.136  53.943  0.00  0.00     0.083 A 
ATOM      5  C   UNL d   1      53.869  32.521  54.402  0.00  0.00     0.099 A 
ATOM      6  C   UNL d   1      53.706  33.926  54.144  0.00  0.00     0.019 A 
ATOM      7  C   UNL d   1      54.357  32.695  55.044  0.00  0.00     0.021 A 
ATOM      8  C   UNL d   1      54.195  34.102  54.788  0.00  0.00     0.002 A 
ATOM      9  C   UNL d   1      54.520  33.488  55.237  0.00  0.00     0.002 A 
ENDROOT
BRANCH   1  10
ATOM     10  C   UNL d   1      52.651  33.201  52.765  0.00  0.00     0.083 C 
BRANCH  10  11
ATOM     11  C   UNL d   1      51.882  33.434  52.903  0.00  0.00     0.040 A 
ATOM     12  C   UNL d   1      51.506  33.925  52.371  0.00  0.00     0.096 A 
ATOM     13  C   UNL d   1      50.728  34.163  52.509  0.00  0.00     0.024 A 
ATOM     14  C   UNL d   1      50.330  33.904  53.185  0.00  0.00     0.002 A 
ATOM     15  C   UNL d   1      50.712  33.408  53.721  0.00  0.00     0.000 A 
ATOM     16  C   UNL d   1      51.489  33.174  53.579  0.00  0.00     0.004 A 
BRANCH  12  17
ATOM     17  O   UNL d   1      51.898  34.183  51.701  0.00  0.00    -0.328 OA
ATOM     18  C   UNL d   1      51.480  34.531  51.077  0.00  0.00     0.181 C 
ENDBRANCH  12  17
ENDBRANCH  10  11
ENDBRANCH   1  10
BRANCH   3  19
ATOM     19  C   UNL d   1      52.747  31.400  52.945  0.00  0.00     0.037 C 
ATOM     20  C   UNL d   1      52.994  30.615  52.965  0.00  0.00     0.003 C 
ENDBRANCH   3  19
TORSDOF 4
ENDMDL
MODEL 4
REMARK VINA RESULT:      -7.9      1.299      2.787
REMARK  4 active torsions:
REMARK  status: ('A' for Active; 'I' for Inactive)
REMARK    1  A    between atoms: C_5  and  N_1 
REMARK    2  A    between atoms: C_9  and  C_3 
REMARK    3  A    between atoms: C_7  and  C_5 
REMARK    4  A    between atoms: O_10  and  C_8 
ROOT
ATOM      1  N   UNL d   1      52.966  32.549  53.929  0.00  0.00    -0.289 N 
ATOM      2  N   UNL d   1      54.185  32.042  54.216  0.00  0.00    -0.227 NA
ATOM      3  C   UNL d   1      53.688  32.709  54.315  0.00  0.00     0.148 A 
ATOM      4  C   UNL d   1      53.013  31.785  53.592  0.00  0.00     0.083 A 
ATOM      5  C   UNL d   1      53.767  31.471  53.769  0.00  0.00     0.099 A 
ATOM      6  C   UNL d   1      52.479  31.326  53.148  0.00  0.00     0.019 A 
ATOM      7  C   UNL d   1      53.979  30.718  53.508  0.00  0.00     0.021 A 
ATOM      8  C   UNL d   1      52.690  30.570  52.885  0.00  0.00     0.002 A 
ATOM      9  C   UNL d   1      53.438  30.266  53.064  0.00  0.00     0.002 A 
ENDROOT
BRANCH   1  10
ATOM     10  C   UNL d   1      52.312  33.050  53.883  0.00  0.00     0.083 C 
BRANCH  10  11
ATOM     11  C   UNL d   1      52.225  33.564  53.255  0.00  0.00     0.040 A 
ATOM     12  C   UNL d   1      51.480  33.816  53.037  0.00  0.00     0.096 A 
ATOM     13  C   UNL d   1      51.391  34.335  52.403  0.00  0.00     0.024 A 
ATOM     14  C   UNL d   1      52.055  34.600  51.989  0.00  0.00     0.002 A 
ATOM     15  C   UNL d   1      52.805  34.344  52.210  0.00  0.00     0.000 A 
ATOM     16  C   UNL d   1      52.890  33.826  52.845  0.00  0.00     0.004 A 
BRANCH  12  17
ATOM     17  O   UNL d   1      50.822  33.554  53.447  0.00  0.00    -0.328 OA
ATOM     18  C   UNL d   1      50.077  33.881  53.296  0.00  0.00     0.181 C 
ENDBRANCH  12  17
ENDBRANCH  10  11
ENDBRANCH   1  10
BRANCH   3  19
ATOM     19  C   UNL d   1      53.880  33.400  54.720  0.00  0.00     0.037 C 
ATOM     20  C   UNL d   1      54.510  33.401  55.250  0.00  0.00     0.003 C 
ENDBRANCH   3  19
TORSDOF 4
ENDMDL
MODEL 5
REMARK VINA RESULT:      -7.3      1.094      3.273
REMARK  4 active torsions:
REMARK  status: ('A' for Active; 'I' for Inactive)
REMARK    1  A    between atoms: C_5  and  N_1 
REMARK    2  A    between atoms: C_9  and  C_3 
REMARK    3  A    between atoms: C_7  and  C_5 
REMARK    4  A    between atoms: O_10  and  C_8 
ROOT
ATOM      1  N   UNL d   1      53.086  32.640  53.841  0.00  0.00    -0.289 N 
ATOM      2  N   UNL d   1      53.580  33.839  53.463  0.00  0.00    -0.227 NA
ATOM      3  C   UNL d   1      53.785  33.089  53.774  0.00  0.00     0.148 A 
ATOM      4  C   UNL d   1      52.447  33.107  53.573  0.00  0.00     0.083 A 
ATOM      5  C   UNL d   1      52.751  33.850  53.339  0.00  0.00     0.099 A 
ATOM      6  C   UNL d   1      51.629  32.968  53.507  0.00  0.00     0.019 A 
ATOM      7  C   UNL d   1      52.249  34.435  53.047  0.00  0.00     0.021 A 
ATOM      8  C   UNL d   1      51.123  33.555  53.214  0.00  0.00     0.002 A 
ATOM      9  C   UNL d   1      51.432  34.286  52.984  0.00  0.00     0.002 A 
ENDROOT
BRANCH   1  10
ATOM     10  C   UNL d   1      53.024  31.866  54.122  0.00  0.00     0.083 C 
BRANCH  10  11
ATOM     11  C   UNL d   1      53.083  31.232  53.613  0.00  0.00     0.040 A 
ATOM     12  C   UNL d   1      53.148  30.475  53.913  0.00  0.00     0.096 A 
ATOM     13  C   UNL d   1      53.208  29.833  53.399  0.00  0.00     0.024 A 
ATOM     14  C   UNL d   1      53.201  29.955  52.582  0.00  0.00     0.002 A 
ATOM     15  C   UNL d   1      53.135  30.719  52.282  0.00  0.00     0.000 A 
ATOM     16  C   UNL d   1      53.075  31.358  52.799  0.00  0.00     0.004 A 
BRANCH  12  17
ATOM     17  O   UNL d   1      53.155  30.353  54.722  0.00  0.00    -0.328 OA
ATOM     18  C   UNL d   1      53.165  29.585  55.030  0.00  0.00     0.181 C 
ENDBRANCH  12  17
ENDBRANCH  10  11
ENDBRANCH   1  10
BRANCH   3  19
ATOM     19  C   UNL d   1      54.544  32.841  53.976  0.00  0.00     0.037 C 
ATOM     20  C   UNL d   1      55.084  33.383  54.281  0.00  0.00     0.003 C 
ENDBRANCH   3  19
TORSDOF 4
ENDMDL
MODEL 6
REMARK VINA RESULT:      -6.8      1.268      3.349
REMARK  4 active torsions:
REMARK  status: ('A' for Active; 'I' for Inactive)
REMARK    1  A    between atoms: C_5  and  N_1 
REMARK    2  A    between atoms: C_9  and  C_3 
REMARK    3  A    between atoms: C_7  and  C_5 
REMARK    4  A    between atoms: O_10  and  C_8 
ROOT
ATOM      1  N   UNL d   1      53.212  32.618  53.658  0.00  0.00    -0.289 N 
ATOM      2  N   UNL d   1      52.615  33.700  54.205  0.00  0.00    -0.227 NA
ATOM      3  C   UNL d   1      52.486  33.024  53.727  0.00  0.00     0.148 A 
ATOM      4  C   UNL d   1      53.790  33.039  54.090  0.00  0.00     0.083 A 
ATOM      5  C   UNL d   1      53.422  33.709  54.429  0.00  0.00     0.099 A 
ATOM      6  C   UNL d   1      54.602  32.912  54.228  0.00  0.00     0.019 A 
ATOM      7  C   UNL d   1      53.856  34.236  54.892  0.00  0.00     0.021 A 
ATOM      8  C   UNL d   1      55.039  33.441  54.692  0.00  0.00     0.002 A 
ATOM      9  C   UNL d   1      54.667  34.101  55.024  0.00  0.00     0.002 A 
ENDROOT
BRANCH   1  10
ATOM     10  C   UNL d   1      53.347  31.920  53.237  0.00  0.00     0.083 C 
BRANCH  10  11
ATOM     11  C   UNL d   1      53.274  31.194  53.602  0.00  0.00     0.040 A 
ATOM     12  C   UNL d   1      53.180  30.521  53.150  0.00  0.00     0.096 A 
ATOM     13  C   UNL d   1      53.107  29.786  53.516  0.00  0.00     0.024 A 
ATOM     14  C   UNL d   1      53.128  29.731  54.340  0.00  0.00     0.002 A 
ATOM     15  C   UNL d   1      53.223  30.412  54.794  0.00  0.00     0.000 A 
ATOM     16  C   UNL d   1      53.296  31.144  54.424  0.00  0.00     0.004 A 
BRANCH  12  17
ATOM     17  O   UNL d   1      53.159  30.574  52.333  0.00  0.00    -0.328 OA
ATOM     18  C   UNL d   1      53.085  29.892  51.871  0.00  0.00     0.181 C 
ENDBRANCH  12  17
ENDBRANCH  10  11
ENDBRANCH   1  10
BRANCH   3  19
ATOM     19  C   UNL d   1      51.771  32.801  53.387  0.00  0.00     0.037 C 
ATOM     20  C   UNL d   1      51.168  33.356  53.302  0.00  0.00     0.003 C 
ENDBRANCH   3  19
TORSDOF 4
ENDMDL
