MODEL 1
REMARK VINA RESULT:      93.4      0.000      0.000
REMARK  8 active torsions:
REMARK  status: ('A' for Active; 'I' for Inactive)
REMARK    1  A    between atoms: C_11  and  N_1 
REMARK    2  A    between atoms: S_10  and  C_2 
REMARK    3  A    between atoms: N_8  and  C_9 
REMARK    4  A    between atoms: C_18  and  S_10 
REMARK    5  A    between atoms: C_19  and  C_11 
REMARK    6  A    between atoms: C_13  and  C_18 
REMARK    7  A    between atoms: O_20  and  C_13 
REMARK    8  A    between atoms: C_25  and  O_20 
ROOT
ATOM      1  N   UNL d   1     -55.470 -99.915 -43.377  0.00  0.00    -0.253 N 
ATOM      2  C   UNL d   1     -55.044-100.389 -43.887  0.00  0.00     0.182 A 
ATOM      3  C   UNL d   1     -55.653-100.186 -42.609  0.00  0.00     0.268 A 
ATOM      4  C   UNL d   1     -55.391-100.954 -42.368  0.00  0.00     0.076 A 
ATOM      5  N   UNL d   1     -54.782-101.156 -43.646  0.00  0.00    -0.222 NA
ATOM      6  C   UNL d   1     -54.958-101.431 -42.890  0.00  0.00     0.088 A 
ATOM      7  C   UNL d   1     -55.577-101.221 -41.597  0.00  0.00     0.024 A 
ATOM      8  C   UNL d   1     -55.320-101.971 -41.366  0.00  0.00     0.065 A 
ATOM      9  O   UNL d   1     -56.084 -99.711 -42.088  0.00  0.00    -0.267 OA
ATOM     10  C   UNL d   1     -54.711-102.175 -42.642  0.00  0.00     0.021 A 
ATOM     11  C   UNL d   1     -54.887-102.451 -41.885  0.00  0.00     0.019 A 
ENDROOT
BRANCH   1  12
ATOM     12  C   UNL d   1     -55.724 -99.169 -43.611  0.00  0.00     0.085 C 
BRANCH  12  13
ATOM     13  C   UNL d   1     -56.524 -99.032 -43.752  0.00  0.00     0.018 A 
ATOM     14  C   UNL d   1     -56.792 -98.940 -44.521  0.00  0.00     0.002 A 
ATOM     15  C   UNL d   1     -57.596 -98.802 -44.654  0.00  0.00     0.000 A 
ATOM     16  C   UNL d   1     -58.117 -98.759 -44.019  0.00  0.00     0.000 A 
ATOM     17  C   UNL d   1     -57.847 -98.852 -43.251  0.00  0.00     0.000 A 
ATOM     18  C   UNL d   1     -57.045 -98.989 -43.118  0.00  0.00     0.002 A 
ENDBRANCH  12  13
ENDBRANCH   1  12
BRANCH   2  19
ATOM     19  S   UNL d   1     -54.864-100.124 -44.641  0.00  0.00    -0.044 SA
BRANCH  19  20
ATOM     20  C   UNL d   1     -55.357-100.306 -45.271  0.00  0.00     0.107 C 
BRANCH  20  21
ATOM     21  C   UNL d   1     -55.384-101.077 -45.578  0.00  0.00     0.307 C 
ATOM     22  O   UNL d   1     -55.963-101.292 -46.117  0.00  0.00    -0.258 OA
BRANCH  21  23
ATOM     23  O   UNL d   1     -54.825-101.624 -45.337  0.00  0.00    -0.271 OA
BRANCH  23  24
ATOM     24  C   UNL d   1     -54.713-102.315 -45.771  0.00  0.00     0.126 C 
ATOM     25  C   UNL d   1     -55.319-102.880 -45.822  0.00  0.00     0.029 C 
ENDBRANCH  23  24
ENDBRANCH  21  23
ENDBRANCH  20  21
ENDBRANCH  19  20
ENDBRANCH   2  19
BRANCH   8  26
ATOM     26  N   UNL d   1     -55.497-102.243 -40.610  0.00  0.00    -0.300 N 
ATOM     27  C   UNL d   1     -56.219-102.606 -40.460  0.00  0.00     0.107 A 
ATOM     28  C   UNL d   1     -56.396-102.879 -39.698  0.00  0.00     0.142 A 
ATOM     29  O   UNL d   1     -55.848-102.786 -39.092  0.00  0.00    -0.300 OA
ATOM     30  C   UNL d   1     -55.128-102.423 -39.241  0.00  0.00     0.142 A 
ATOM     31  C   UNL d   1     -54.950-102.152 -39.993  0.00  0.00     0.107 A 
ENDBRANCH   8  26
TORSDOF 8
ENDMDL
