MODEL 1
REMARK VINA RESULT:      62.7      0.000      0.000
REMARK  5 active torsions:
REMARK  status: ('A' for Active; 'I' for Inactive)
REMARK    1  A    between atoms: C_12  and  N_3 
REMARK    2  A    between atoms: C_10  and  N_7 
REMARK    3  A    between atoms: C_11  and  C_10 
REMARK    4  A    between atoms: C_15  and  C_11 
REMARK    5  A    between atoms: C_16  and  C_12 
ROOT
ATOM      1  C   UNL d   1     -54.821-101.484 -40.398  0.00  0.00     0.191 A 
ATOM      2  C   UNL d   1     -54.840-100.651 -40.446  0.00  0.00     0.196 A 
ATOM      3  N   UNL d   1     -54.866-101.687 -39.594  0.00  0.00    -0.191 N 
ATOM      4  N   UNL d   1     -54.767-101.928 -41.082  0.00  0.00    -0.204 NA
ATOM      5  N   UNL d   1     -54.896-100.359 -39.670  0.00  0.00    -0.122 NA
ATOM      6  N   UNL d   1     -54.911-100.993 -39.164  0.00  0.00    -0.058 NA
ATOM      7  N   UNL d   1     -54.749-100.732 -41.870  0.00  0.00    -0.251 N 
ATOM      8  C   UNL d   1     -54.804-100.287 -41.177  0.00  0.00     0.289 A 
ATOM      9  C   UNL d   1     -54.731-101.564 -41.822  0.00  0.00     0.187 A 
ATOM     10  O   UNL d   1     -54.823 -99.455 -41.225  0.00  0.00    -0.265 OA
ENDROOT
BRANCH   7  11
ATOM     11  C   UNL d   1     -54.712-100.368 -42.617  0.00  0.00     0.127 C 
BRANCH  11  12
ATOM     12  C   UNL d   1     -55.240-100.591 -43.222  0.00  0.00     0.213 C 
ATOM     13  O   UNL d   1     -55.451-101.385 -43.311  0.00  0.00    -0.285 OA
BRANCH  12  14
ATOM     14  C   UNL d   1     -55.544-100.018 -43.725  0.00  0.00     0.041 A 
ATOM     15  C   UNL d   1     -55.144 -99.820 -44.419  0.00  0.00     0.003 A 
ATOM     16  C   UNL d   1     -55.442 -99.252 -44.921  0.00  0.00     0.000 A 
ATOM     17  C   UNL d   1     -56.153 -98.871 -44.731  0.00  0.00     0.000 A 
ATOM     18  C   UNL d   1     -56.553 -99.069 -44.037  0.00  0.00     0.000 A 
ATOM     19  C   UNL d   1     -56.254 -99.637 -43.536  0.00  0.00     0.003 A 
ENDBRANCH  12  14
ENDBRANCH  11  12
ENDBRANCH   7  11
BRANCH   3  20
ATOM     20  C   UNL d   1     -54.866-102.462 -39.277  0.00  0.00     0.104 C 
BRANCH  20  21
ATOM     21  C   UNL d   1     -55.197-102.603 -38.526  0.00  0.00     0.019 A 
ATOM     22  C   UNL d   1     -54.711-102.709 -37.868  0.00  0.00     0.002 A 
ATOM     23  C   UNL d   1     -55.052-102.845 -37.144  0.00  0.00     0.000 A 
ATOM     24  C   UNL d   1     -55.861-102.879 -37.050  0.00  0.00     0.000 A 
ATOM     25  C   UNL d   1     -56.360-102.770 -37.727  0.00  0.00     0.000 A 
ATOM     26  C   UNL d   1     -56.017-102.633 -38.459  0.00  0.00     0.002 A 
ENDBRANCH  20  21
ENDBRANCH   3  20
TORSDOF 5
ENDMDL
MODEL 2
REMARK VINA RESULT:      63.5      0.988      5.470
REMARK  5 active torsions:
REMARK  status: ('A' for Active; 'I' for Inactive)
REMARK    1  A    between atoms: C_12  and  N_3 
REMARK    2  A    between atoms: C_10  and  N_7 
REMARK    3  A    between atoms: C_11  and  C_10 
REMARK    4  A    between atoms: C_15  and  C_11 
REMARK    5  A    between atoms: C_16  and  C_12 
ROOT
ATOM      1  C   UNL d   1     -54.814-100.645 -42.331  0.00  0.00     0.191 A 
ATOM      2  C   UNL d   1     -54.779-100.156 -41.655  0.00  0.00     0.196 A 
ATOM      3  N   UNL d   1     -54.841-100.147 -42.995  0.00  0.00    -0.191 N 
ATOM      4  N   UNL d   1     -54.816-101.457 -42.243  0.00  0.00    -0.204 NA
ATOM      5  N   UNL d   1     -54.785 -99.368 -41.918  0.00  0.00    -0.122 NA
ATOM      6  N   UNL d   1     -54.823 -99.374 -42.729  0.00  0.00    -0.058 NA
ATOM      7  N   UNL d   1     -54.749-101.315 -40.819  0.00  0.00    -0.251 N 
ATOM      8  C   UNL d   1     -54.747-100.495 -40.912  0.00  0.00     0.289 A 
ATOM      9  C   UNL d   1     -54.784-101.803 -41.495  0.00  0.00     0.187 A 
ATOM     10  O   UNL d   1     -54.711-100.007 -40.237  0.00  0.00    -0.265 OA
ENDROOT
BRANCH   7  11
ATOM     11  C   UNL d   1     -54.716-101.667 -40.067  0.00  0.00     0.127 C 
BRANCH  11  12
ATOM     12  C   UNL d   1     -55.320-102.182 -39.815  0.00  0.00     0.213 C 
ATOM     13  O   UNL d   1     -55.807-102.548 -40.373  0.00  0.00    -0.285 OA
BRANCH  12  14
ATOM     14  C   UNL d   1     -55.425-102.321 -39.012  0.00  0.00     0.041 A 
ATOM     15  C   UNL d   1     -56.097-102.720 -38.745  0.00  0.00     0.003 A 
ATOM     16  C   UNL d   1     -56.205-102.860 -37.950  0.00  0.00     0.000 A 
ATOM     17  C   UNL d   1     -55.636-102.600 -37.407  0.00  0.00     0.000 A 
ATOM     18  C   UNL d   1     -54.964-102.201 -37.675  0.00  0.00     0.000 A 
ATOM     19  C   UNL d   1     -54.856-102.062 -38.469  0.00  0.00     0.003 A 
ENDBRANCH  12  14
ENDBRANCH  11  12
ENDBRANCH   7  11
BRANCH   3  20
ATOM     20  C   UNL d   1     -54.880-100.390 -43.796  0.00  0.00     0.104 C 
BRANCH  20  21
ATOM     21  C   UNL d   1     -55.146 -99.857 -44.378  0.00  0.00     0.019 A 
ATOM     22  C   UNL d   1     -55.758 -99.328 -44.213  0.00  0.00     0.002 A 
ATOM     23  C   UNL d   1     -56.003 -98.816 -44.793  0.00  0.00     0.000 A 
ATOM     24  C   UNL d   1     -55.662 -98.811 -45.534  0.00  0.00     0.000 A 
ATOM     25  C   UNL d   1     -55.034 -99.355 -45.702  0.00  0.00     0.000 A 
ATOM     26  C   UNL d   1     -54.785 -99.872 -45.117  0.00  0.00     0.002 A 
ENDBRANCH  20  21
ENDBRANCH   3  20
TORSDOF 5
ENDMDL
