MODEL 1
REMARK VINA RESULT:       8.8      0.000      0.000
REMARK  7 active torsions:
REMARK  status: ('A' for Active; 'I' for Inactive)
REMARK    1  A    between atoms: C_3  and  N_1 
REMARK    2  A    between atoms: N_7  and  C_3 
REMARK    3  A    between atoms: C_9  and  C_4 
REMARK    4  A    between atoms: C_10  and  C_5 
REMARK    5  A    between atoms: C_15  and  N_7 
REMARK    6  A    between atoms: O_22  and  C_16 
REMARK    7  A    between atoms: O_23  and  C_17 
ROOT
ATOM      1  N   UNL d   1     -41.616-122.371 -51.873  0.00  0.00    -0.203 N 
ATOM      2  N   UNL d   1     -41.751-122.914 -51.280  0.00  0.00    -0.163 NA
ATOM      3  C   UNL d   1     -41.818-122.474 -50.558  0.00  0.00     0.103 A 
ATOM      4  C   UNL d   1     -41.596-121.625 -51.566  0.00  0.00     0.087 A 
ATOM      5  C   UNL d   1     -41.719-121.680 -50.758  0.00  0.00     0.040 A 
ENDROOT
BRANCH   1   6
ATOM      6  C   UNL d   1     -41.511-122.562 -52.701  0.00  0.00     0.222 C 
ATOM      7  S   UNL d   1     -41.129-122.017 -53.188  0.00  0.00    -0.037 SA
BRANCH   6   8
ATOM      8  N   UNL d   1     -41.796-123.284 -52.981  0.00  0.00    -0.217 NA
BRANCH   8   9
ATOM      9  C   UNL d   1     -41.840-123.395 -53.797  0.00  0.00     0.084 A 
ATOM     10  C   UNL d   1     -42.530-123.194 -54.196  0.00  0.00     0.019 A 
ATOM     11  C   UNL d   1     -42.570-123.311 -55.031  0.00  0.00     0.002 A 
ATOM     12  C   UNL d   1     -41.946-123.612 -55.430  0.00  0.00     0.000 A 
ATOM     13  C   UNL d   1     -41.251-123.816 -55.040  0.00  0.00     0.002 A 
ATOM     14  C   UNL d   1     -41.197-123.708 -54.225  0.00  0.00     0.019 A 
ENDBRANCH   8   9
ENDBRANCH   6   8
ENDBRANCH   1   6
BRANCH   4  15
ATOM     15  C   UNL d   1     -41.478-120.882 -51.924  0.00  0.00     0.018 A 
ATOM     16  C   UNL d   1     -41.278-120.234 -51.455  0.00  0.00     0.004 A 
ATOM     17  C   UNL d   1     -41.162-119.502 -51.806  0.00  0.00     0.024 A 
ATOM     18  C   UNL d   1     -41.244-119.408 -52.638  0.00  0.00     0.094 A 
ATOM     19  C   UNL d   1     -41.449-120.079 -53.107  0.00  0.00     0.024 A 
ATOM     20  C   UNL d   1     -41.561-120.803 -52.733  0.00  0.00     0.004 A 
BRANCH  18  21
ATOM     21  O   UNL d   1     -41.126-118.678 -52.970  0.00  0.00    -0.328 OA
ATOM     22  C   UNL d   1     -41.231-117.995 -52.533  0.00  0.00     0.181 C 
ENDBRANCH  18  21
ENDBRANCH   4  15
BRANCH   3  23
ATOM     23  C   UNL d   1     -41.957-122.808 -49.814  0.00  0.00     0.019 A 
ATOM     24  C   UNL d   1     -42.634-122.610 -49.391  0.00  0.00     0.004 A 
ATOM     25  C   UNL d   1     -42.779-122.939 -48.648  0.00  0.00     0.024 A 
ATOM     26  C   UNL d   1     -42.236-123.473 -48.328  0.00  0.00     0.094 A 
ATOM     27  C   UNL d   1     -41.542-123.675 -48.764  0.00  0.00     0.024 A 
ATOM     28  C   UNL d   1     -41.404-123.343 -49.505  0.00  0.00     0.004 A 
BRANCH  26  29
ATOM     29  O   UNL d   1     -42.393-123.806 -47.566  0.00  0.00    -0.328 OA
ATOM     30  C   UNL d   1     -42.546-123.385 -46.697  0.00  0.00     0.181 C 
ENDBRANCH  26  29
ENDBRANCH   3  23
TORSDOF 7
ENDMDL
