MODEL 1
REMARK VINA RESULT:      78.2      0.000      0.000
REMARK  4 active torsions:
REMARK  status: ('A' for Active; 'I' for Inactive)
REMARK    1  A    between atoms: N_8  and  C_1 
REMARK    2  A    between atoms: C_13  and  C_2 
REMARK    3  A    between atoms: C_6  and  C_11 
REMARK       I    between atoms: C_11  and  N_8 
REMARK    4  A    between atoms: O_20  and  C_13 
ROOT
ATOM      1  C   UNL d   1     -50.081  26.546  33.843  0.00  0.00     0.119 A 
ATOM      2  C   UNL d   1     -50.901  26.448  33.823  0.00  0.00     0.087 A 
ATOM      3  C   UNL d   1     -51.053  25.655  33.678  0.00  0.00     0.008 A 
ATOM      4  C   UNL d   1     -50.342  25.261  33.609  0.00  0.00     0.028 A 
ATOM      5  S   UNL d   1     -49.731  25.810  33.711  0.00  0.00    -0.070 SA
ATOM      6  C   UNL d   1     -50.325  24.445  33.461  0.00  0.00     0.104 A 
ATOM      7  N   UNL d   1     -51.032  24.030  33.383  0.00  0.00    -0.294 NA
ATOM      8  C   UNL d   1     -51.753  24.430  33.453  0.00  0.00     0.099 A 
ATOM      9  C   UNL d   1     -51.767  25.243  33.601  0.00  0.00    -0.004 A 
ATOM     10  C   UNL d   1     -50.108  23.659  33.319  0.00  0.00     0.029 C 
ATOM     11  C   UNL d   1     -49.532  24.665  33.503  0.00  0.00     0.029 C 
ATOM     12  C   UNL d   1     -52.474  24.830  33.523  0.00  0.00     0.029 C 
ATOM     13  C   UNL d   1     -51.747  23.619  33.306  0.00  0.00     0.029 C 
ENDROOT
BRANCH   1  14
ATOM     14  N   UNL d   1     -49.675  27.256  33.974  0.00  0.00    -0.200 NA
ATOM     15  C   UNL d   1     -49.230  27.356  34.661  0.00  0.00     0.303 C 
ATOM     16  O   UNL d   1     -49.190  26.750  35.215  0.00  0.00    -0.263 OA
BRANCH  15  17
ATOM     17  C   UNL d   1     -48.830  28.055  34.789  0.00  0.00     0.169 A 
ATOM     18  N   UNL d   1     -48.402  28.271  35.469  0.00  0.00    -0.234 NA
ATOM     19  C   UNL d   1     -48.093  29.033  35.343  0.00  0.00     0.088 A 
ATOM     20  C   UNL d   1     -47.629  29.531  35.810  0.00  0.00     0.020 A 
ATOM     21  C   UNL d   1     -48.341  29.261  34.587  0.00  0.00     0.049 A 
ATOM     22  C   UNL d   1     -47.409  30.267  35.521  0.00  0.00     0.002 A 
ATOM     23  C   UNL d   1     -47.650  30.509  34.768  0.00  0.00     0.001 A 
ATOM     24  C   UNL d   1     -48.110  30.014  34.305  0.00  0.00     0.008 A 
ATOM     25  S   UNL d   1     -48.783  28.666  34.264  0.00  0.00    -0.062 SA
ENDBRANCH  15  17
ENDBRANCH   1  14
BRANCH   2  26
ATOM     26  C   UNL d   1     -51.451  27.045  33.929  0.00  0.00     0.298 C 
ATOM     27  O   UNL d   1     -51.820  27.124  34.666  0.00  0.00    -0.259 OA
BRANCH  26  28
ATOM     28  O   UNL d   1     -51.638  27.567  33.306  0.00  0.00    -0.296 OA
ATOM     29  C   UNL d   1     -52.332  28.008  33.334  0.00  0.00     0.185 C 
ENDBRANCH  26  28
ENDBRANCH   2  26
TORSDOF 4
ENDMDL
