MODEL 1
REMARK VINA RESULT:      -3.0      0.000      0.000
REMARK  1 active torsions:
REMARK  status: ('A' for Active; 'I' for Inactive)
REMARK    1  A    between atoms: N_9  and  C_4 
ROOT
ATOM      1  N   UNL d   1      31.690  17.636 -24.075  0.00  0.00    -0.195 N 
ATOM      2  C   UNL d   1      31.401  16.905 -23.807  0.00  0.00     0.168 A 
ATOM      3  C   UNL d   1      30.610  16.714 -23.890  0.00  0.00     0.073 A 
ATOM      4  C   UNL d   1      32.483  17.809 -23.984  0.00  0.00     0.154 A 
ATOM      5  N   UNL d   1      30.398  17.987 -24.509  0.00  0.00    -0.143 NA
ATOM      6  C   UNL d   1      30.110  17.257 -24.241  0.00  0.00     0.185 A 
ATOM      7  N   UNL d   1      31.914  16.368 -23.456  0.00  0.00    -0.227 NA
ATOM      8  C   UNL d   1      30.324  15.992 -23.625  0.00  0.00     0.007 A 
ATOM      9  N   UNL d   1      29.306  17.078 -24.332  0.00  0.00    -0.225 NA
ATOM     10  C   UNL d   1      32.994  17.281 -23.637  0.00  0.00     0.057 A 
ATOM     11  C   UNL d   1      29.534  15.800 -23.707  0.00  0.00     0.019 A 
ATOM     12  C   UNL d   1      32.705  16.550 -23.369  0.00  0.00     0.086 A 
ATOM     13  C   UNL d   1      29.017  16.347 -24.064  0.00  0.00     0.083 A 
ATOM     14  C   UNL d   1      30.840  15.453 -23.271  0.00  0.00     0.000 C 
ATOM     15  C   UNL d   1      33.241  15.994 -23.004  0.00  0.00     0.021 C 
ATOM     16  C   UNL d   1      28.229  16.163 -24.149  0.00  0.00     0.021 C 
ENDROOT
BRANCH   4  17
ATOM     17  N   UNL d   1      32.773  18.565 -24.264  0.00  0.00    -0.271 N 
ATOM     18  C   UNL d   1      32.925  18.781 -25.074  0.00  0.00     0.184 A 
ATOM     19  N   UNL d   1      33.203  19.578 -25.082  0.00  0.00    -0.222 NA
ATOM     20  C   UNL d   1      33.226  19.865 -24.271  0.00  0.00     0.120 A 
ATOM     21  C   UNL d   1      32.959  19.234 -23.769  0.00  0.00     0.104 A 
ENDBRANCH   4  17
TORSDOF 1
ENDMDL
MODEL 2
REMARK VINA RESULT:      -2.2      3.768      5.695
REMARK  1 active torsions:
REMARK  status: ('A' for Active; 'I' for Inactive)
REMARK    1  A    between atoms: N_9  and  C_4 
ROOT
ATOM      1  N   UNL d   1      32.990  21.753 -21.458  0.00  0.00    -0.195 N 
ATOM      2  C   UNL d   1      33.072  21.462 -22.231  0.00  0.00     0.168 A 
ATOM      3  C   UNL d   1      33.112  20.656 -22.371  0.00  0.00     0.073 A 
ATOM      4  C   UNL d   1      32.952  22.560 -21.337  0.00  0.00     0.154 A 
ATOM      5  N   UNL d   1      32.986  20.436 -20.962  0.00  0.00    -0.143 NA
ATOM      6  C   UNL d   1      33.068  20.145 -21.735  0.00  0.00     0.185 A 
ATOM      7  N   UNL d   1      33.115  21.986 -22.862  0.00  0.00    -0.227 NA
ATOM      8  C   UNL d   1      33.193  20.368 -23.135  0.00  0.00     0.007 A 
ATOM      9  N   UNL d   1      33.107  19.327 -21.861  0.00  0.00    -0.225 NA
ATOM     10  C   UNL d   1      32.994  23.083 -21.958  0.00  0.00     0.057 A 
ATOM     11  C   UNL d   1      33.233  19.564 -23.276  0.00  0.00     0.019 A 
ATOM     12  C   UNL d   1      33.076  22.791 -22.731  0.00  0.00     0.086 A 
ATOM     13  C   UNL d   1      33.189  19.036 -22.634  0.00  0.00     0.083 A 
ATOM     14  C   UNL d   1      33.236  20.896 -23.769  0.00  0.00     0.000 C 
ATOM     15  C   UNL d   1      33.120  23.339 -23.385  0.00  0.00     0.021 C 
ATOM     16  C   UNL d   1      33.228  18.233 -22.767  0.00  0.00     0.021 C 
ENDROOT
BRANCH   4  17
ATOM     17  N   UNL d   1      32.867  22.852 -20.537  0.00  0.00    -0.271 N 
ATOM     18  C   UNL d   1      33.224  22.521 -19.836  0.00  0.00     0.184 A 
ATOM     19  N   UNL d   1      32.985  22.992 -19.177  0.00  0.00    -0.222 NA
ATOM     20  C   UNL d   1      32.475  23.622 -19.465  0.00  0.00     0.120 A 
ATOM     21  C   UNL d   1      32.406  23.531 -20.307  0.00  0.00     0.104 A 
ENDBRANCH   4  17
TORSDOF 1
ENDMDL
MODEL 3
REMARK VINA RESULT:      -1.7      2.161      4.707
REMARK  1 active torsions:
REMARK  status: ('A' for Active; 'I' for Inactive)
REMARK    1  A    between atoms: N_9  and  C_4 
ROOT
ATOM      1  N   UNL d   1      32.863  19.050 -22.780  0.00  0.00    -0.195 N 
ATOM      2  C   UNL d   1      32.989  19.867 -22.854  0.00  0.00     0.168 A 
ATOM      3  C   UNL d   1      33.052  20.341 -22.190  0.00  0.00     0.073 A 
ATOM      4  C   UNL d   1      32.802  18.593 -23.455  0.00  0.00     0.154 A 
ATOM      5  N   UNL d   1      32.862  19.177 -21.379  0.00  0.00    -0.143 NA
ATOM      6  C   UNL d   1      32.988  19.994 -21.453  0.00  0.00     0.185 A 
ATOM      7  N   UNL d   1      33.052  20.204 -23.601  0.00  0.00    -0.227 NA
ATOM      8  C   UNL d   1      33.177  21.149 -22.263  0.00  0.00     0.007 A 
ATOM      9  N   UNL d   1      33.050  20.461 -20.771  0.00  0.00    -0.225 NA
ATOM     10  C   UNL d   1      32.863  18.922 -24.195  0.00  0.00     0.057 A 
ATOM     11  C   UNL d   1      33.241  21.623 -21.600  0.00  0.00     0.019 A 
ATOM     12  C   UNL d   1      32.990  19.739 -24.269  0.00  0.00     0.086 A 
ATOM     13  C   UNL d   1      33.177  21.278 -20.845  0.00  0.00     0.083 A 
ATOM     14  C   UNL d   1      33.240  21.487 -23.014  0.00  0.00     0.000 C 
ATOM     15  C   UNL d   1      33.055  20.086 -25.047  0.00  0.00     0.021 C 
ATOM     16  C   UNL d   1      33.238  21.744 -20.181  0.00  0.00     0.021 C 
ENDROOT
BRANCH   4  17
ATOM     17  N   UNL d   1      32.672  17.751 -23.370  0.00  0.00    -0.271 N 
ATOM     18  C   UNL d   1      33.226  17.181 -23.062  0.00  0.00     0.184 A 
ATOM     19  N   UNL d   1      32.856  16.422 -23.083  0.00  0.00    -0.222 NA
ATOM     20  C   UNL d   1      32.064  16.516 -23.406  0.00  0.00     0.120 A 
ATOM     21  C   UNL d   1      31.955  17.340 -23.581  0.00  0.00     0.104 A 
ENDBRANCH   4  17
TORSDOF 1
ENDMDL
MODEL 4
REMARK VINA RESULT:      -1.5      1.519      4.265
REMARK  1 active torsions:
REMARK  status: ('A' for Active; 'I' for Inactive)
REMARK    1  A    between atoms: N_9  and  C_4 
ROOT
ATOM      1  N   UNL d   1      29.571  16.464 -23.787  0.00  0.00    -0.195 N 
ATOM      2  C   UNL d   1      30.241  16.866 -24.066  0.00  0.00     0.168 A 
ATOM      3  C   UNL d   1      30.992  16.578 -23.918  0.00  0.00     0.073 A 
ATOM      4  C   UNL d   1      28.828  16.767 -23.945  0.00  0.00     0.154 A 
ATOM      5  N   UNL d   1      30.400  15.484 -23.211  0.00  0.00    -0.143 NA
ATOM      6  C   UNL d   1      31.070  15.886 -23.490  0.00  0.00     0.185 A 
ATOM      7  N   UNL d   1      30.150  17.561 -24.495  0.00  0.00    -0.227 NA
ATOM      8  C   UNL d   1      31.655  16.976 -24.195  0.00  0.00     0.007 A 
ATOM      9  N   UNL d   1      31.824  15.582 -23.332  0.00  0.00    -0.225 NA
ATOM     10  C   UNL d   1      28.733  17.454 -24.369  0.00  0.00     0.057 A 
ATOM     11  C   UNL d   1      32.406  16.689 -24.047  0.00  0.00     0.019 A 
ATOM     12  C   UNL d   1      29.403  17.856 -24.648  0.00  0.00     0.086 A 
ATOM     13  C   UNL d   1      32.494  15.984 -23.612  0.00  0.00     0.083 A 
ATOM     14  C   UNL d   1      31.562  17.674 -24.626  0.00  0.00     0.000 C 
ATOM     15  C   UNL d   1      29.306  18.578 -25.094  0.00  0.00     0.021 C 
ATOM     16  C   UNL d   1      33.239  15.692 -23.461  0.00  0.00     0.021 C 
ENDROOT
BRANCH   4  17
ATOM     17  N   UNL d   1      28.143  16.346 -23.653  0.00  0.00    -0.271 N 
ATOM     18  C   UNL d   1      27.741  16.481 -22.913  0.00  0.00     0.184 A 
ATOM     19  N   UNL d   1      27.098  15.936 -22.863  0.00  0.00    -0.222 NA
ATOM     20  C   UNL d   1      27.096  15.454 -23.576  0.00  0.00     0.120 A 
ATOM     21  C   UNL d   1      27.744  15.711 -24.061  0.00  0.00     0.104 A 
ENDBRANCH   4  17
TORSDOF 1
ENDMDL
