MODEL 1
REMARK VINA RESULT:     -11.1      0.000      0.000
REMARK  2 active torsions:
REMARK  status: ('A' for Active; 'I' for Inactive)
REMARK    1  A    between atoms: N_2  and  C_1 
REMARK    2  A    between atoms: N_11  and  C_3 
ROOT
ATOM      1  C   UNL d   1      53.020  32.434  53.313  0.00  0.00     0.142 A 
ATOM      2  C   UNL d   1      53.481  32.353  53.992  0.00  0.00     0.124 A 
ATOM      3  C   UNL d   1      52.751  31.763  52.922  0.00  0.00     0.215 A 
ATOM      4  C   UNL d   1      53.673  31.607  54.282  0.00  0.00     0.213 A 
ATOM      5  C   UNL d   1      52.939  31.009  53.204  0.00  0.00     0.044 A 
ATOM      6  C   UNL d   1      53.403  30.936  53.888  0.00  0.00     0.044 A 
ATOM      7  O   UNL d   1      52.290  31.835  52.242  0.00  0.00    -0.285 OA
ATOM      8  O   UNL d   1      54.134  31.527  54.962  0.00  0.00    -0.285 OA
ATOM      9  C   UNL d   1      52.673  30.343  52.818  0.00  0.00     0.003 A 
ATOM     10  C   UNL d   1      53.593  30.183  54.174  0.00  0.00     0.003 A 
ATOM     11  C   UNL d   1      53.320  29.517  53.776  0.00  0.00     0.000 A 
ATOM     12  C   UNL d   1      52.857  29.598  53.094  0.00  0.00     0.000 A 
ENDROOT
BRANCH   1  13
ATOM     13  N   UNL d   1      52.831  33.179  53.030  0.00  0.00    -0.206 N 
ATOM     14  N   UNL d   1      53.360  33.717  52.693  0.00  0.00    -0.059 NA
ATOM     15  N   UNL d   1      52.932  34.396  52.486  0.00  0.00    -0.129 NA
ATOM     16  C   UNL d   1      52.141  34.267  52.699  0.00  0.00     0.122 A 
ATOM     17  C   UNL d   1      52.083  33.512  53.035  0.00  0.00     0.104 A 
ATOM     18  C   UNL d   1      51.475  34.747  52.625  0.00  0.00     0.022 A 
ATOM     19  C   UNL d   1      51.360  33.237  53.297  0.00  0.00     0.021 A 
ATOM     20  C   UNL d   1      50.677  33.706  53.231  0.00  0.00     0.002 A 
ATOM     21  C   UNL d   1      50.740  34.460  52.894  0.00  0.00     0.002 A 
ENDBRANCH   1  13
BRANCH   2  22
ATOM     22  N   UNL d   1      53.751  33.027  54.386  0.00  0.00    -0.296 N 
ATOM     23  C   UNL d   1      53.314  33.346  55.009  0.00  0.00     0.107 A 
ATOM     24  C   UNL d   1      53.579  34.010  55.399  0.00  0.00     0.142 A 
ATOM     25  O   UNL d   1      54.290  34.371  55.172  0.00  0.00    -0.300 OA
ATOM     26  C   UNL d   1      54.724  34.048  54.547  0.00  0.00     0.142 A 
ATOM     27  C   UNL d   1      54.453  33.377  54.156  0.00  0.00     0.107 A 
ENDBRANCH   2  22
TORSDOF 2
ENDMDL
MODEL 2
REMARK VINA RESULT:     -10.2      0.975      3.123
REMARK  2 active torsions:
REMARK  status: ('A' for Active; 'I' for Inactive)
REMARK    1  A    between atoms: N_2  and  C_1 
REMARK    2  A    between atoms: N_11  and  C_3 
ROOT
ATOM      1  C   UNL d   1      52.956  32.812  53.312  0.00  0.00     0.142 A 
ATOM      2  C   UNL d   1      53.074  33.404  53.875  0.00  0.00     0.124 A 
ATOM      3  C   UNL d   1      52.318  32.862  52.796  0.00  0.00     0.215 A 
ATOM      4  C   UNL d   1      52.557  34.043  53.925  0.00  0.00     0.213 A 
ATOM      5  C   UNL d   1      51.794  33.500  52.838  0.00  0.00     0.044 A 
ATOM      6  C   UNL d   1      51.919  34.090  53.407  0.00  0.00     0.044 A 
ATOM      7  O   UNL d   1      52.194  32.275  52.230  0.00  0.00    -0.285 OA
ATOM      8  O   UNL d   1      52.675  34.634  54.488  0.00  0.00    -0.285 OA
ATOM      9  C   UNL d   1      51.161  33.552  52.328  0.00  0.00     0.003 A 
ATOM     10  C   UNL d   1      51.395  34.731  53.451  0.00  0.00     0.003 A 
ATOM     11  C   UNL d   1      50.760  34.773  52.932  0.00  0.00     0.000 A 
ATOM     12  C   UNL d   1      50.642  34.179  52.366  0.00  0.00     0.000 A 
ENDROOT
BRANCH   1  13
ATOM     13  N   UNL d   1      53.474  32.178  53.267  0.00  0.00    -0.206 N 
ATOM     14  N   UNL d   1      54.271  32.218  53.057  0.00  0.00    -0.059 NA
ATOM     15  N   UNL d   1      54.578  31.449  53.085  0.00  0.00    -0.129 NA
ATOM     16  C   UNL d   1      53.964  30.942  53.314  0.00  0.00     0.122 A 
ATOM     17  C   UNL d   1      53.281  31.398  53.426  0.00  0.00     0.104 A 
ATOM     18  C   UNL d   1      53.949  30.127  53.431  0.00  0.00     0.022 A 
ATOM     19  C   UNL d   1      52.584  31.039  53.655  0.00  0.00     0.021 A 
ATOM     20  C   UNL d   1      52.550  30.218  53.779  0.00  0.00     0.002 A 
ATOM     21  C   UNL d   1      53.234  29.767  53.665  0.00  0.00     0.002 A 
ENDBRANCH   1  13
BRANCH   2  22
ATOM     22  N   UNL d   1      53.715  33.354  54.394  0.00  0.00    -0.296 N 
ATOM     23  C   UNL d   1      53.617  33.020  55.141  0.00  0.00     0.107 A 
ATOM     24  C   UNL d   1      54.248  32.970  55.655  0.00  0.00     0.142 A 
ATOM     25  O   UNL d   1      54.992  33.255  55.428  0.00  0.00    -0.300 OA
ATOM     26  C   UNL d   1      55.085  33.589  54.678  0.00  0.00     0.142 A 
ATOM     27  C   UNL d   1      54.446  33.637  54.163  0.00  0.00     0.107 A 
ENDBRANCH   2  22
TORSDOF 2
ENDMDL
MODEL 3
REMARK VINA RESULT:     -10.1      0.830      2.695
REMARK  2 active torsions:
REMARK  status: ('A' for Active; 'I' for Inactive)
REMARK    1  A    between atoms: N_2  and  C_1 
REMARK    2  A    between atoms: N_11  and  C_3 
ROOT
ATOM      1  C   UNL d   1      53.220  32.423  54.032  0.00  0.00     0.142 A 
ATOM      2  C   UNL d   1      52.772  32.503  53.343  0.00  0.00     0.124 A 
ATOM      3  C   UNL d   1      53.479  31.679  54.265  0.00  0.00     0.215 A 
ATOM      4  C   UNL d   1      52.583  31.843  52.888  0.00  0.00     0.213 A 
ATOM      5  C   UNL d   1      53.294  31.011  53.816  0.00  0.00     0.044 A 
ATOM      6  C   UNL d   1      52.844  31.098  53.125  0.00  0.00     0.044 A 
ATOM      7  O   UNL d   1      53.926  31.592  54.953  0.00  0.00    -0.285 OA
ATOM      8  O   UNL d   1      52.136  31.922  52.199  0.00  0.00    -0.285 OA
ATOM      9  C   UNL d   1      53.550  30.272  54.047  0.00  0.00     0.003 A 
ATOM     10  C   UNL d   1      52.657  30.430  52.673  0.00  0.00     0.003 A 
ATOM     11  C   UNL d   1      52.920  29.690  52.914  0.00  0.00     0.000 A 
ATOM     12  C   UNL d   1      53.369  29.610  53.606  0.00  0.00     0.000 A 
ENDROOT
BRANCH   1  13
ATOM     13  N   UNL d   1      53.405  33.084  54.480  0.00  0.00    -0.206 N 
ATOM     14  N   UNL d   1      52.868  33.548  54.902  0.00  0.00    -0.059 NA
ATOM     15  N   UNL d   1      53.295  34.154  55.272  0.00  0.00    -0.129 NA
ATOM     16  C   UNL d   1      54.094  34.056  55.072  0.00  0.00     0.122 A 
ATOM     17  C   UNL d   1      54.158  33.392  54.581  0.00  0.00     0.104 A 
ATOM     18  C   UNL d   1      54.762  34.491  55.279  0.00  0.00     0.022 A 
ATOM     19  C   UNL d   1      54.888  33.163  54.297  0.00  0.00     0.021 A 
ATOM     20  C   UNL d   1      55.573  33.589  54.495  0.00  0.00     0.002 A 
ATOM     21  C   UNL d   1      55.505  34.252  54.986  0.00  0.00     0.002 A 
ENDBRANCH   1  13
BRANCH   2  22
ATOM     22  N   UNL d   1      52.512  33.250  53.107  0.00  0.00    -0.296 N 
ATOM     23  C   UNL d   1      51.807  33.556  53.406  0.00  0.00     0.107 A 
ATOM     24  C   UNL d   1      51.548  34.293  53.175  0.00  0.00     0.142 A 
ATOM     25  O   UNL d   1      51.992  34.740  52.637  0.00  0.00    -0.300 OA
ATOM     26  C   UNL d   1      52.697  34.430  52.340  0.00  0.00     0.142 A 
ATOM     27  C   UNL d   1      52.955  33.685  52.576  0.00  0.00     0.107 A 
ENDBRANCH   2  22
TORSDOF 2
ENDMDL
MODEL 4
REMARK VINA RESULT:     -10.1      1.030      3.482
REMARK  2 active torsions:
REMARK  status: ('A' for Active; 'I' for Inactive)
REMARK    1  A    between atoms: N_2  and  C_1 
REMARK    2  A    between atoms: N_11  and  C_3 
ROOT
ATOM      1  C   UNL d   1      53.390  32.712  53.643  0.00  0.00     0.142 A 
ATOM      2  C   UNL d   1      52.887  33.352  53.774  0.00  0.00     0.124 A 
ATOM      3  C   UNL d   1      54.134  32.700  53.993  0.00  0.00     0.215 A 
ATOM      4  C   UNL d   1      53.123  33.980  54.252  0.00  0.00     0.213 A 
ATOM      5  C   UNL d   1      54.380  33.325  54.475  0.00  0.00     0.044 A 
ATOM      6  C   UNL d   1      53.869  33.965  54.602  0.00  0.00     0.044 A 
ATOM      7  O   UNL d   1      54.642  32.063  53.867  0.00  0.00    -0.285 OA
ATOM      8  O   UNL d   1      52.620  34.620  54.383  0.00  0.00    -0.285 OA
ATOM      9  C   UNL d   1      55.117  33.315  54.823  0.00  0.00     0.003 A 
ATOM     10  C   UNL d   1      54.113  34.593  55.084  0.00  0.00     0.003 A 
ATOM     11  C   UNL d   1      54.858  34.573  55.430  0.00  0.00     0.000 A 
ATOM     12  C   UNL d   1      55.364  33.929  55.298  0.00  0.00     0.000 A 
ENDROOT
BRANCH   1  13
ATOM     13  N   UNL d   1      53.149  32.091  53.166  0.00  0.00    -0.206 N 
ATOM     14  N   UNL d   1      52.958  32.142  52.365  0.00  0.00    -0.059 NA
ATOM     15  N   UNL d   1      52.745  31.384  52.107  0.00  0.00    -0.129 NA
ATOM     16  C   UNL d   1      52.808  30.872  52.756  0.00  0.00     0.122 A 
ATOM     17  C   UNL d   1      53.059  31.314  53.411  0.00  0.00     0.104 A 
ATOM     18  C   UNL d   1      52.667  30.063  52.824  0.00  0.00     0.022 A 
ATOM     19  C   UNL d   1      53.168  30.948  54.132  0.00  0.00     0.021 A 
ATOM     20  C   UNL d   1      53.031  30.133  54.220  0.00  0.00     0.002 A 
ATOM     21  C   UNL d   1      52.781  29.696  53.564  0.00  0.00     0.002 A 
ENDBRANCH   1  13
BRANCH   2  22
ATOM     22  N   UNL d   1      52.140  33.365  53.423  0.00  0.00    -0.296 N 
ATOM     23  C   UNL d   1      51.485  33.076  53.833  0.00  0.00     0.107 A 
ATOM     24  C   UNL d   1      50.746  33.087  53.489  0.00  0.00     0.142 A 
ATOM     25  O   UNL d   1      50.649  33.390  52.723  0.00  0.00    -0.300 OA
ATOM     26  C   UNL d   1      51.308  33.678  52.317  0.00  0.00     0.142 A 
ATOM     27  C   UNL d   1      52.051  33.665  52.668  0.00  0.00     0.107 A 
ENDBRANCH   2  22
TORSDOF 2
ENDMDL
MODEL 5
REMARK VINA RESULT:      -9.9      1.015      3.466
REMARK  2 active torsions:
REMARK  status: ('A' for Active; 'I' for Inactive)
REMARK    1  A    between atoms: N_2  and  C_1 
REMARK    2  A    between atoms: N_11  and  C_3 
ROOT
ATOM      1  C   UNL d   1      52.950  33.181  53.356  0.00  0.00     0.142 A 
ATOM      2  C   UNL d   1      52.503  32.490  53.308  0.00  0.00     0.124 A 
ATOM      3  C   UNL d   1      52.584  33.910  53.257  0.00  0.00     0.215 A 
ATOM      4  C   UNL d   1      51.693  32.524  53.162  0.00  0.00     0.213 A 
ATOM      5  C   UNL d   1      51.772  33.955  53.111  0.00  0.00     0.044 A 
ATOM      6  C   UNL d   1      51.329  33.256  53.064  0.00  0.00     0.044 A 
ATOM      7  O   UNL d   1      53.025  34.606  53.304  0.00  0.00    -0.285 OA
ATOM      8  O   UNL d   1      51.246  31.832  53.114  0.00  0.00    -0.285 OA
ATOM      9  C   UNL d   1      51.407  34.678  53.012  0.00  0.00     0.003 A 
ATOM     10  C   UNL d   1      50.515  33.298  52.917  0.00  0.00     0.003 A 
ATOM     11  C   UNL d   1      50.157  34.031  52.819  0.00  0.00     0.000 A 
ATOM     12  C   UNL d   1      50.607  34.726  52.867  0.00  0.00     0.000 A 
ENDROOT
BRANCH   1  13
ATOM     13  N   UNL d   1      53.756  33.140  53.502  0.00  0.00    -0.206 N 
ATOM     14  N   UNL d   1      54.328  32.856  52.979  0.00  0.00    -0.059 NA
ATOM     15  N   UNL d   1      55.065  32.917  53.354  0.00  0.00    -0.129 NA
ATOM     16  C   UNL d   1      54.937  33.240  54.106  0.00  0.00     0.122 A 
ATOM     17  C   UNL d   1      54.124  33.377  54.194  0.00  0.00     0.104 A 
ATOM     18  C   UNL d   1      55.462  33.423  54.714  0.00  0.00     0.022 A 
ATOM     19  C   UNL d   1      53.837  33.696  54.888  0.00  0.00     0.021 A 
ATOM     20  C   UNL d   1      54.351  33.887  55.513  0.00  0.00     0.002 A 
ATOM     21  C   UNL d   1      55.162  33.749  55.421  0.00  0.00     0.002 A 
ENDBRANCH   1  13
BRANCH   2  22
ATOM     22  N   UNL d   1      52.870  31.756  53.408  0.00  0.00    -0.296 N 
ATOM     23  C   UNL d   1      52.893  31.403  54.152  0.00  0.00     0.107 A 
ATOM     24  C   UNL d   1      53.254  30.679  54.253  0.00  0.00     0.142 A 
ATOM     25  O   UNL d   1      53.601  30.294  53.606  0.00  0.00    -0.300 OA
ATOM     26  C   UNL d   1      53.576  30.652  52.862  0.00  0.00     0.142 A 
ATOM     27  C   UNL d   1      53.210  31.383  52.765  0.00  0.00     0.107 A 
ENDBRANCH   2  22
TORSDOF 2
ENDMDL
MODEL 6
REMARK VINA RESULT:      -8.5      1.101      2.953
REMARK  2 active torsions:
REMARK  status: ('A' for Active; 'I' for Inactive)
REMARK    1  A    between atoms: N_2  and  C_1 
REMARK    2  A    between atoms: N_11  and  C_3 
ROOT
ATOM      1  C   UNL d   1      52.763  33.209  53.924  0.00  0.00     0.142 A 
ATOM      2  C   UNL d   1      53.252  32.549  53.847  0.00  0.00     0.124 A 
ATOM      3  C   UNL d   1      53.041  33.877  54.314  0.00  0.00     0.215 A 
ATOM      4  C   UNL d   1      54.015  32.553  54.157  0.00  0.00     0.213 A 
ATOM      5  C   UNL d   1      53.805  33.892  54.629  0.00  0.00     0.044 A 
ATOM      6  C   UNL d   1      54.290  33.225  54.547  0.00  0.00     0.044 A 
ATOM      7  O   UNL d   1      52.558  34.541  54.395  0.00  0.00    -0.285 OA
ATOM      8  O   UNL d   1      54.503  31.893  54.080  0.00  0.00    -0.285 OA
ATOM      9  C   UNL d   1      54.081  34.554  55.016  0.00  0.00     0.003 A 
ATOM     10  C   UNL d   1      55.056  33.237  54.862  0.00  0.00     0.003 A 
ATOM     11  C   UNL d   1      55.325  33.909  55.250  0.00  0.00     0.000 A 
ATOM     12  C   UNL d   1      54.834  34.572  55.327  0.00  0.00     0.000 A 
ENDROOT
BRANCH   1  13
ATOM     13  N   UNL d   1      52.005  33.198  53.613  0.00  0.00    -0.206 N 
ATOM     14  N   UNL d   1      51.370  32.756  53.901  0.00  0.00    -0.059 NA
ATOM     15  N   UNL d   1      50.714  32.913  53.420  0.00  0.00    -0.129 NA
ATOM     16  C   UNL d   1      50.954  33.453  52.839  0.00  0.00     0.122 A 
ATOM     17  C   UNL d   1      51.754  33.627  52.962  0.00  0.00     0.104 A 
ATOM     18  C   UNL d   1      50.538  33.802  52.219  0.00  0.00     0.022 A 
ATOM     19  C   UNL d   1      52.139  34.149  52.466  0.00  0.00     0.021 A 
ATOM     20  C   UNL d   1      51.736  34.511  51.835  0.00  0.00     0.002 A 
ATOM     21  C   UNL d   1      50.937  34.334  51.716  0.00  0.00     0.002 A 
ENDBRANCH   1  13
BRANCH   2  22
ATOM     22  N   UNL d   1      52.974  31.877  53.455  0.00  0.00    -0.296 N 
ATOM     23  C   UNL d   1      52.514  31.324  53.858  0.00  0.00     0.107 A 
ATOM     24  C   UNL d   1      52.238  30.660  53.474  0.00  0.00     0.142 A 
ATOM     25  O   UNL d   1      52.420  30.536  52.675  0.00  0.00    -0.300 OA
ATOM     26  C   UNL d   1      52.881  31.093  52.275  0.00  0.00     0.142 A 
ATOM     27  C   UNL d   1      53.157  31.762  52.667  0.00  0.00     0.107 A 
ENDBRANCH   2  22
TORSDOF 2
ENDMDL
