MODEL 1
REMARK VINA RESULT:      38.9      0.000      0.000
REMARK  6 active torsions:
REMARK  status: ('A' for Active; 'I' for Inactive)
REMARK    1  A    between atoms: C_6  and  C_1 
REMARK    2  A    between atoms: C_9  and  N_3 
REMARK       I    between atoms: N_7  and  C_6 
REMARK    3  A    between atoms: C_8  and  N_7 
REMARK    4  A    between atoms: C_14  and  C_9 
REMARK    5  A    between atoms: O_21  and  C_12 
REMARK    6  A    between atoms: O_22  and  C_19 
ROOT
ATOM      1  C   UNL d   1      45.172 -17.385  39.509  0.00  0.00     0.199 A 
ATOM      2  C   UNL d   1      45.937 -17.517  39.806  0.00  0.00     0.211 A 
ATOM      3  N   UNL d   1      45.865 -17.784  40.584  0.00  0.00    -0.190 N 
ATOM      4  N   UNL d   1      44.632 -17.572  40.105  0.00  0.00    -0.122 NA
ATOM      5  N   UNL d   1      45.063 -17.819  40.771  0.00  0.00    -0.058 NA
ATOM      6  N   UNL d   1      46.646 -17.401  39.395  0.00  0.00    -0.125 N 
ENDROOT
BRANCH   1   7
ATOM      7  C   UNL d   1      44.992 -17.115  38.752  0.00  0.00     0.302 C 
ATOM      8  N   UNL d   1      44.934 -16.302  38.612  0.00  0.00    -0.205 NA
ATOM      9  O   UNL d   1      44.870 -17.652  38.138  0.00  0.00    -0.263 OA
BRANCH   8  10
ATOM     10  C   UNL d   1      44.752 -16.027  37.849  0.00  0.00     0.108 A 
ATOM     11  C   UNL d   1      44.033 -16.227  37.499  0.00  0.00     0.033 A 
ATOM     12  C   UNL d   1      43.852 -15.954  36.740  0.00  0.00     0.059 A 
ATOM     13 CL   UNL d   1      43.129 -16.158  36.395  0.00  0.00    -0.082 Cl
ATOM     14  C   UNL d   1      44.393 -15.480  36.331  0.00  0.00     0.013 A 
ATOM     15  C   UNL d   1      45.120 -15.278  36.686  0.00  0.00     0.027 A 
ATOM     16  C   UNL d   1      45.293 -15.555  37.446  0.00  0.00     0.112 A 
BRANCH  16  17
ATOM     17  O   UNL d   1      46.015 -15.355  37.799  0.00  0.00    -0.327 OA
ATOM     18  C   UNL d   1      46.573 -14.922  37.375  0.00  0.00     0.181 C 
ENDBRANCH  16  17
ENDBRANCH   8  10
ENDBRANCH   1   7
BRANCH   3  19
ATOM     19  C   UNL d   1      46.482 -17.984  41.093  0.00  0.00     0.104 C 
BRANCH  19  20
ATOM     20  C   UNL d   1      46.484 -18.699  41.497  0.00  0.00     0.021 A 
ATOM     21  C   UNL d   1      46.329 -18.727  42.305  0.00  0.00     0.026 A 
ATOM     22  C   UNL d   1      46.331 -19.443  42.705  0.00  0.00     0.094 A 
ATOM     23  C   UNL d   1      46.490 -20.150  42.300  0.00  0.00     0.024 A 
ATOM     24  C   UNL d   1      46.647 -20.122  41.479  0.00  0.00     0.002 A 
ATOM     25  C   UNL d   1      46.643 -19.402  41.086  0.00  0.00     0.002 A 
BRANCH  22  26
ATOM     26  O   UNL d   1      46.175 -19.462  43.515  0.00  0.00    -0.328 OA
ATOM     27  C   UNL d   1      46.568 -20.000  44.002  0.00  0.00     0.181 C 
ENDBRANCH  22  26
ENDBRANCH  19  20
ENDBRANCH   3  19
TORSDOF 6
ENDMDL
