MODEL 1
REMARK VINA RESULT:      -6.5      0.000      0.000
REMARK  8 active torsions:
REMARK  status: ('A' for Active; 'I' for Inactive)
REMARK    1  A    between atoms: O_8  and  C_1 
REMARK    2  A    between atoms: C_10  and  C_5 
REMARK    3  A    between atoms: C_12  and  O_8 
REMARK    4  A    between atoms: N_9  and  C_10 
REMARK    5  A    between atoms: C_25  and  N_14 
REMARK    6  A    between atoms: O_24  and  C_17 
REMARK    7  A    between atoms: C_30  and  O_24 
REMARK    8  A    between atoms: C_29  and  C_25 
ROOT
ATOM      1  C   UNL d   1      50.749  34.026  53.208  0.00  0.00     0.161 A 
ATOM      2  C   UNL d   1      52.241  33.315  53.039  0.00  0.00     0.108 A 
ATOM      3  C   UNL d   1      52.185  34.093  53.330  0.00  0.00     0.064 A 
ATOM      4  C   UNL d   1      51.441  34.445  53.413  0.00  0.00     0.222 A 
ATOM      5  C   UNL d   1      52.985  32.962  52.955  0.00  0.00     0.079 A 
ATOM      6  O   UNL d   1      51.563  32.885  52.831  0.00  0.00    -0.305 OA
ATOM      7  C   UNL d   1      50.810  33.248  52.918  0.00  0.00     0.126 A 
ATOM      8  C   UNL d   1      52.864  34.504  53.531  0.00  0.00     0.009 A 
ATOM      9  C   UNL d   1      53.663  33.381  53.159  0.00  0.00     0.199 A 
ATOM     10  O   UNL d   1      51.380  35.217  53.701  0.00  0.00    -0.284 OA
ATOM     11  C   UNL d   1      53.603  34.152  53.447  0.00  0.00     0.042 A 
ATOM     12  O   UNL d   1      54.403  33.029  53.075  0.00  0.00    -0.286 OA
ATOM     13  C   UNL d   1      50.131  32.829  52.714  0.00  0.00     0.029 C 
ENDROOT
BRANCH   1  14
ATOM     14  O   UNL d   1      50.009  34.383  53.294  0.00  0.00    -0.300 OA
BRANCH  14  15
ATOM     15  C   UNL d   1      49.607  34.649  52.627  0.00  0.00     0.123 A 
ATOM     16  C   UNL d   1      48.971  35.166  52.711  0.00  0.00     0.123 A 
ATOM     17  C   UNL d   1      48.567  35.434  52.051  0.00  0.00     0.027 A 
ATOM     18  C   UNL d   1      48.794  35.189  51.298  0.00  0.00     0.002 A 
ATOM     19  C   UNL d   1      49.437  34.665  51.209  0.00  0.00     0.002 A 
ATOM     20  C   UNL d   1      49.840  34.398  51.876  0.00  0.00     0.027 A 
BRANCH  16  21
ATOM     21  O   UNL d   1      48.741  35.414  53.463  0.00  0.00    -0.303 OA
BRANCH  21  22
ATOM     22  C   UNL d   1      48.129  35.957  53.545  0.00  0.00     0.123 C 
ATOM     23  C   UNL d   1      47.917  36.240  54.288  0.00  0.00     0.029 C 
ENDBRANCH  21  22
ENDBRANCH  16  21
ENDBRANCH  14  15
ENDBRANCH   1  14
BRANCH   5  24
ATOM     24  C   UNL d   1      53.053  32.192  52.668  0.00  0.00     0.086 C 
BRANCH  24  25
ATOM     25  N   UNL d   1      53.109  31.563  53.206  0.00  0.00    -0.300 N 
ATOM     26  C   UNL d   1      53.480  31.670  53.937  0.00  0.00     0.100 A 
ATOM     27  C   UNL d   1      53.533  31.045  54.465  0.00  0.00     0.100 A 
ATOM     28  N   UNL d   1      53.217  30.307  54.272  0.00  0.00    -0.297 N 
ATOM     29  C   UNL d   1      52.846  30.199  53.541  0.00  0.00     0.100 A 
ATOM     30  C   UNL d   1      52.790  30.830  53.003  0.00  0.00     0.100 A 
BRANCH  28  31
ATOM     31  C   UNL d   1      53.270  29.680  54.803  0.00  0.00     0.126 C 
BRANCH  31  32
ATOM     32  C   UNL d   1      53.373  28.913  54.521  0.00  0.00     0.253 C 
ATOM     33  O   UNL d   1      53.459  28.290  55.052  0.00  0.00    -0.281 OA
ENDBRANCH  31  32
ENDBRANCH  28  31
ENDBRANCH  24  25
ENDBRANCH   5  24
TORSDOF 8
ENDMDL
MODEL 2
REMARK VINA RESULT:      -5.7      1.407      2.422
REMARK  8 active torsions:
REMARK  status: ('A' for Active; 'I' for Inactive)
REMARK    1  A    between atoms: O_8  and  C_1 
REMARK    2  A    between atoms: C_10  and  C_5 
REMARK    3  A    between atoms: C_12  and  O_8 
REMARK    4  A    between atoms: N_9  and  C_10 
REMARK    5  A    between atoms: C_25  and  N_14 
REMARK    6  A    between atoms: O_24  and  C_17 
REMARK    7  A    between atoms: C_30  and  O_24 
REMARK    8  A    between atoms: C_29  and  C_25 
ROOT
ATOM      1  C   UNL d   1      50.857  33.927  52.965  0.00  0.00     0.161 A 
ATOM      2  C   UNL d   1      52.073  32.796  52.970  0.00  0.00     0.108 A 
ATOM      3  C   UNL d   1      51.291  32.564  53.142  0.00  0.00     0.064 A 
ATOM      4  C   UNL d   1      50.688  33.129  53.139  0.00  0.00     0.222 A 
ATOM      5  C   UNL d   1      52.677  32.230  52.973  0.00  0.00     0.079 A 
ATOM      6  O   UNL d   1      52.257  33.585  52.795  0.00  0.00    -0.305 OA
ATOM      7  C   UNL d   1      51.640  34.155  52.793  0.00  0.00     0.126 A 
ATOM      8  C   UNL d   1      51.126  31.780  53.312  0.00  0.00     0.009 A 
ATOM      9  C   UNL d   1      52.503  31.444  53.145  0.00  0.00     0.199 A 
ATOM     10  O   UNL d   1      49.912  32.904  53.309  0.00  0.00    -0.284 OA
ATOM     11  C   UNL d   1      51.728  31.219  53.315  0.00  0.00     0.042 A 
ATOM     12  O   UNL d   1      53.106  30.883  53.147  0.00  0.00    -0.286 OA
ATOM     13  C   UNL d   1      51.813  34.941  52.621  0.00  0.00     0.029 C 
ENDROOT
BRANCH   1  14
ATOM     14  O   UNL d   1      50.250  34.488  52.963  0.00  0.00    -0.300 OA
BRANCH  14  15
ATOM     15  C   UNL d   1      49.771  34.566  52.299  0.00  0.00     0.123 A 
ATOM     16  C   UNL d   1      49.076  35.006  52.344  0.00  0.00     0.123 A 
ATOM     17  C   UNL d   1      48.594  35.087  51.686  0.00  0.00     0.027 A 
ATOM     18  C   UNL d   1      48.803  34.730  50.974  0.00  0.00     0.002 A 
ATOM     19  C   UNL d   1      49.506  34.284  50.924  0.00  0.00     0.002 A 
ATOM     20  C   UNL d   1      49.986  34.205  51.589  0.00  0.00     0.027 A 
BRANCH  16  21
ATOM     21  O   UNL d   1      48.864  35.365  53.056  0.00  0.00    -0.303 OA
BRANCH  21  22
ATOM     22  C   UNL d   1      48.222  35.880  53.079  0.00  0.00     0.123 C 
ATOM     23  C   UNL d   1      48.010  36.252  53.781  0.00  0.00     0.029 C 
ENDBRANCH  21  22
ENDBRANCH  16  21
ENDBRANCH  14  15
ENDBRANCH   1  14
BRANCH   5  24
ATOM     24  C   UNL d   1      53.454  32.448  52.804  0.00  0.00     0.086 C 
BRANCH  24  25
ATOM     25  N   UNL d   1      53.941  32.722  53.417  0.00  0.00    -0.300 N 
ATOM     26  C   UNL d   1      53.818  32.466  54.194  0.00  0.00     0.100 A 
ATOM     27  C   UNL d   1      54.301  32.740  54.797  0.00  0.00     0.100 A 
ATOM     28  N   UNL d   1      54.911  33.271  54.634  0.00  0.00    -0.297 N 
ATOM     29  C   UNL d   1      55.035  33.528  53.857  0.00  0.00     0.100 A 
ATOM     30  C   UNL d   1      54.548  33.253  53.243  0.00  0.00     0.100 A 
BRANCH  28  31
ATOM     31  C   UNL d   1      55.396  33.546  55.240  0.00  0.00     0.126 C 
BRANCH  31  32
ATOM     32  C   UNL d   1      55.060  33.841  55.932  0.00  0.00     0.253 C 
ATOM     33  O   UNL d   1      55.541  34.175  56.511  0.00  0.00    -0.281 OA
ENDBRANCH  31  32
ENDBRANCH  28  31
ENDBRANCH  24  25
ENDBRANCH   5  24
TORSDOF 8
ENDMDL
MODEL 3
REMARK VINA RESULT:      -5.6      2.429      6.093
REMARK  8 active torsions:
REMARK  status: ('A' for Active; 'I' for Inactive)
REMARK    1  A    between atoms: O_8  and  C_1 
REMARK    2  A    between atoms: C_10  and  C_5 
REMARK    3  A    between atoms: C_12  and  O_8 
REMARK    4  A    between atoms: N_9  and  C_10 
REMARK    5  A    between atoms: C_25  and  N_14 
REMARK    6  A    between atoms: O_24  and  C_17 
REMARK    7  A    between atoms: C_30  and  O_24 
REMARK    8  A    between atoms: C_29  and  C_25 
ROOT
ATOM      1  C   UNL d   1      50.163  34.141  52.823  0.00  0.00     0.161 A 
ATOM      2  C   UNL d   1      48.931  35.209  52.505  0.00  0.00     0.108 A 
ATOM      3  C   UNL d   1      49.179  34.677  51.915  0.00  0.00     0.064 A 
ATOM      4  C   UNL d   1      49.793  34.147  52.076  0.00  0.00     0.222 A 
ATOM      5  C   UNL d   1      48.317  35.741  52.345  0.00  0.00     0.079 A 
ATOM      6  O   UNL d   1      49.288  35.217  53.254  0.00  0.00    -0.305 OA
ATOM      7  C   UNL d   1      49.911  34.675  53.411  0.00  0.00     0.126 A 
ATOM      8  C   UNL d   1      48.816  34.683  51.181  0.00  0.00     0.009 A 
ATOM      9  C   UNL d   1      47.956  35.741  51.605  0.00  0.00     0.199 A 
ATOM     10  O   UNL d   1      50.043  33.617  51.493  0.00  0.00    -0.284 OA
ATOM     11  C   UNL d   1      48.206  35.212  51.023  0.00  0.00     0.042 A 
ATOM     12  O   UNL d   1      47.345  36.270  51.447  0.00  0.00    -0.286 OA
ATOM     13  C   UNL d   1      50.272  34.675  54.151  0.00  0.00     0.029 C 
ENDROOT
BRANCH   1  14
ATOM     14  O   UNL d   1      50.775  33.609  52.978  0.00  0.00    -0.300 OA
BRANCH  14  15
ATOM     15  C   UNL d   1      51.556  33.868  52.947  0.00  0.00     0.123 A 
ATOM     16  C   UNL d   1      52.169  33.318  52.939  0.00  0.00     0.123 A 
ATOM     17  C   UNL d   1      52.948  33.569  52.908  0.00  0.00     0.027 A 
ATOM     18  C   UNL d   1      53.124  34.374  52.885  0.00  0.00     0.002 A 
ATOM     19  C   UNL d   1      52.505  34.933  52.892  0.00  0.00     0.002 A 
ATOM     20  C   UNL d   1      51.723  34.675  52.923  0.00  0.00     0.027 A 
BRANCH  16  21
ATOM     21  O   UNL d   1      51.998  32.512  52.963  0.00  0.00    -0.303 OA
BRANCH  21  22
ATOM     22  C   UNL d   1      52.610  31.963  52.940  0.00  0.00     0.123 C 
ATOM     23  C   UNL d   1      52.448  31.156  52.922  0.00  0.00     0.029 C 
ENDBRANCH  21  22
ENDBRANCH  16  21
ENDBRANCH  14  15
ENDBRANCH   1  14
BRANCH   5  24
ATOM     24  C   UNL d   1      48.062  36.272  52.922  0.00  0.00     0.086 C 
BRANCH  24  25
ATOM     25  N   UNL d   1      47.362  36.114  53.339  0.00  0.00    -0.300 N 
ATOM     26  C   UNL d   1      46.659  35.961  52.931  0.00  0.00     0.100 A 
ATOM     27  C   UNL d   1      45.971  35.804  53.347  0.00  0.00     0.100 A 
ATOM     28  N   UNL d   1      45.973  35.798  54.172  0.00  0.00    -0.297 N 
ATOM     29  C   UNL d   1      46.676  35.951  54.581  0.00  0.00     0.100 A 
ATOM     30  C   UNL d   1      47.377  36.110  54.163  0.00  0.00     0.100 A 
BRANCH  28  31
ATOM     31  C   UNL d   1      45.281  35.641  54.590  0.00  0.00     0.126 C 
BRANCH  31  32
ATOM     32  C   UNL d   1      44.886  34.927  54.473  0.00  0.00     0.253 C 
ATOM     33  O   UNL d   1      44.315  34.683  55.014  0.00  0.00    -0.281 OA
ENDBRANCH  31  32
ENDBRANCH  28  31
ENDBRANCH  24  25
ENDBRANCH   5  24
TORSDOF 8
ENDMDL
MODEL 4
REMARK VINA RESULT:      -4.8      1.528      5.428
REMARK  8 active torsions:
REMARK  status: ('A' for Active; 'I' for Inactive)
REMARK    1  A    between atoms: O_8  and  C_1 
REMARK    2  A    between atoms: C_10  and  C_5 
REMARK    3  A    between atoms: C_12  and  O_8 
REMARK    4  A    between atoms: N_9  and  C_10 
REMARK    5  A    between atoms: C_25  and  N_14 
REMARK    6  A    between atoms: O_24  and  C_17 
REMARK    7  A    between atoms: C_30  and  O_24 
REMARK    8  A    between atoms: C_29  and  C_25 
ROOT
ATOM      1  C   UNL d   1      52.813  31.854  53.893  0.00  0.00     0.161 A 
ATOM      2  C   UNL d   1      52.579  33.427  53.415  0.00  0.00     0.108 A 
ATOM      3  C   UNL d   1      53.065  33.263  54.071  0.00  0.00     0.064 A 
ATOM      4  C   UNL d   1      53.180  32.478  54.307  0.00  0.00     0.222 A 
ATOM      5  C   UNL d   1      52.464  34.212  53.179  0.00  0.00     0.079 A 
ATOM      6  O   UNL d   1      52.207  32.818  52.993  0.00  0.00    -0.305 OA
ATOM      7  C   UNL d   1      52.328  32.024  53.238  0.00  0.00     0.126 A 
ATOM      8  C   UNL d   1      53.425  33.876  54.477  0.00  0.00     0.009 A 
ATOM      9  C   UNL d   1      52.829  34.823  53.592  0.00  0.00     0.199 A 
ATOM     10  O   UNL d   1      53.661  32.310  54.957  0.00  0.00    -0.284 OA
ATOM     11  C   UNL d   1      53.309  34.655  54.241  0.00  0.00     0.042 A 
ATOM     12  O   UNL d   1      52.713  35.604  53.355  0.00  0.00    -0.286 OA
ATOM     13  C   UNL d   1      51.963  31.411  52.825  0.00  0.00     0.029 C 
ENDROOT
BRANCH   1  14
ATOM     14  O   UNL d   1      52.931  31.073  54.133  0.00  0.00    -0.300 OA
BRANCH  14  15
ATOM     15  C   UNL d   1      53.497  30.612  53.752  0.00  0.00     0.123 A 
ATOM     16  C   UNL d   1      53.627  29.836  53.998  0.00  0.00     0.123 A 
ATOM     17  C   UNL d   1      54.188  29.372  53.623  0.00  0.00     0.027 A 
ATOM     18  C   UNL d   1      54.627  29.678  52.996  0.00  0.00     0.002 A 
ATOM     19  C   UNL d   1      54.497  30.463  52.744  0.00  0.00     0.002 A 
ATOM     20  C   UNL d   1      53.932  30.925  53.125  0.00  0.00     0.027 A 
BRANCH  16  21
ATOM     21  O   UNL d   1      53.190  29.526  54.626  0.00  0.00    -0.303 OA
BRANCH  21  22
ATOM     22  C   UNL d   1      53.395  28.797  54.946  0.00  0.00     0.123 C 
ATOM     23  C   UNL d   1      53.098  28.562  55.676  0.00  0.00     0.029 C 
ENDBRANCH  21  22
ENDBRANCH  16  21
ENDBRANCH  14  15
ENDBRANCH   1  14
BRANCH   5  24
ATOM     24  C   UNL d   1      51.985  34.388  52.530  0.00  0.00     0.086 C 
BRANCH  24  25
ATOM     25  N   UNL d   1      51.180  34.545  52.653  0.00  0.00    -0.300 N 
ATOM     26  C   UNL d   1      50.920  34.861  53.372  0.00  0.00     0.100 A 
ATOM     27  C   UNL d   1      50.123  35.014  53.487  0.00  0.00     0.100 A 
ATOM     28  N   UNL d   1      49.576  34.856  52.891  0.00  0.00    -0.297 N 
ATOM     29  C   UNL d   1      49.835  34.540  52.171  0.00  0.00     0.100 A 
ATOM     30  C   UNL d   1      50.641  34.382  52.049  0.00  0.00     0.100 A 
BRANCH  28  31
ATOM     31  C   UNL d   1      48.776  35.010  53.008  0.00  0.00     0.126 C 
BRANCH  31  32
ATOM     32  C   UNL d   1      48.520  35.786  53.117  0.00  0.00     0.253 C 
ATOM     33  O   UNL d   1      47.716  35.945  53.190  0.00  0.00    -0.281 OA
ENDBRANCH  31  32
ENDBRANCH  28  31
ENDBRANCH  24  25
ENDBRANCH   5  24
TORSDOF 8
ENDMDL
MODEL 5
REMARK VINA RESULT:      -4.5      2.154      5.818
REMARK  8 active torsions:
REMARK  status: ('A' for Active; 'I' for Inactive)
REMARK    1  A    between atoms: O_8  and  C_1 
REMARK    2  A    between atoms: C_10  and  C_5 
REMARK    3  A    between atoms: C_12  and  O_8 
REMARK    4  A    between atoms: N_9  and  C_10 
REMARK    5  A    between atoms: C_25  and  N_14 
REMARK    6  A    between atoms: O_24  and  C_17 
REMARK    7  A    between atoms: C_30  and  O_24 
REMARK    8  A    between atoms: C_29  and  C_25 
ROOT
ATOM      1  C   UNL d   1      51.852  33.911  52.997  0.00  0.00     0.161 A 
ATOM      2  C   UNL d   1      50.380  34.155  52.268  0.00  0.00     0.108 A 
ATOM      3  C   UNL d   1      51.080  34.248  51.826  0.00  0.00     0.064 A 
ATOM      4  C   UNL d   1      51.811  34.126  52.192  0.00  0.00     0.222 A 
ATOM      5  C   UNL d   1      49.647  34.277  51.902  0.00  0.00     0.079 A 
ATOM      6  O   UNL d   1      50.402  33.942  53.069  0.00  0.00    -0.305 OA
ATOM      7  C   UNL d   1      51.149  33.819  53.434  0.00  0.00     0.126 A 
ATOM      8  C   UNL d   1      51.040  34.458  51.036  0.00  0.00     0.009 A 
ATOM      9  C   UNL d   1      49.615  34.488  51.108  0.00  0.00     0.199 A 
ATOM     10  O   UNL d   1      52.509  34.216  51.759  0.00  0.00    -0.284 OA
ATOM     11  C   UNL d   1      50.311  34.579  50.675  0.00  0.00     0.042 A 
ATOM     12  O   UNL d   1      48.884  34.609  50.746  0.00  0.00    -0.286 OA
ATOM     13  C   UNL d   1      51.182  33.607  54.230  0.00  0.00     0.029 C 
ENDROOT
BRANCH   1  14
ATOM     14  O   UNL d   1      52.585  33.790  53.357  0.00  0.00    -0.300 OA
BRANCH  14  15
ATOM     15  C   UNL d   1      52.912  33.035  53.371  0.00  0.00     0.123 A 
ATOM     16  C   UNL d   1      53.572  32.883  53.839  0.00  0.00     0.123 A 
ATOM     17  C   UNL d   1      53.902  32.133  53.857  0.00  0.00     0.027 A 
ATOM     18  C   UNL d   1      53.575  31.525  53.406  0.00  0.00     0.002 A 
ATOM     19  C   UNL d   1      52.906  31.676  52.931  0.00  0.00     0.002 A 
ATOM     20  C   UNL d   1      52.579  32.432  52.917  0.00  0.00     0.027 A 
BRANCH  16  21
ATOM     21  O   UNL d   1      53.902  33.488  54.292  0.00  0.00    -0.303 OA
BRANCH  21  22
ATOM     22  C   UNL d   1      54.583  33.345  54.731  0.00  0.00     0.123 C 
ATOM     23  C   UNL d   1      54.993  33.967  55.082  0.00  0.00     0.029 C 
ENDBRANCH  21  22
ENDBRANCH  16  21
ENDBRANCH  14  15
ENDBRANCH   1  14
BRANCH   5  24
ATOM     24  C   UNL d   1      48.947  34.188  52.329  0.00  0.00     0.086 C 
BRANCH  24  25
ATOM     25  N   UNL d   1      48.413  34.822  52.369  0.00  0.00    -0.300 N 
ATOM     26  C   UNL d   1      48.506  35.411  52.942  0.00  0.00     0.100 A 
ATOM     27  C   UNL d   1      47.976  36.036  52.977  0.00  0.00     0.100 A 
ATOM     28  N   UNL d   1      47.349  36.082  52.443  0.00  0.00    -0.297 N 
ATOM     29  C   UNL d   1      47.255  35.493  51.869  0.00  0.00     0.100 A 
ATOM     30  C   UNL d   1      47.790  34.858  51.830  0.00  0.00     0.100 A 
BRANCH  28  31
ATOM     31  C   UNL d   1      46.818  36.709  52.479  0.00  0.00     0.126 C 
BRANCH  31  32
ATOM     32  C   UNL d   1      46.125  36.685  52.033  0.00  0.00     0.253 C 
ATOM     33  O   UNL d   1      45.398  36.610  52.411  0.00  0.00    -0.281 OA
ENDBRANCH  31  32
ENDBRANCH  28  31
ENDBRANCH  24  25
ENDBRANCH   5  24
TORSDOF 8
ENDMDL
MODEL 6
REMARK VINA RESULT:      -3.6      1.015      1.490
REMARK  8 active torsions:
REMARK  status: ('A' for Active; 'I' for Inactive)
REMARK    1  A    between atoms: O_8  and  C_1 
REMARK    2  A    between atoms: C_10  and  C_5 
REMARK    3  A    between atoms: C_12  and  O_8 
REMARK    4  A    between atoms: N_9  and  C_10 
REMARK    5  A    between atoms: C_25  and  N_14 
REMARK    6  A    between atoms: O_24  and  C_17 
REMARK    7  A    between atoms: C_30  and  O_24 
REMARK    8  A    between atoms: C_29  and  C_25 
ROOT
ATOM      1  C   UNL d   1      50.436  34.160  52.613  0.00  0.00     0.161 A 
ATOM      2  C   UNL d   1      51.968  33.810  53.152  0.00  0.00     0.108 A 
ATOM      3  C   UNL d   1      51.866  34.298  52.485  0.00  0.00     0.064 A 
ATOM      4  C   UNL d   1      51.102  34.471  52.219  0.00  0.00     0.222 A 
ATOM      5  C   UNL d   1      52.732  33.636  53.419  0.00  0.00     0.079 A 
ATOM      6  O   UNL d   1      51.316  33.492  53.555  0.00  0.00    -0.305 OA
ATOM      7  C   UNL d   1      50.543  33.672  53.280  0.00  0.00     0.126 A 
ATOM      8  C   UNL d   1      52.520  34.604  52.099  0.00  0.00     0.009 A 
ATOM      9  C   UNL d   1      53.384  33.947  53.025  0.00  0.00     0.199 A 
ATOM     10  O   UNL d   1      50.996  34.955  51.559  0.00  0.00    -0.284 OA
ATOM     11  C   UNL d   1      53.278  34.431  52.365  0.00  0.00     0.042 A 
ATOM     12  O   UNL d   1      54.144  33.773  53.292  0.00  0.00    -0.286 OA
ATOM     13  C   UNL d   1      49.889  33.361  53.673  0.00  0.00     0.029 C 
ENDROOT
BRANCH   1  14
ATOM     14  O   UNL d   1      49.676  34.336  52.343  0.00  0.00    -0.300 OA
BRANCH  14  15
ATOM     15  C   UNL d   1      49.241  34.930  52.711  0.00  0.00     0.123 A 
ATOM     16  C   UNL d   1      48.545  35.203  52.365  0.00  0.00     0.123 A 
ATOM     17  C   UNL d   1      48.108  35.794  52.726  0.00  0.00     0.027 A 
ATOM     18  C   UNL d   1      48.362  36.121  53.439  0.00  0.00     0.002 A 
ATOM     19  C   UNL d   1      49.066  35.847  53.792  0.00  0.00     0.002 A 
ATOM     20  C   UNL d   1      49.502  35.252  53.425  0.00  0.00     0.027 A 
BRANCH  16  21
ATOM     21  O   UNL d   1      48.287  34.879  51.652  0.00  0.00    -0.303 OA
BRANCH  21  22
ATOM     22  C   UNL d   1      47.552  35.089  51.349  0.00  0.00     0.123 C 
ATOM     23  C   UNL d   1      47.252  34.714  50.681  0.00  0.00     0.029 C 
ENDBRANCH  21  22
ENDBRANCH  16  21
ENDBRANCH  14  15
ENDBRANCH   1  14
BRANCH   5  24
ATOM     24  C   UNL d   1      52.845  33.153  54.078  0.00  0.00     0.086 C 
BRANCH  24  25
ATOM     25  N   UNL d   1      53.046  32.356  53.966  0.00  0.00    -0.300 N 
ATOM     26  C   UNL d   1      53.340  31.907  54.595  0.00  0.00     0.100 A 
ATOM     27  C   UNL d   1      53.537  31.120  54.480  0.00  0.00     0.100 A 
ATOM     28  N   UNL d   1      53.445  30.770  53.738  0.00  0.00    -0.297 N 
ATOM     29  C   UNL d   1      53.151  31.219  53.108  0.00  0.00     0.100 A 
ATOM     30  C   UNL d   1      52.950  32.017  53.220  0.00  0.00     0.100 A 
BRANCH  28  31
ATOM     31  C   UNL d   1      53.643  29.980  53.622  0.00  0.00     0.126 C 
BRANCH  31  32
ATOM     32  C   UNL d   1      53.141  29.387  53.898  0.00  0.00     0.253 C 
ATOM     33  O   UNL d   1      53.248  28.611  53.648  0.00  0.00    -0.281 OA
ENDBRANCH  31  32
ENDBRANCH  28  31
ENDBRANCH  24  25
ENDBRANCH   5  24
TORSDOF 8
ENDMDL
