MODEL 1
REMARK VINA RESULT:       3.4      0.000      0.000
REMARK  4 active torsions:
REMARK  status: ('A' for Active; 'I' for Inactive)
REMARK    1  A    between atoms: C_3  and  C_1 
REMARK    2  A    between atoms: C_11  and  N_2 
REMARK    3  A    between atoms: C_12  and  C_11 
REMARK       I    between atoms: N_13  and  C_12 
REMARK    4  A    between atoms: C_16  and  N_13 
ROOT
ATOM      1  C   UNL d   1     -43.134-122.648 -49.564  0.00  0.00     0.171 A 
ATOM      2  N   UNL d   1     -42.383-122.952 -49.744  0.00  0.00    -0.284 N 
ATOM      3  N   UNL d   1     -43.251-122.734 -48.748  0.00  0.00    -0.225 NA
ATOM      4  C   UNL d   1     -42.045-123.221 -49.044  0.00  0.00     0.083 A 
ATOM      5  C   UNL d   1     -42.580-123.086 -48.430  0.00  0.00     0.099 A 
ATOM      6  C   UNL d   1     -41.296-123.582 -48.879  0.00  0.00     0.019 A 
ATOM      7  C   UNL d   1     -42.374-123.311 -47.641  0.00  0.00     0.021 A 
ATOM      8  C   UNL d   1     -41.123-123.788 -48.117  0.00  0.00     0.002 A 
ATOM      9  C   UNL d   1     -41.657-123.654 -47.503  0.00  0.00     0.002 A 
ENDROOT
BRANCH   2  10
ATOM     10  C   UNL d   1     -42.047-122.975 -50.496  0.00  0.00     0.145 C 
BRANCH  10  11
ATOM     11  C   UNL d   1     -41.445-122.454 -50.677  0.00  0.00     0.297 C 
ATOM     12  N   UNL d   1     -41.123-122.442 -51.439  0.00  0.00    -0.207 NA
ATOM     13  O   UNL d   1     -41.145-121.928 -50.106  0.00  0.00    -0.264 OA
BRANCH  12  14
ATOM     14  C   UNL d   1     -41.231-122.836 -52.152  0.00  0.00     0.085 A 
ATOM     15  C   UNL d   1     -41.160-123.651 -52.280  0.00  0.00     0.019 A 
ATOM     16  C   UNL d   1     -41.316-123.799 -53.071  0.00  0.00     0.002 A 
ATOM     17  C   UNL d   1     -41.486-123.089 -53.449  0.00  0.00     0.002 A 
ATOM     18  C   UNL d   1     -41.433-122.505 -52.883  0.00  0.00     0.019 A 
ENDBRANCH  12  14
ENDBRANCH  10  11
ENDBRANCH   2  10
BRANCH   1  19
ATOM     19  C   UNL d   1     -43.672-122.317 -50.106  0.00  0.00     0.184 A 
ATOM     20  C   UNL d   1     -44.381-122.659 -50.353  0.00  0.00     0.235 A 
ATOM     21  N   UNL d   1     -44.740-122.141 -50.892  0.00  0.00    -0.081 NA
ATOM     22  N   UNL d   1     -44.683-123.387 -50.112  0.00  0.00    -0.123 N 
ATOM     23  O   UNL d   1     -44.251-121.481 -50.974  0.00  0.00    -0.104 OA
ATOM     24  N   UNL d   1     -43.588-121.589 -50.486  0.00  0.00    -0.097 NA
ENDBRANCH   1  19
TORSDOF 4
ENDMDL
MODEL 2
REMARK VINA RESULT:       6.3      1.990      4.092
REMARK  4 active torsions:
REMARK  status: ('A' for Active; 'I' for Inactive)
REMARK    1  A    between atoms: C_3  and  C_1 
REMARK    2  A    between atoms: C_11  and  N_2 
REMARK    3  A    between atoms: C_12  and  C_11 
REMARK       I    between atoms: N_13  and  C_12 
REMARK    4  A    between atoms: C_16  and  N_13 
ROOT
ATOM      1  C   UNL d   1     -41.483-121.850 -53.003  0.00  0.00     0.171 A 
ATOM      2  N   UNL d   1     -41.552-121.785 -52.179  0.00  0.00    -0.284 N 
ATOM      3  N   UNL d   1     -41.312-121.096 -53.302  0.00  0.00    -0.225 NA
ATOM      4  C   UNL d   1     -41.424-120.999 -51.976  0.00  0.00     0.083 A 
ATOM      5  C   UNL d   1     -41.276-120.574 -52.668  0.00  0.00     0.099 A 
ATOM      6  C   UNL d   1     -41.423-120.600 -51.228  0.00  0.00     0.019 A 
ATOM      7  C   UNL d   1     -41.124-119.743 -52.623  0.00  0.00     0.021 A 
ATOM      8  C   UNL d   1     -41.275-119.805 -51.211  0.00  0.00     0.002 A 
ATOM      9  C   UNL d   1     -41.127-119.380 -51.903  0.00  0.00     0.002 A 
ENDROOT
BRANCH   2  10
ATOM     10  C   UNL d   1     -41.720-122.407 -51.665  0.00  0.00     0.145 C 
BRANCH  10  11
ATOM     11  C   UNL d   1     -42.467-122.462 -51.340  0.00  0.00     0.297 C 
ATOM     12  N   UNL d   1     -42.568-122.796 -50.590  0.00  0.00    -0.207 NA
ATOM     13  O   UNL d   1     -43.136-122.187 -51.751  0.00  0.00    -0.264 OA
BRANCH  12  14
ATOM     14  C   UNL d   1     -42.099-123.127 -50.003  0.00  0.00     0.085 A 
ATOM     15  C   UNL d   1     -42.207-123.053 -49.185  0.00  0.00     0.019 A 
ATOM     16  C   UNL d   1     -41.610-123.473 -48.810  0.00  0.00     0.002 A 
ATOM     17  C   UNL d   1     -41.123-123.813 -49.379  0.00  0.00     0.002 A 
ATOM     18  C   UNL d   1     -41.426-123.599 -50.105  0.00  0.00     0.019 A 
ENDBRANCH  12  14
ENDBRANCH  10  11
ENDBRANCH   2  10
BRANCH   1  19
ATOM     19  C   UNL d   1     -41.570-122.547 -53.450  0.00  0.00     0.184 A 
ATOM     20  C   UNL d   1     -42.031-122.631 -54.130  0.00  0.00     0.235 A 
ATOM     21  N   UNL d   1     -41.957-123.415 -54.392  0.00  0.00    -0.081 NA
ATOM     22  N   UNL d   1     -42.486-122.045 -54.488  0.00  0.00    -0.123 N 
ATOM     23  O   UNL d   1     -41.451-123.810 -53.874  0.00  0.00    -0.104 OA
ATOM     24  N   UNL d   1     -41.210-123.273 -53.289  0.00  0.00    -0.097 NA
ENDBRANCH   1  19
TORSDOF 4
ENDMDL
