MODEL 1
REMARK VINA RESULT:      26.0      0.000      0.000
REMARK  4 active torsions:
REMARK  status: ('A' for Active; 'I' for Inactive)
REMARK    1  A    between atoms: S_9  and  C_1 
REMARK    2  A    between atoms: N_3  and  C_7 
REMARK    3  A    between atoms: C_13  and  S_9 
REMARK    4  A    between atoms: C_14  and  C_13 
ROOT
ATOM      1  S   UNL d   1     -54.779-101.672 -41.448  0.00  0.00    -0.042 SA
ENDROOT
BRANCH   1   2
ATOM      2  C   UNL d   1     -54.800-101.596 -42.263  0.00  0.00     0.215 A 
ATOM      3  N   UNL d   1     -54.711-102.217 -42.790  0.00  0.00    -0.214 NA
ATOM      4  C   UNL d   1     -54.767-101.908 -43.533  0.00  0.00     0.107 A 
ATOM      5  C   UNL d   1     -54.722-102.257 -44.279  0.00  0.00     0.021 A 
ATOM      6  C   UNL d   1     -54.889-101.100 -43.474  0.00  0.00     0.120 A 
ATOM      7  C   UNL d   1     -54.798-101.808 -44.967  0.00  0.00     0.002 A 
ATOM      8  C   UNL d   1     -54.921-101.000 -44.908  0.00  0.00     0.002 A 
ATOM      9  C   UNL d   1     -54.965-100.652 -44.162  0.00  0.00     0.026 A 
ATOM     10  O   UNL d   1     -54.911-100.898 -42.693  0.00  0.00    -0.283 OA
ENDBRANCH   1   2
BRANCH   1  11
ATOM     11  C   UNL d   1     -55.195-102.298 -41.108  0.00  0.00     0.039 C 
BRANCH  11  12
ATOM     12  C   UNL d   1     -55.251-102.346 -40.297  0.00  0.00     0.007 A 
ATOM     13  C   UNL d   1     -54.757-102.827 -39.884  0.00  0.00     0.002 A 
ATOM     14  C   UNL d   1     -54.815-102.876 -39.050  0.00  0.00     0.024 A 
ATOM     15  C   UNL d   1     -55.367-102.442 -38.646  0.00  0.00     0.127 A 
ATOM     16  C   UNL d   1     -55.897-101.929 -39.070  0.00  0.00     0.024 A 
ATOM     17  C   UNL d   1     -55.820-101.896 -39.904  0.00  0.00     0.002 A 
BRANCH  15  18
ATOM     18  N   UNL d   1     -55.386-102.522 -37.835  0.00  0.00    -0.114 N 
ATOM     19  O   UNL d   1     -56.076-102.778 -37.514  0.00  0.00    -0.532 OA
ATOM     20  O   UNL d   1     -54.713-102.345 -37.365  0.00  0.00    -0.532 OA
ENDBRANCH  15  18
ENDBRANCH  11  12
ENDBRANCH   1  11
TORSDOF 4
ENDMDL
MODEL 2
REMARK VINA RESULT:      28.2      1.552      5.115
REMARK  4 active torsions:
REMARK  status: ('A' for Active; 'I' for Inactive)
REMARK    1  A    between atoms: S_9  and  C_1 
REMARK    2  A    between atoms: N_3  and  C_7 
REMARK    3  A    between atoms: C_13  and  S_9 
REMARK    4  A    between atoms: C_14  and  C_13 
ROOT
ATOM      1  S   UNL d   1     -55.123-101.942 -41.484  0.00  0.00    -0.042 SA
ENDROOT
BRANCH   1   2
ATOM      2  C   UNL d   1     -55.252-102.130 -40.698  0.00  0.00     0.215 A 
ATOM      3  N   UNL d   1     -54.721-101.979 -40.092  0.00  0.00    -0.214 NA
ATOM      4  C   UNL d   1     -55.059-102.248 -39.409  0.00  0.00     0.107 A 
ATOM      5  C   UNL d   1     -54.793-102.250 -38.628  0.00  0.00     0.021 A 
ATOM      6  C   UNL d   1     -55.794-102.563 -39.585  0.00  0.00     0.120 A 
ATOM      7  C   UNL d   1     -55.254-102.564 -38.020  0.00  0.00     0.002 A 
ATOM      8  C   UNL d   1     -55.989-102.879 -38.195  0.00  0.00     0.002 A 
ATOM      9  C   UNL d   1     -56.254-102.877 -38.976  0.00  0.00     0.026 A 
ATOM     10  O   UNL d   1     -55.922-102.495 -40.378  0.00  0.00    -0.283 OA
ENDBRANCH   1   2
BRANCH   1  11
ATOM     11  C   UNL d   1     -54.711-101.248 -41.653  0.00  0.00     0.039 C 
BRANCH  11  12
ATOM     12  C   UNL d   1     -54.754-100.931 -42.402  0.00  0.00     0.007 A 
ATOM     13  C   UNL d   1     -54.786-100.133 -42.502  0.00  0.00     0.002 A 
ATOM     14  C   UNL d   1     -54.830 -99.806 -43.273  0.00  0.00     0.024 A 
ATOM     15  C   UNL d   1     -54.842-100.284 -43.926  0.00  0.00     0.127 A 
ATOM     16  C   UNL d   1     -54.810-101.130 -43.835  0.00  0.00     0.024 A 
ATOM     17  C   UNL d   1     -54.766-101.434 -43.055  0.00  0.00     0.002 A 
BRANCH  15  18
ATOM     18  N   UNL d   1     -54.886 -99.921 -44.655  0.00  0.00    -0.114 N 
ATOM     19  O   UNL d   1     -54.860-100.400 -45.299  0.00  0.00    -0.532 OA
ATOM     20  O   UNL d   1     -54.956 -99.087 -44.720  0.00  0.00    -0.532 OA
ENDBRANCH  15  18
ENDBRANCH  11  12
ENDBRANCH   1  11
TORSDOF 4
ENDMDL
