MODEL 1
REMARK VINA RESULT:       7.8      0.000      0.000
REMARK  6 active torsions:
REMARK  status: ('A' for Active; 'I' for Inactive)
REMARK    1  A    between atoms: O_4  and  C_1 
REMARK    2  A    between atoms: C_9  and  C_2 
REMARK    3  A    between atoms: C_5  and  O_4 
REMARK    4  A    between atoms: C_11  and  C_5 
REMARK    5  A    between atoms: N_10  and  C_9 
REMARK    6  A    between atoms: O_19  and  C_17 
ROOT
ATOM      1  C   UNL d   1      32.556  19.819 -23.229  0.00  0.00     0.122 A 
ATOM      2  C   UNL d   1      32.868  19.731 -22.471  0.00  0.00     0.043 A 
ATOM      3  C   UNL d   1      32.255  19.163 -23.629  0.00  0.00     0.105 A 
ATOM      4  C   UNL d   1      32.266  18.421 -23.271  0.00  0.00     0.030 A 
ATOM      5  C   UNL d   1      32.579  18.342 -22.517  0.00  0.00     0.059 A 
ATOM      6  C   UNL d   1      32.880  18.989 -22.113  0.00  0.00     0.015 A 
ATOM      7  N   UNL d   1      31.946  19.255 -24.380  0.00  0.00    -0.242 NA
ATOM      8 CL   UNL d   1      32.580  17.580 -22.175  0.00  0.00    -0.082 Cl
ATOM      9  C   UNL d   1      31.969  17.777 -23.668  0.00  0.00     0.004 A 
ATOM     10  C   UNL d   1      31.645  18.599 -24.780  0.00  0.00     0.099 A 
ATOM     11  C   UNL d   1      31.656  17.857 -24.422  0.00  0.00     0.021 A 
ENDROOT
BRANCH   1  12
ATOM     12  O   UNL d   1      32.540  20.487 -23.562  0.00  0.00    -0.271 OA
BRANCH  12  13
ATOM     13  C   UNL d   1      32.884  20.944 -24.338  0.00  0.00     0.300 C 
ATOM     14  O   UNL d   1      33.240  20.333 -25.051  0.00  0.00    -0.259 OA
BRANCH  13  15
ATOM     15  C   UNL d   1      32.876  21.766 -24.390  0.00  0.00     0.066 A 
ATOM     16  C   UNL d   1      32.519  22.216 -23.788  0.00  0.00     0.029 A 
ATOM     17  C   UNL d   1      32.512  23.048 -23.844  0.00  0.00     0.094 A 
ATOM     18  C   UNL d   1      32.862  23.431 -24.499  0.00  0.00     0.024 A 
ATOM     19  C   UNL d   1      33.217  22.979 -25.097  0.00  0.00     0.002 A 
ATOM     20  C   UNL d   1      33.223  22.148 -25.040  0.00  0.00     0.005 A 
BRANCH  17  21
ATOM     21  O   UNL d   1      32.133  23.419 -23.195  0.00  0.00    -0.328 OA
ATOM     22  C   UNL d   1      32.808  23.702 -22.773  0.00  0.00     0.181 C 
ENDBRANCH  17  21
ENDBRANCH  13  15
ENDBRANCH  12  13
ENDBRANCH   1  12
BRANCH   2  23
ATOM     23  C   UNL d   1      33.237  20.323 -21.886  0.00  0.00     0.082 C 
BRANCH  23  24
ATOM     24  N   UNL d   1      32.785  20.611 -21.265  0.00  0.00    -0.299 N 
ATOM     25  C   UNL d   1      32.017  20.848 -21.388  0.00  0.00     0.107 A 
ATOM     26  C   UNL d   1      31.564  21.137 -20.769  0.00  0.00     0.142 A 
ATOM     27  O   UNL d   1      31.896  21.186 -20.011  0.00  0.00    -0.300 OA
ATOM     28  C   UNL d   1      32.666  20.949 -19.881  0.00  0.00     0.142 A 
ATOM     29  C   UNL d   1      33.109  20.661 -20.517  0.00  0.00     0.107 A 
ENDBRANCH  23  24
ENDBRANCH   2  23
TORSDOF 6
ENDMDL
MODEL 2
REMARK VINA RESULT:       8.6      1.680      4.329
REMARK  6 active torsions:
REMARK  status: ('A' for Active; 'I' for Inactive)
REMARK    1  A    between atoms: O_4  and  C_1 
REMARK    2  A    between atoms: C_9  and  C_2 
REMARK    3  A    between atoms: C_5  and  O_4 
REMARK    4  A    between atoms: C_11  and  C_5 
REMARK    5  A    between atoms: N_10  and  C_9 
REMARK    6  A    between atoms: O_19  and  C_17 
ROOT
ATOM      1  C   UNL d   1      32.702  21.466 -22.218  0.00  0.00     0.122 A 
ATOM      2  C   UNL d   1      32.550  20.842 -22.735  0.00  0.00     0.043 A 
ATOM      3  C   UNL d   1      32.879  22.214 -22.517  0.00  0.00     0.105 A 
ATOM      4  C   UNL d   1      32.904  22.338 -23.331  0.00  0.00     0.030 A 
ATOM      5  C   UNL d   1      32.752  21.712 -23.839  0.00  0.00     0.059 A 
ATOM      6  C   UNL d   1      32.575  20.965 -23.549  0.00  0.00     0.015 A 
ATOM      7  N   UNL d   1      33.028  22.831 -22.001  0.00  0.00    -0.242 NA
ATOM      8 CL   UNL d   1      32.783  21.861 -24.660  0.00  0.00    -0.082 Cl
ATOM      9  C   UNL d   1      33.078  23.076 -23.622  0.00  0.00     0.004 A 
ATOM     10  C   UNL d   1      33.205  23.579 -22.300  0.00  0.00     0.099 A 
ATOM     11  C   UNL d   1      33.230  23.702 -23.114  0.00  0.00     0.021 A 
ENDROOT
BRANCH   1  12
ATOM     12  O   UNL d   1      32.682  21.365 -21.478  0.00  0.00    -0.271 OA
BRANCH  12  13
ATOM     13  C   UNL d   1      32.128  21.554 -20.712  0.00  0.00     0.300 C 
ATOM     14  O   UNL d   1      31.144  21.438 -20.878  0.00  0.00    -0.259 OA
BRANCH  13  15
ATOM     15  C   UNL d   1      32.456  21.789 -19.994  0.00  0.00     0.066 A 
ATOM     16  C   UNL d   1      32.381  22.578 -19.743  0.00  0.00     0.029 A 
ATOM     17  C   UNL d   1      32.714  22.813 -19.015  0.00  0.00     0.094 A 
ATOM     18  C   UNL d   1      33.121  22.260 -18.538  0.00  0.00     0.024 A 
ATOM     19  C   UNL d   1      33.193  21.474 -18.792  0.00  0.00     0.002 A 
ATOM     20  C   UNL d   1      32.860  21.241 -19.520  0.00  0.00     0.005 A 
BRANCH  17  21
ATOM     21  O   UNL d   1      32.591  23.623 -18.842  0.00  0.00    -0.328 OA
ATOM     22  C   UNL d   1      31.836  23.579 -18.465  0.00  0.00     0.181 C 
ENDBRANCH  17  21
ENDBRANCH  13  15
ENDBRANCH  12  13
ENDBRANCH   1  12
BRANCH   2  23
ATOM     23  C   UNL d   1      32.342  19.966 -22.597  0.00  0.00     0.082 C 
BRANCH  23  24
ATOM     24  N   UNL d   1      32.460  19.423 -23.201  0.00  0.00    -0.299 N 
ATOM     25  C   UNL d   1      31.952  18.795 -23.296  0.00  0.00     0.107 A 
ATOM     26  C   UNL d   1      32.067  18.252 -23.899  0.00  0.00     0.142 A 
ATOM     27  O   UNL d   1      32.709  18.347 -24.414  0.00  0.00    -0.300 OA
ATOM     28  C   UNL d   1      33.222  18.975 -24.324  0.00  0.00     0.142 A 
ATOM     29  C   UNL d   1      33.091  19.515 -23.711  0.00  0.00     0.107 A 
ENDBRANCH  23  24
ENDBRANCH   2  23
TORSDOF 6
ENDMDL
MODEL 3
REMARK VINA RESULT:      10.0      3.478      5.800
REMARK  6 active torsions:
REMARK  status: ('A' for Active; 'I' for Inactive)
REMARK    1  A    between atoms: O_4  and  C_1 
REMARK    2  A    between atoms: C_9  and  C_2 
REMARK    3  A    between atoms: C_5  and  O_4 
REMARK    4  A    between atoms: C_11  and  C_5 
REMARK    5  A    between atoms: N_10  and  C_9 
REMARK    6  A    between atoms: O_19  and  C_17 
ROOT
ATOM      1  C   UNL d   1      31.200  17.253 -23.635  0.00  0.00     0.122 A 
ATOM      2  C   UNL d   1      31.112  17.651 -24.352  0.00  0.00     0.043 A 
ATOM      3  C   UNL d   1      31.882  17.362 -23.184  0.00  0.00     0.105 A 
ATOM      4  C   UNL d   1      32.475  17.869 -23.450  0.00  0.00     0.030 A 
ATOM      5  C   UNL d   1      32.381  18.261 -24.164  0.00  0.00     0.059 A 
ATOM      6  C   UNL d   1      31.706  18.157 -24.618  0.00  0.00     0.015 A 
ATOM      7  N   UNL d   1      31.965  16.966 -22.474  0.00  0.00    -0.242 NA
ATOM      8 CL   UNL d   1      32.995  18.769 -24.413  0.00  0.00    -0.082 Cl
ATOM      9  C   UNL d   1      33.146  17.973 -23.003  0.00  0.00     0.004 A 
ATOM     10  C   UNL d   1      32.647  17.075 -22.023  0.00  0.00     0.099 A 
ATOM     11  C   UNL d   1      33.241  17.581 -22.289  0.00  0.00     0.021 A 
ENDROOT
BRANCH   1  12
ATOM     12  O   UNL d   1      30.668  16.792 -23.385  0.00  0.00    -0.271 OA
BRANCH  12  13
ATOM     13  C   UNL d   1      30.157  16.022 -23.658  0.00  0.00     0.300 C 
ATOM     14  O   UNL d   1      30.577  15.492 -24.400  0.00  0.00    -0.259 OA
BRANCH  13  15
ATOM     15  C   UNL d   1      29.440  15.834 -23.299  0.00  0.00     0.066 A 
ATOM     16  C   UNL d   1      28.754  15.750 -23.762  0.00  0.00     0.029 A 
ATOM     17  C   UNL d   1      28.030  15.560 -23.395  0.00  0.00     0.094 A 
ATOM     18  C   UNL d   1      27.989  15.453 -22.567  0.00  0.00     0.024 A 
ATOM     19  C   UNL d   1      28.676  15.537 -22.109  0.00  0.00     0.002 A 
ATOM     20  C   UNL d   1      29.399  15.727 -22.476  0.00  0.00     0.005 A 
BRANCH  17  21
ATOM     21  O   UNL d   1      27.393  15.495 -23.936  0.00  0.00    -0.328 OA
ATOM     22  C   UNL d   1      26.745  15.656 -23.417  0.00  0.00     0.181 C 
ENDBRANCH  17  21
ENDBRANCH  13  15
ENDBRANCH  12  13
ENDBRANCH   1  12
BRANCH   2  23
ATOM     23  C   UNL d   1      30.447  17.658 -24.973  0.00  0.00     0.082 C 
BRANCH  23  24
ATOM     24  N   UNL d   1      29.940  18.303 -25.014  0.00  0.00    -0.299 N 
ATOM     25  C   UNL d   1      29.134  18.195 -25.015  0.00  0.00     0.107 A 
ATOM     26  C   UNL d   1      28.626  18.836 -25.056  0.00  0.00     0.142 A 
ATOM     27  O   UNL d   1      28.941  19.602 -25.097  0.00  0.00    -0.300 OA
ATOM     28  C   UNL d   1      29.749  19.717 -25.097  0.00  0.00     0.142 A 
ATOM     29  C   UNL d   1      30.248  19.058 -25.055  0.00  0.00     0.107 A 
ENDBRANCH  23  24
ENDBRANCH   2  23
TORSDOF 6
ENDMDL
