MODEL 1
REMARK VINA RESULT:       4.5      0.000      0.000
REMARK  6 active torsions:
REMARK  status: ('A' for Active; 'I' for Inactive)
REMARK    1  A    between atoms: N_7  and  C_1 
REMARK    2  A    between atoms: S_2  and  C_14 
REMARK    3  A    between atoms: N_9  and  S_2 
REMARK       I    between atoms: C_11  and  N_7 
REMARK       I    between atoms: C_10  and  N_8 
REMARK    4  A    between atoms: O_27  and  C_10 
REMARK    5  A    between atoms: C_19  and  C_11 
REMARK    6  A    between atoms: C_30  and  O_27 
ROOT
ATOM      1  C   UNL d   1      55.933   0.571  33.205  0.00  0.00     0.099 A 
ATOM      2  C   UNL d   1      55.905   0.617  34.028  0.00  0.00     0.091 A 
ATOM      3  C   UNL d   1      54.641   0.586  33.595  0.00  0.00     0.049 A 
ATOM      4  C   UNL d   1      55.115   0.627  34.270  0.00  0.00     0.021 A 
ATOM      5  S   UNL d   1      55.140   0.551  32.931  0.00  0.00    -0.068 SA
ATOM      6  N   UNL d   1      53.462   0.626  34.415  0.00  0.00    -0.251 N 
ATOM      7  C   UNL d   1      52.642   0.626  34.486  0.00  0.00     0.378 C 
ATOM      8  C   UNL d   1      53.811   0.585  33.665  0.00  0.00     0.091 A 
ATOM      9  C   UNL d   1      56.552   0.650  34.536  0.00  0.00     0.103 C 
ATOM     10  N   UNL d   1      57.203   0.681  35.029  0.00  0.00    -0.191 NA
ATOM     11  C   UNL d   1      54.760   0.668  35.017  0.00  0.00     0.020 A 
ATOM     12  C   UNL d   1      53.938   0.667  35.084  0.00  0.00     0.085 A 
ATOM     13  O   UNL d   1      52.161   0.585  33.819  0.00  0.00    -0.237 OA
ENDROOT
BRANCH   1  14
ATOM     14  N   UNL d   1      56.621   0.548  32.741  0.00  0.00    -0.316 N 
ATOM     15  C   UNL d   1      56.632   0.099  32.037  0.00  0.00     0.258 C 
ATOM     16  O   UNL d   1      55.955  -0.319  31.809  0.00  0.00    -0.267 OA
ATOM     17  H   UNL d   1      57.222   0.667  32.551  0.00  0.00     0.169 HD
BRANCH  15  18
ATOM     18  C   UNL d   1      57.319   0.077  31.574  0.00  0.00     0.056 A 
ATOM     19  C   UNL d   1      57.994   0.471  31.833  0.00  0.00     0.005 A 
ATOM     20  C   UNL d   1      58.688   0.453  31.374  0.00  0.00     0.013 A 
ATOM     21  C   UNL d   1      58.691   0.035  30.655  0.00  0.00     0.104 A 
ATOM     22  C   UNL d   1      58.004  -0.359  30.404  0.00  0.00     0.013 A 
ATOM     23  C   UNL d   1      57.320  -0.340  30.859  0.00  0.00     0.005 A 
BRANCH  21  24
ATOM     24  S   UNL d   1      59.381   0.015  30.194  0.00  0.00     0.271 S 
ATOM     25  O   UNL d   1      59.812   0.115  30.900  0.00  0.00    -0.200 OA
ATOM     26  O   UNL d   1      58.953  -0.084  29.496  0.00  0.00    -0.200 OA
BRANCH  24  27
ATOM     27  N   UNL d   1      60.069  -0.004  29.739  0.00  0.00    -0.229 N 
ATOM     28  C   UNL d   1      60.475  -0.691  29.504  0.00  0.00     0.092 A 
ATOM     29  C   UNL d   1      61.127  -0.459  29.060  0.00  0.00     0.021 A 
ATOM     30  C   UNL d   1      61.133   0.363  29.016  0.00  0.00     0.021 A 
ATOM     31  C   UNL d   1      60.480   0.640  29.435  0.00  0.00     0.092 A 
ENDBRANCH  24  27
ENDBRANCH  21  24
ENDBRANCH  15  18
ENDBRANCH   1  14
BRANCH   7  32
ATOM     32  O   UNL d   1      52.295   0.667  35.244  0.00  0.00    -0.257 OA
BRANCH  32  33
ATOM     33  C   UNL d   1      51.484   0.631  35.315  0.00  0.00     0.128 C 
ATOM     34  C   UNL d   1      51.144   0.059  35.795  0.00  0.00     0.029 C 
ENDBRANCH  32  33
ENDBRANCH   7  32
TORSDOF 6
ENDMDL
