MODEL 1
REMARK VINA RESULT:      11.9      0.000      0.000
REMARK  2 active torsions:
REMARK  status: ('A' for Active; 'I' for Inactive)
REMARK    1  A    between atoms: C_6  and  N_1 
REMARK    2  A    between atoms: C_7  and  C_6 
ROOT
ATOM      1  N   UNL d   1      44.355 -16.079  36.544  0.00  0.00    -0.287 N 
ATOM      2  N   UNL d   1      43.569 -17.158  36.332  0.00  0.00    -0.224 NA
ATOM      3  C   UNL d   1      44.370 -16.897  36.433  0.00  0.00     0.183 A 
ATOM      4  C   UNL d   1      43.588 -15.828  36.516  0.00  0.00     0.083 A 
ATOM      5  C   UNL d   1      43.091 -16.509  36.382  0.00  0.00     0.099 A 
ATOM      6  C   UNL d   1      43.250 -15.080  36.591  0.00  0.00     0.019 A 
ATOM      7  C   UNL d   1      42.266 -16.378  36.332  0.00  0.00     0.021 A 
ATOM      8  C   UNL d   1      42.432 -14.989  36.537  0.00  0.00     0.002 A 
ATOM      9  C   UNL d   1      41.952 -15.647  36.407  0.00  0.00     0.002 A 
ENDROOT
BRANCH   1  10
ATOM     10  C   UNL d   1      44.415 -15.298  36.656  0.00  0.00     0.082 C 
BRANCH  10  11
ATOM     11  C   UNL d   1      45.157 -14.977  36.819  0.00  0.00     0.018 A 
ATOM     12  C   UNL d   1      45.837 -15.333  36.515  0.00  0.00     0.002 A 
ATOM     13  C   UNL d   1      46.583 -15.013  36.677  0.00  0.00     0.000 A 
ATOM     14  C   UNL d   1      46.647 -14.336  37.144  0.00  0.00     0.000 A 
ATOM     15  C   UNL d   1      45.963 -13.979  37.449  0.00  0.00     0.000 A 
ATOM     16  C   UNL d   1      45.220 -14.301  37.286  0.00  0.00     0.002 A 
ENDBRANCH  10  11
ENDBRANCH   1  10
TORSDOF 2
ENDMDL
MODEL 2
REMARK VINA RESULT:      12.8      0.690      3.172
REMARK  2 active torsions:
REMARK  status: ('A' for Active; 'I' for Inactive)
REMARK    1  A    between atoms: C_6  and  N_1 
REMARK    2  A    between atoms: C_7  and  C_6 
ROOT
ATOM      1  N   UNL d   1      44.727 -15.751  36.664  0.00  0.00    -0.287 N 
ATOM      2  N   UNL d   1      45.984 -16.144  36.357  0.00  0.00    -0.224 NA
ATOM      3  C   UNL d   1      45.168 -16.376  36.351  0.00  0.00     0.183 A 
ATOM      4  C   UNL d   1      45.232 -15.151  36.860  0.00  0.00     0.083 A 
ATOM      5  C   UNL d   1      46.026 -15.400  36.666  0.00  0.00     0.099 A 
ATOM      6  C   UNL d   1      45.102 -14.406  37.188  0.00  0.00     0.019 A 
ATOM      7  C   UNL d   1      46.645 -14.860  36.824  0.00  0.00     0.021 A 
ATOM      8  C   UNL d   1      45.738 -13.901  37.330  0.00  0.00     0.002 A 
ATOM      9  C   UNL d   1      46.505 -14.141  37.143  0.00  0.00     0.002 A 
ENDROOT
BRANCH   1  10
ATOM     10  C   UNL d   1      44.245 -15.193  36.953  0.00  0.00     0.082 C 
BRANCH  10  11
ATOM     11  C   UNL d   1      43.433 -15.336  36.956  0.00  0.00     0.018 A 
ATOM     12  C   UNL d   1      43.083 -15.747  36.332  0.00  0.00     0.002 A 
ATOM     13  C   UNL d   1      42.267 -15.892  36.334  0.00  0.00     0.000 A 
ATOM     14  C   UNL d   1      41.804 -15.624  36.962  0.00  0.00     0.000 A 
ATOM     15  C   UNL d   1      42.157 -15.211  37.588  0.00  0.00     0.000 A 
ATOM     16  C   UNL d   1      42.970 -15.069  37.584  0.00  0.00     0.002 A 
ENDBRANCH  10  11
ENDBRANCH   1  10
TORSDOF 2
ENDMDL
MODEL 3
REMARK VINA RESULT:      14.5      7.184      7.860
REMARK  2 active torsions:
REMARK  status: ('A' for Active; 'I' for Inactive)
REMARK    1  A    between atoms: C_6  and  N_1 
REMARK    2  A    between atoms: C_7  and  C_6 
ROOT
ATOM      1  N   UNL d   1      46.164 -19.657  43.067  0.00  0.00    -0.287 N 
ATOM      2  N   UNL d   1      46.150 -20.053  44.360  0.00  0.00    -0.224 NA
ATOM      3  C   UNL d   1      46.051 -20.312  43.558  0.00  0.00     0.183 A 
ATOM      4  C   UNL d   1      46.326 -19.014  43.528  0.00  0.00     0.083 A 
ATOM      5  C   UNL d   1      46.317 -19.264  44.344  0.00  0.00     0.099 A 
ATOM      6  C   UNL d   1      46.483 -18.227  43.340  0.00  0.00     0.019 A 
ATOM      7  C   UNL d   1      46.472 -18.682  44.925  0.00  0.00     0.021 A 
ATOM      8  C   UNL d   1      46.632 -17.680  43.940  0.00  0.00     0.002 A 
ATOM      9  C   UNL d   1      46.623 -17.922  44.728  0.00  0.00     0.002 A 
ENDROOT
BRANCH   1  10
ATOM     10  C   UNL d   1      46.260 -19.075  42.540  0.00  0.00     0.082 C 
BRANCH  10  11
ATOM     11  C   UNL d   1      46.320 -19.271  41.741  0.00  0.00     0.018 A 
ATOM     12  C   UNL d   1      46.132 -18.712  41.163  0.00  0.00     0.002 A 
ATOM     13  C   UNL d   1      46.192 -18.907  40.360  0.00  0.00     0.000 A 
ATOM     14  C   UNL d   1      46.441 -19.662  40.138  0.00  0.00     0.000 A 
ATOM     15  C   UNL d   1      46.630 -20.222  40.720  0.00  0.00     0.000 A 
ATOM     16  C   UNL d   1      46.569 -20.025  41.519  0.00  0.00     0.002 A 
ENDBRANCH  10  11
ENDBRANCH   1  10
TORSDOF 2
ENDMDL
MODEL 4
REMARK VINA RESULT:      14.6      7.712      8.239
REMARK  2 active torsions:
REMARK  status: ('A' for Active; 'I' for Inactive)
REMARK    1  A    between atoms: C_6  and  N_1 
REMARK    2  A    between atoms: C_7  and  C_6 
ROOT
ATOM      1  N   UNL d   1      46.245 -18.163  43.330  0.00  0.00    -0.287 N 
ATOM      2  N   UNL d   1      46.436 -19.208  42.493  0.00  0.00    -0.224 NA
ATOM      3  C   UNL d   1      46.283 -18.375  42.532  0.00  0.00     0.183 A 
ATOM      4  C   UNL d   1      46.368 -18.824  43.779  0.00  0.00     0.083 A 
ATOM      5  C   UNL d   1      46.489 -19.484  43.250  0.00  0.00     0.099 A 
ATOM      6  C   UNL d   1      46.391 -18.939  44.594  0.00  0.00     0.019 A 
ATOM      7  C   UNL d   1      46.627 -20.232  43.598  0.00  0.00     0.021 A 
ATOM      8  C   UNL d   1      46.531 -19.692  44.901  0.00  0.00     0.002 A 
ATOM      9  C   UNL d   1      46.647 -20.330  44.391  0.00  0.00     0.002 A 
ENDROOT
BRANCH   1  10
ATOM     10  C   UNL d   1      46.197 -17.891  44.071  0.00  0.00     0.082 C 
BRANCH  10  11
ATOM     11  C   UNL d   1      45.975 -17.106  44.191  0.00  0.00     0.018 A 
ATOM     12  C   UNL d   1      46.229 -16.521  43.667  0.00  0.00     0.002 A 
ATOM     13  C   UNL d   1      46.008 -15.731  43.785  0.00  0.00     0.000 A 
ATOM     14  C   UNL d   1      45.532 -15.530  44.429  0.00  0.00     0.000 A 
ATOM     15  C   UNL d   1      45.278 -16.119  44.954  0.00  0.00     0.000 A 
ATOM     16  C   UNL d   1      45.500 -16.905  44.834  0.00  0.00     0.002 A 
ENDBRANCH  10  11
ENDBRANCH   1  10
TORSDOF 2
ENDMDL
