MODEL 1
REMARK VINA RESULT:      33.2      0.000      0.000
REMARK  3 active torsions:
REMARK  status: ('A' for Active; 'I' for Inactive)
REMARK    1  A    between atoms: N_5  and  C_1 
REMARK    2  A    between atoms: C_8  and  C_2 
REMARK       I    between atoms: C_7  and  N_5 
REMARK    3  A    between atoms: C_9  and  C_7 
ROOT
ATOM      1  C   UNL d   1      13.381  12.740  -3.298  0.00  0.00     0.119 A 
ATOM      2  C   UNL d   1      13.358  13.388  -3.821  0.00  0.00     0.084 A 
ATOM      3  S   UNL d   1      13.197  12.067  -3.727  0.00  0.00    -0.068 SA
ATOM      4  C   UNL d   1      13.160  13.104  -4.569  0.00  0.00     0.013 A 
ATOM      5  C   UNL d   1      13.059  12.282  -4.511  0.00  0.00     0.031 A 
ATOM      6  C   UNL d   1      13.075  13.550  -5.254  0.00  0.00     0.001 C 
ATOM      7  C   UNL d   1      12.858  11.779  -5.128  0.00  0.00     0.007 C 
ENDROOT
BRANCH   1   8
ATOM      8  N   UNL d   1      13.557  12.775  -2.496  0.00  0.00    -0.200 NA
ATOM      9  C   UNL d   1      14.152  12.295  -2.188  0.00  0.00     0.302 C 
ATOM     10  O   UNL d   1      14.574  11.779  -2.675  0.00  0.00    -0.263 OA
BRANCH   9  11
ATOM     11  C   UNL d   1      14.324  12.337  -1.376  0.00  0.00     0.158 A 
ATOM     12  O   UNL d   1      14.819  12.892  -1.018  0.00  0.00    -0.300 OA
ATOM     13  C   UNL d   1      14.834  12.729  -0.194  0.00  0.00     0.123 A 
ATOM     14  C   UNL d   1      14.351  12.081  -0.063  0.00  0.00     0.029 A 
ATOM     15  C   UNL d   1      14.029  11.827  -0.782  0.00  0.00     0.032 A 
ENDBRANCH   9  11
ENDBRANCH   1   8
BRANCH   2  16
ATOM     16  C   UNL d   1      13.508  14.171  -3.622  0.00  0.00     0.299 C 
ATOM     17  O   UNL d   1      14.266  14.395  -3.359  0.00  0.00    -0.264 OA
ATOM     18  N   UNL d   1      12.913  14.745  -3.681  0.00  0.00    -0.102 N 
ENDBRANCH   2  16
TORSDOF 3
ENDMDL
MODEL 2
REMARK VINA RESULT:      34.8      2.661      3.743
REMARK  3 active torsions:
REMARK  status: ('A' for Active; 'I' for Inactive)
REMARK    1  A    between atoms: N_5  and  C_1 
REMARK    2  A    between atoms: C_8  and  C_2 
REMARK       I    between atoms: C_7  and  N_5 
REMARK    3  A    between atoms: C_9  and  C_7 
ROOT
ATOM      1  C   UNL d   1      15.016  15.102  -0.974  0.00  0.00     0.119 A 
ATOM      2  C   UNL d   1      14.940  15.707  -1.542  0.00  0.00     0.084 A 
ATOM      3  S   UNL d   1      15.442  15.405  -0.344  0.00  0.00    -0.068 SA
ATOM      4  C   UNL d   1      15.323  16.377  -1.253  0.00  0.00     0.013 A 
ATOM      5  C   UNL d   1      15.635  16.189  -0.506  0.00  0.00     0.031 A 
ATOM      6  C   UNL d   1      15.387  17.104  -1.630  0.00  0.00     0.001 C 
ATOM      7  C   UNL d   1      16.060  16.699  -0.023  0.00  0.00     0.007 C 
ENDROOT
BRANCH   1   8
ATOM      8  N   UNL d   1      14.714  14.340  -1.040  0.00  0.00    -0.200 NA
ATOM      9  C   UNL d   1      15.024  13.738  -0.569  0.00  0.00     0.302 C 
ATOM     10  O   UNL d   1      15.632  13.890  -0.033  0.00  0.00    -0.263 OA
BRANCH   9  11
ATOM     11  C   UNL d   1      14.714  12.970  -0.642  0.00  0.00     0.158 A 
ATOM     12  O   UNL d   1      14.720  12.513  -1.329  0.00  0.00    -0.300 OA
ATOM     13  C   UNL d   1      14.351  11.779  -1.152  0.00  0.00     0.123 A 
ATOM     14  C   UNL d   1      14.128  11.800  -0.364  0.00  0.00     0.029 A 
ATOM     15  C   UNL d   1      14.345  12.528  -0.035  0.00  0.00     0.032 A 
ENDBRANCH   9  11
ENDBRANCH   1   8
BRANCH   2  16
ATOM     16  C   UNL d   1      14.551  15.642  -2.264  0.00  0.00     0.299 C 
ATOM     17  O   UNL d   1      13.795  15.296  -2.298  0.00  0.00    -0.264 OA
ATOM     18  N   UNL d   1      14.904  15.919  -2.961  0.00  0.00    -0.102 N 
ENDBRANCH   2  16
TORSDOF 3
ENDMDL
MODEL 3
REMARK VINA RESULT:      36.0      1.596      2.668
REMARK  3 active torsions:
REMARK  status: ('A' for Active; 'I' for Inactive)
REMARK    1  A    between atoms: N_5  and  C_1 
REMARK    2  A    between atoms: C_8  and  C_2 
REMARK       I    between atoms: C_7  and  N_5 
REMARK    3  A    between atoms: C_9  and  C_7 
ROOT
ATOM      1  C   UNL d   1      13.645  13.647  -3.481  0.00  0.00     0.119 A 
ATOM      2  C   UNL d   1      13.485  12.834  -3.395  0.00  0.00     0.084 A 
ATOM      3  S   UNL d   1      13.396  13.872  -4.228  0.00  0.00    -0.068 SA
ATOM      4  C   UNL d   1      13.137  12.568  -4.093  0.00  0.00     0.013 A 
ATOM      5  C   UNL d   1      13.082  13.214  -4.612  0.00  0.00     0.031 A 
ATOM      6  C   UNL d   1      12.888  11.802  -4.254  0.00  0.00     0.001 C 
ATOM      7  C   UNL d   1      12.769  13.193  -5.371  0.00  0.00     0.007 C 
ENDROOT
BRANCH   1   8
ATOM      8  N   UNL d   1      13.991  14.131  -2.914  0.00  0.00    -0.200 NA
ATOM      9  C   UNL d   1      14.173  14.913  -3.103  0.00  0.00     0.302 C 
ATOM     10  O   UNL d   1      14.012  15.216  -3.854  0.00  0.00    -0.263 OA
BRANCH   9  11
ATOM     11  C   UNL d   1      14.523  15.397  -2.525  0.00  0.00     0.158 A 
ATOM     12  O   UNL d   1      14.778  15.147  -1.780  0.00  0.00    -0.300 OA
ATOM     13  C   UNL d   1      15.095  15.814  -1.380  0.00  0.00     0.123 A 
ATOM     14  C   UNL d   1      15.028  16.457  -1.884  0.00  0.00     0.029 A 
ATOM     15  C   UNL d   1      14.677  16.216  -2.594  0.00  0.00     0.032 A 
ENDBRANCH   9  11
ENDBRANCH   1   8
BRANCH   2  16
ATOM     16  C   UNL d   1      13.646  12.380  -2.728  0.00  0.00     0.299 C 
ATOM     17  O   UNL d   1      14.357  12.495  -2.310  0.00  0.00    -0.264 OA
ATOM     18  N   UNL d   1      13.109  11.806  -2.466  0.00  0.00    -0.102 N 
ENDBRANCH   2  16
TORSDOF 3
ENDMDL
