MODEL 1
REMARK VINA RESULT:      94.4      0.000      0.000
REMARK  4 active torsions:
REMARK  status: ('A' for Active; 'I' for Inactive)
REMARK    1  A    between atoms: O_8  and  C_1 
REMARK    2  A    between atoms: C_9  and  C_5 
REMARK    3  A    between atoms: C_11  and  O_8 
REMARK    4  A    between atoms: N_12  and  C_9 
ROOT
ATOM      1  C   UNL d   1      58.139  48.302  50.966  0.00  0.00     0.161 A 
ATOM      2  C   UNL d   1      59.769  47.972  51.032  0.00  0.00     0.108 A 
ATOM      3  C   UNL d   1      59.498  48.765  51.078  0.00  0.00     0.064 A 
ATOM      4  C   UNL d   1      58.684  48.926  51.045  0.00  0.00     0.222 A 
ATOM      5  C   UNL d   1      60.569  47.809  51.065  0.00  0.00     0.079 A 
ATOM      6  O   UNL d   1      59.220  47.351  50.953  0.00  0.00    -0.305 OA
ATOM      7  C   UNL d   1      58.406  47.517  50.920  0.00  0.00     0.126 A 
ATOM      8  C   UNL d   1      60.051  49.369  51.156  0.00  0.00     0.009 A 
ATOM      9  C   UNL d   1      61.116  48.417  51.143  0.00  0.00     0.199 A 
ATOM     10  O   UNL d   1      58.418  49.708  51.090  0.00  0.00    -0.284 OA
ATOM     11  C   UNL d   1      60.854  49.199  51.189  0.00  0.00     0.042 A 
ATOM     12  O   UNL d   1      61.923  48.248  51.175  0.00  0.00    -0.286 OA
ATOM     13  C   UNL d   1      57.864  46.895  50.841  0.00  0.00     0.029 C 
ENDROOT
BRANCH   1  14
ATOM     14  O   UNL d   1      57.331  48.471  50.933  0.00  0.00    -0.301 OA
BRANCH  14  15
ATOM     15  C   UNL d   1      56.999  48.811  50.258  0.00  0.00     0.106 A 
ATOM     16  C   UNL d   1      56.366  49.326  50.330  0.00  0.00     0.057 A 
ATOM     17 BR   UNL d   1      56.057  49.507  51.075  0.00  0.00    -0.047 Br
ATOM     18  C   UNL d   1      56.035  49.665  49.652  0.00  0.00     0.009 A 
ATOM     19  C   UNL d   1      56.342  49.485  48.902  0.00  0.00     0.001 A 
ATOM     20  C   UNL d   1      56.983  48.963  48.839  0.00  0.00     0.002 A 
ATOM     21  C   UNL d   1      57.309  48.629  49.516  0.00  0.00     0.025 A 
ENDBRANCH  14  15
ENDBRANCH   1  14
BRANCH   5  22
ATOM     22  C   UNL d   1      60.827  47.039  51.020  0.00  0.00     0.085 C 
BRANCH  22  23
ATOM     23  N   UNL d   1      61.253  46.706  50.409  0.00  0.00    -0.302 N 
ATOM     24  C   UNL d   1      61.313  45.911  50.244  0.00  0.00     0.080 A 
ATOM     25  C   UNL d   1      61.785  45.829  49.598  0.00  0.00     0.021 A 
ATOM     26  C   UNL d   1      62.018  46.553  49.360  0.00  0.00     0.021 A 
ATOM     27  C   UNL d   1      61.686  47.108  49.867  0.00  0.00     0.080 A 
ENDBRANCH  22  23
ENDBRANCH   5  22
TORSDOF 4
ENDMDL
