MODEL 1
REMARK VINA RESULT:      -4.3      0.000      0.000
REMARK  6 active torsions:
REMARK  status: ('A' for Active; 'I' for Inactive)
REMARK    1  A    between atoms: C_2  and  S_1 
REMARK    2  A    between atoms: N_3  and  S_1 
REMARK    3  A    between atoms: C_10  and  N_3 
REMARK    4  A    between atoms: C_16  and  C_11 
REMARK    5  A    between atoms: C_17  and  C_16 
REMARK    6  A    between atoms: C_18  and  C_17 
ROOT
ATOM      1  C   UNL d   1      57.450  -0.093  30.682  0.00  0.00     0.094 A 
ATOM      2  C   UNL d   1      56.820  -0.053  32.189  0.00  0.00     0.000 A 
ATOM      3  C   UNL d   1      57.270  -0.799  31.072  0.00  0.00     0.020 A 
ATOM      4  C   UNL d   1      57.313   0.626  31.051  0.00  0.00     0.020 A 
ATOM      5  C   UNL d   1      57.004   0.645  31.790  0.00  0.00     0.002 A 
ATOM      6  C   UNL d   1      56.961  -0.779  31.811  0.00  0.00     0.002 A 
ENDROOT
BRANCH   1   7
ATOM      7  N   UNL d   1      57.784  -0.114  29.885  0.00  0.00    -0.158 NA
BRANCH   7   8
ATOM      8  S   UNL d   1      58.599  -0.167  29.788  0.00  0.00     0.291 S 
ATOM      9  O   UNL d   1      58.498  -1.011  29.788  0.00  0.00    -0.198 OA
ATOM     10  O   UNL d   1      58.638   0.682  29.795  0.00  0.00    -0.198 OA
BRANCH   8  11
ATOM     11  C   UNL d   1      59.410  -0.229  29.692  0.00  0.00     0.135 A 
ATOM     12  S   UNL d   1      60.048   0.200  29.972  0.00  0.00    -0.073 SA
ATOM     13  C   UNL d   1      60.746  -0.134  29.681  0.00  0.00     0.036 A 
ATOM     14  C   UNL d   1      60.551  -0.753  29.232  0.00  0.00     0.008 A 
ATOM     15  C   UNL d   1      59.728  -0.831  29.225  0.00  0.00     0.020 A 
ENDBRANCH   8  11
ENDBRANCH   7   8
ENDBRANCH   1   7
BRANCH   2  16
ATOM     16  C   UNL d   1      56.487  -0.032  32.985  0.00  0.00     0.000 C 
BRANCH  16  17
ATOM     17  C   UNL d   1      55.737   0.293  33.110  0.00  0.00     0.000 C 
BRANCH  17  18
ATOM     18  C   UNL d   1      55.438   0.356  33.876  0.00  0.00     0.000 C 
ATOM     19  C   UNL d   1      54.632   0.434  34.000  0.00  0.00     0.000 C 
ENDBRANCH  17  18
ENDBRANCH  16  17
ENDBRANCH   2  16
TORSDOF 6
ENDMDL
MODEL 2
REMARK VINA RESULT:      -3.5      1.097      1.543
REMARK  6 active torsions:
REMARK  status: ('A' for Active; 'I' for Inactive)
REMARK    1  A    between atoms: C_2  and  S_1 
REMARK    2  A    between atoms: N_3  and  S_1 
REMARK    3  A    between atoms: C_10  and  N_3 
REMARK    4  A    between atoms: C_16  and  C_11 
REMARK    5  A    between atoms: C_17  and  C_16 
REMARK    6  A    between atoms: C_18  and  C_17 
ROOT
ATOM      1  C   UNL d   1      58.578   0.657  30.131  0.00  0.00     0.094 A 
ATOM      2  C   UNL d   1      57.455   0.608  31.317  0.00  0.00     0.000 A 
ATOM      3  C   UNL d   1      57.775   0.647  29.938  0.00  0.00     0.020 A 
ATOM      4  C   UNL d   1      58.810   0.642  30.918  0.00  0.00     0.020 A 
ATOM      5  C   UNL d   1      58.259   0.618  31.499  0.00  0.00     0.002 A 
ATOM      6  C   UNL d   1      57.224   0.623  30.520  0.00  0.00     0.002 A 
ENDROOT
BRANCH   1   7
ATOM      7  N   UNL d   1      59.172   0.682  29.504  0.00  0.00    -0.158 NA
BRANCH   7   8
ATOM      8  S   UNL d   1      59.526  -0.017  29.253  0.00  0.00     0.291 S 
ATOM      9  O   UNL d   1      60.153   0.160  29.799  0.00  0.00    -0.198 OA
ATOM     10  O   UNL d   1      58.871  -0.140  28.726  0.00  0.00    -0.198 OA
BRANCH   8  11
ATOM     11  C   UNL d   1      59.887  -0.711  29.010  0.00  0.00     0.135 A 
ATOM     12  S   UNL d   1      59.609  -1.458  28.826  0.00  0.00    -0.073 SA
ATOM     13  C   UNL d   1      60.248  -1.938  28.612  0.00  0.00     0.036 A 
ATOM     14  C   UNL d   1      60.905  -1.504  28.661  0.00  0.00     0.008 A 
ATOM     15  C   UNL d   1      60.705  -0.740  28.905  0.00  0.00     0.020 A 
ENDBRANCH   8  11
ENDBRANCH   7   8
ENDBRANCH   1   7
BRANCH   2  16
ATOM     16  C   UNL d   1      56.861   0.583  31.945  0.00  0.00     0.000 C 
BRANCH  16  17
ATOM     17  C   UNL d   1      56.606  -0.145  32.241  0.00  0.00     0.000 C 
BRANCH  17  18
ATOM     18  C   UNL d   1      56.092  -0.169  32.886  0.00  0.00     0.000 C 
ATOM     19  C   UNL d   1      55.606  -0.819  33.003  0.00  0.00     0.000 C 
ENDBRANCH  17  18
ENDBRANCH  16  17
ENDBRANCH   2  16
TORSDOF 6
ENDMDL
MODEL 3
REMARK VINA RESULT:      -3.3      1.434      4.495
REMARK  6 active torsions:
REMARK  status: ('A' for Active; 'I' for Inactive)
REMARK    1  A    between atoms: C_2  and  S_1 
REMARK    2  A    between atoms: N_3  and  S_1 
REMARK    3  A    between atoms: C_10  and  N_3 
REMARK    4  A    between atoms: C_16  and  C_11 
REMARK    5  A    between atoms: C_17  and  C_16 
REMARK    6  A    between atoms: C_18  and  C_17 
ROOT
ATOM      1  C   UNL d   1      58.371   0.287  30.310  0.00  0.00     0.094 A 
ATOM      2  C   UNL d   1      59.556  -0.459  29.468  0.00  0.00     0.000 A 
ATOM      3  C   UNL d   1      58.179  -0.195  29.668  0.00  0.00     0.020 A 
ATOM      4  C   UNL d   1      59.156   0.390  30.525  0.00  0.00     0.020 A 
ATOM      5  C   UNL d   1      59.737   0.024  30.112  0.00  0.00     0.002 A 
ATOM      6  C   UNL d   1      58.760  -0.560  29.255  0.00  0.00     0.002 A 
ENDROOT
BRANCH   1   7
ATOM      7  N   UNL d   1      57.744   0.681  30.756  0.00  0.00    -0.158 NA
BRANCH   7   8
ATOM      8  S   UNL d   1      57.355   0.273  31.355  0.00  0.00     0.291 S 
ATOM      9  O   UNL d   1      56.798   0.028  30.761  0.00  0.00    -0.198 OA
ATOM     10  O   UNL d   1      57.942   0.550  31.902  0.00  0.00    -0.198 OA
BRANCH   8  11
ATOM     11  C   UNL d   1      56.959  -0.136  31.944  0.00  0.00     0.135 A 
ATOM     12  S   UNL d   1      56.616  -0.877  31.984  0.00  0.00    -0.073 SA
ATOM     13  C   UNL d   1      56.294  -0.985  32.738  0.00  0.00     0.036 A 
ATOM     14  C   UNL d   1      56.434  -0.331  33.157  0.00  0.00     0.008 A 
ATOM     15  C   UNL d   1      56.845   0.208  32.685  0.00  0.00     0.020 A 
ENDBRANCH   8  11
ENDBRANCH   7   8
ENDBRANCH   1   7
BRANCH   2  16
ATOM     16  C   UNL d   1      60.183  -0.853  29.023  0.00  0.00     0.000 C 
BRANCH  16  17
ATOM     17  C   UNL d   1      60.220  -1.678  29.007  0.00  0.00     0.000 C 
BRANCH  17  18
ATOM     18  C   UNL d   1      60.802  -2.055  28.560  0.00  0.00     0.000 C 
ATOM     19  C   UNL d   1      61.082  -2.792  28.783  0.00  0.00     0.000 C 
ENDBRANCH  17  18
ENDBRANCH  16  17
ENDBRANCH   2  16
TORSDOF 6
ENDMDL
MODEL 4
REMARK VINA RESULT:      -1.5      9.040      9.662
REMARK  6 active torsions:
REMARK  status: ('A' for Active; 'I' for Inactive)
REMARK    1  A    between atoms: C_2  and  S_1 
REMARK    2  A    between atoms: N_3  and  S_1 
REMARK    3  A    between atoms: C_10  and  N_3 
REMARK    4  A    between atoms: C_16  and  C_11 
REMARK    5  A    between atoms: C_17  and  C_16 
REMARK    6  A    between atoms: C_18  and  C_17 
ROOT
ATOM      1  C   UNL d   1      59.649  -9.128  34.816  0.00  0.00     0.094 A 
ATOM      2  C   UNL d   1      59.790  -7.823  35.790  0.00  0.00     0.000 A 
ATOM      3  C   UNL d   1      59.106  -9.010  35.428  0.00  0.00     0.020 A 
ATOM      4  C   UNL d   1      60.258  -8.590  34.700  0.00  0.00     0.020 A 
ATOM      5  C   UNL d   1      60.326  -7.951  35.177  0.00  0.00     0.002 A 
ATOM      6  C   UNL d   1      59.175  -8.370  35.905  0.00  0.00     0.002 A 
ENDROOT
BRANCH   1   7
ATOM      7  N   UNL d   1      59.575  -9.818  34.302  0.00  0.00    -0.158 NA
BRANCH   7   8
ATOM      8  S   UNL d   1      59.235  -9.733  33.557  0.00  0.00     0.291 S 
ATOM      9  O   UNL d   1      58.481  -9.775  33.949  0.00  0.00    -0.198 OA
ATOM     10  O   UNL d   1      60.015  -9.697  33.223  0.00  0.00    -0.198 OA
BRANCH   8  11
ATOM     11  C   UNL d   1      58.886  -9.649  32.820  0.00  0.00     0.135 A 
ATOM     12  S   UNL d   1      58.143  -9.818  32.524  0.00  0.00    -0.073 SA
ATOM     13  C   UNL d   1      58.117  -9.608  31.725  0.00  0.00     0.036 A 
ATOM     14  C   UNL d   1      58.823  -9.317  31.527  0.00  0.00     0.008 A 
ATOM     15  C   UNL d   1      59.316  -9.333  32.191  0.00  0.00     0.020 A 
ENDBRANCH   8  11
ENDBRANCH   7   8
ENDBRANCH   1   7
BRANCH   2  16
ATOM     16  C   UNL d   1      59.864  -7.134  36.305  0.00  0.00     0.000 C 
BRANCH  16  17
ATOM     17  C   UNL d   1      60.540  -6.660  36.264  0.00  0.00     0.000 C 
BRANCH  17  18
ATOM     18  C   UNL d   1      60.465  -5.838  36.242  0.00  0.00     0.000 C 
ATOM     19  C   UNL d   1      61.130  -5.365  36.161  0.00  0.00     0.000 C 
ENDBRANCH  17  18
ENDBRANCH  16  17
ENDBRANCH   2  16
TORSDOF 6
ENDMDL
