MODEL 1
REMARK VINA RESULT:      19.5      0.000      0.000
REMARK  3 active torsions:
REMARK  status: ('A' for Active; 'I' for Inactive)
REMARK    1  A    between atoms: C_2  and  S_1 
REMARK    2  A    between atoms: N_3  and  S_1 
REMARK    3  A    between atoms: O_17  and  C_7 
ROOT
ATOM      1  S   UNL d   1      14.203  12.578  -2.196  0.00  0.00     0.273 S 
ATOM      2  O   UNL d   1      14.470  11.782  -2.189  0.00  0.00    -0.200 OA
ATOM      3  O   UNL d   1      13.940  13.368  -2.198  0.00  0.00    -0.200 OA
ENDROOT
BRANCH   1   4
ATOM      4  C   UNL d   1      14.589  12.715  -1.453  0.00  0.00     0.127 A 
ATOM      5  C   UNL d   1      15.268  13.170  -1.442  0.00  0.00     0.026 A 
ATOM      6  C   UNL d   1      15.660  13.316  -0.729  0.00  0.00     0.059 A 
ATOM      7 CL   UNL d   1      16.351  13.779  -0.724  0.00  0.00    -0.082 Cl
ATOM      8  C   UNL d   1      15.365  13.000  -0.014  0.00  0.00     0.013 A 
ATOM      9  C   UNL d   1      14.664  12.534  -0.042  0.00  0.00     0.026 A 
ATOM     10  C   UNL d   1      14.283  12.396  -0.761  0.00  0.00     0.106 A 
BRANCH  10  11
ATOM     11  O   UNL d   1      13.592  11.933  -0.766  0.00  0.00    -0.327 OA
ATOM     12  C   UNL d   1      13.166  11.822  -0.066  0.00  0.00     0.181 C 
ENDBRANCH  10  11
ENDBRANCH   1   4
BRANCH   1  13
ATOM     13  N   UNL d   1      13.824  12.456  -2.919  0.00  0.00    -0.226 N 
ATOM     14  C   UNL d   1      14.057  12.852  -3.598  0.00  0.00     0.111 A 
ATOM     15  C   UNL d   1      13.678  12.729  -4.320  0.00  0.00     0.100 A 
ATOM     16  N   UNL d   1      13.050  12.198  -4.369  0.00  0.00    -0.299 N 
ATOM     17  C   UNL d   1      12.812  11.798  -3.691  0.00  0.00     0.100 A 
ATOM     18  C   UNL d   1      12.784  12.124  -4.920  0.00  0.00     0.100 C 
ATOM     19  C   UNL d   1      13.194  11.924  -2.971  0.00  0.00     0.111 A 
ENDBRANCH   1  13
TORSDOF 3
ENDMDL
MODEL 2
REMARK VINA RESULT:      21.8      1.820      3.675
REMARK  3 active torsions:
REMARK  status: ('A' for Active; 'I' for Inactive)
REMARK    1  A    between atoms: C_2  and  S_1 
REMARK    2  A    between atoms: N_3  and  S_1 
REMARK    3  A    between atoms: O_17  and  C_7 
ROOT
ATOM      1  S   UNL d   1      13.777  12.509  -2.925  0.00  0.00     0.273 S 
ATOM      2  O   UNL d   1      13.357  11.783  -2.956  0.00  0.00    -0.200 OA
ATOM      3  O   UNL d   1      14.192  13.230  -2.899  0.00  0.00    -0.200 OA
ENDROOT
BRANCH   1   4
ATOM      4  C   UNL d   1      13.471  12.719  -3.688  0.00  0.00     0.127 A 
ATOM      5  C   UNL d   1      13.497  12.164  -4.287  0.00  0.00     0.026 A 
ATOM      6  C   UNL d   1      13.204  12.348  -5.038  0.00  0.00     0.059 A 
ATOM      7 CL   UNL d   1      13.232  11.779  -5.644  0.00  0.00    -0.082 Cl
ATOM      8  C   UNL d   1      12.879  13.104  -5.189  0.00  0.00     0.013 A 
ATOM      9  C   UNL d   1      12.860  13.664  -4.561  0.00  0.00     0.026 A 
ATOM     10  C   UNL d   1      13.156  13.466  -3.818  0.00  0.00     0.106 A 
BRANCH  10  11
ATOM     11  O   UNL d   1      13.128  14.035  -3.211  0.00  0.00    -0.327 OA
ATOM     12  C   UNL d   1      13.142  14.840  -3.400  0.00  0.00     0.181 C 
ENDBRANCH  10  11
ENDBRANCH   1   4
BRANCH   1  13
ATOM     13  N   UNL d   1      14.081  12.314  -2.183  0.00  0.00    -0.226 N 
ATOM     14  C   UNL d   1      14.874  12.421  -2.003  0.00  0.00     0.111 A 
ATOM     15  C   UNL d   1      15.177  12.227  -1.261  0.00  0.00     0.100 A 
ATOM     16  N   UNL d   1      14.679  11.917  -0.681  0.00  0.00    -0.299 N 
ATOM     17  C   UNL d   1      13.883  11.808  -0.858  0.00  0.00     0.100 A 
ATOM     18  C   UNL d   1      14.930  11.780  -0.135  0.00  0.00     0.100 C 
ATOM     19  C   UNL d   1      13.583  12.004  -1.601  0.00  0.00     0.111 A 
ENDBRANCH   1  13
TORSDOF 3
ENDMDL
