MODEL 1
REMARK VINA RESULT:      19.8      0.000      0.000
REMARK  3 active torsions:
REMARK  status: ('A' for Active; 'I' for Inactive)
REMARK    1  A    between atoms: C_12  and  C_4 
REMARK    2  A    between atoms: S_8  and  C_12 
REMARK    3  A    between atoms: C_11  and  S_8 
ROOT
ATOM      1  N   UNL d   1      14.374  11.816  -1.664  0.00  0.00    -0.289 N 
ATOM      2  C   UNL d   1      13.603  11.835  -1.317  0.00  0.00     0.148 A 
ATOM      3  N   UNL d   1      13.039  11.823  -1.942  0.00  0.00    -0.226 NA
ATOM      4  C   UNL d   1      13.476  11.797  -2.638  0.00  0.00     0.107 A 
ATOM      5  C   UNL d   1      14.254  11.793  -2.489  0.00  0.00     0.101 A 
ATOM      6  C   UNL d   1      15.023  11.823  -1.177  0.00  0.00     0.066 A 
ATOM      7  C   UNL d   1      13.513  11.860  -0.497  0.00  0.00     0.037 A 
ATOM      8  C   UNL d   1      14.189  11.867  -0.016  0.00  0.00     0.005 A 
ATOM      9  C   UNL d   1      14.928  11.849  -0.349  0.00  0.00     0.018 A 
ATOM     10  C   UNL d   1      15.791  11.804  -1.522  0.00  0.00     0.019 C 
ENDROOT
BRANCH   4  11
ATOM     11  C   UNL d   1      13.098  11.779  -3.391  0.00  0.00     0.056 C 
BRANCH  11  12
ATOM     12  S   UNL d   1      13.006  12.498  -3.781  0.00  0.00    -0.083 SA
BRANCH  12  13
ATOM     13  C   UNL d   1      13.130  12.537  -4.617  0.00  0.00     0.049 A 
ATOM     14  C   UNL d   1      13.202  13.266  -4.987  0.00  0.00     0.109 A 
ATOM     15  N   UNL d   1      13.150  13.993  -4.523  0.00  0.00    -0.148 N 
ATOM     16  C   UNL d   1      13.323  13.304  -5.802  0.00  0.00     0.021 A 
ATOM     17  C   UNL d   1      13.372  12.613  -6.237  0.00  0.00     0.002 A 
ATOM     18  C   UNL d   1      13.304  11.916  -5.892  0.00  0.00     0.001 A 
ATOM     19  C   UNL d   1      13.179  11.841  -5.058  0.00  0.00     0.008 A 
ENDBRANCH  12  13
ENDBRANCH  11  12
ENDBRANCH   4  11
TORSDOF 3
ENDMDL
