MODEL 1
REMARK VINA RESULT:      -2.4      0.000      0.000
REMARK  6 active torsions:
REMARK  status: ('A' for Active; 'I' for Inactive)
REMARK    1  A    between atoms: C_5  and  N_1 
REMARK    2  A    between atoms: C_10  and  C_4 
REMARK    3  A    between atoms: C_6  and  S_13 
REMARK    4  A    between atoms: C_8  and  C_11 
REMARK    5  A    between atoms: C_14  and  C_8 
REMARK    6  A    between atoms: S_13  and  C_14 
ROOT
ATOM      1  S   UNL d   1      58.085  -0.107  29.970  0.00  0.00    -0.062 SA
ENDROOT
BRANCH   1   2
ATOM      2  C   UNL d   1      58.510  -0.776  29.716  0.00  0.00     0.133 A 
ATOM      3  N   UNL d   1      58.174  -1.535  29.787  0.00  0.00    -0.141 NA
ATOM      4  N   UNL d   1      58.598  -2.198  29.534  0.00  0.00    -0.146 NA
ATOM      5  C   UNL d   1      59.350  -2.109  29.213  0.00  0.00     0.121 A 
ATOM      6  C   UNL d   1      59.686  -1.350  29.142  0.00  0.00     0.025 A 
ATOM      7  C   UNL d   1      59.267  -0.688  29.393  0.00  0.00     0.029 A 
BRANCH   5   8
ATOM      8  C   UNL d   1      59.771  -2.771  28.962  0.00  0.00     0.101 A 
ATOM      9  N   UNL d   1      60.596  -2.752  28.942  0.00  0.00    -0.242 NA
ATOM     10  C   UNL d   1      61.017  -3.413  28.691  0.00  0.00     0.099 A 
ATOM     11  C   UNL d   1      60.614  -4.105  28.455  0.00  0.00     0.021 A 
ATOM     12  C   UNL d   1      59.789  -4.123  28.476  0.00  0.00     0.003 A 
ATOM     13  C   UNL d   1      59.368  -3.458  28.728  0.00  0.00     0.021 A 
ENDBRANCH   5   8
ENDBRANCH   1   2
BRANCH   1  14
ATOM     14  C   UNL d   1      57.496  -0.183  30.555  0.00  0.00     0.079 C 
BRANCH  14  15
ATOM     15  C   UNL d   1      57.579   0.203  31.277  0.00  0.00     0.202 C 
ATOM     16  O   UNL d   1      58.236   0.681  31.413  0.00  0.00    -0.286 OA
BRANCH  15  17
ATOM     17  C   UNL d   1      57.002   0.113  31.866  0.00  0.00     0.040 A 
ATOM     18  C   UNL d   1      57.015  -0.548  32.358  0.00  0.00     0.005 A 
ATOM     19  C   UNL d   1      56.441  -0.638  32.944  0.00  0.00     0.024 A 
ATOM     20  C   UNL d   1      55.854  -0.068  33.037  0.00  0.00     0.127 A 
ATOM     21  C   UNL d   1      55.841   0.592  32.545  0.00  0.00     0.024 A 
ATOM     22  C   UNL d   1      56.415   0.682  31.960  0.00  0.00     0.005 A 
BRANCH  20  23
ATOM     23  N   UNL d   1      55.280  -0.158  33.623  0.00  0.00    -0.114 N 
ATOM     24  O   UNL d   1      55.500  -0.182  34.416  0.00  0.00    -0.532 OA
ATOM     25  O   UNL d   1      54.480  -0.225  33.410  0.00  0.00    -0.532 OA
ENDBRANCH  20  23
ENDBRANCH  15  17
ENDBRANCH  14  15
ENDBRANCH   1  14
TORSDOF 6
ENDMDL
MODEL 2
REMARK VINA RESULT:      -2.3      1.946      5.978
REMARK  6 active torsions:
REMARK  status: ('A' for Active; 'I' for Inactive)
REMARK    1  A    between atoms: C_5  and  N_1 
REMARK    2  A    between atoms: C_10  and  C_4 
REMARK    3  A    between atoms: C_6  and  S_13 
REMARK    4  A    between atoms: C_8  and  C_11 
REMARK    5  A    between atoms: C_14  and  C_8 
REMARK    6  A    between atoms: S_13  and  C_14 
ROOT
ATOM      1  S   UNL d   1      56.822  -0.492  31.144  0.00  0.00    -0.062 SA
ENDROOT
BRANCH   1   2
ATOM      2  C   UNL d   1      56.545  -0.294  31.905  0.00  0.00     0.133 A 
ATOM      3  N   UNL d   1      56.554  -0.864  32.513  0.00  0.00    -0.141 NA
ATOM      4  N   UNL d   1      56.279  -0.666  33.267  0.00  0.00    -0.146 NA
ATOM      5  C   UNL d   1      55.997   0.093  33.417  0.00  0.00     0.121 A 
ATOM      6  C   UNL d   1      55.989   0.662  32.809  0.00  0.00     0.025 A 
ATOM      7  C   UNL d   1      56.262   0.468  32.057  0.00  0.00     0.029 A 
BRANCH   5   8
ATOM      8  C   UNL d   1      55.723   0.288  34.168  0.00  0.00     0.101 A 
ATOM      9  N   UNL d   1      56.260   0.424  34.780  0.00  0.00    -0.242 NA
ATOM     10  C   UNL d   1      55.987   0.619  35.532  0.00  0.00     0.099 A 
ATOM     11  C   UNL d   1      55.169   0.682  35.679  0.00  0.00     0.021 A 
ATOM     12  C   UNL d   1      54.632   0.546  35.067  0.00  0.00     0.003 A 
ATOM     13  C   UNL d   1      54.908   0.350  34.313  0.00  0.00     0.021 A 
ENDBRANCH   5   8
ENDBRANCH   1   2
BRANCH   1  14
ATOM     14  C   UNL d   1      57.624  -0.377  30.949  0.00  0.00     0.079 C 
BRANCH  14  15
ATOM     15  C   UNL d   1      57.848  -0.284  30.163  0.00  0.00     0.202 C 
ATOM     16  O   UNL d   1      57.432   0.235  29.677  0.00  0.00    -0.286 OA
BRANCH  15  17
ATOM     17  C   UNL d   1      58.491  -0.711  29.861  0.00  0.00     0.040 A 
ATOM     18  C   UNL d   1      59.204  -0.329  29.702  0.00  0.00     0.005 A 
ATOM     19  C   UNL d   1      59.843  -0.754  29.401  0.00  0.00     0.024 A 
ATOM     20  C   UNL d   1      59.770  -1.562  29.259  0.00  0.00     0.127 A 
ATOM     21  C   UNL d   1      59.059  -1.944  29.417  0.00  0.00     0.024 A 
ATOM     22  C   UNL d   1      58.420  -1.519  29.718  0.00  0.00     0.005 A 
BRANCH  20  23
ATOM     23  N   UNL d   1      60.410  -1.987  28.957  0.00  0.00    -0.114 N 
ATOM     24  O   UNL d   1      60.950  -1.620  28.455  0.00  0.00    -0.532 OA
ATOM     25  O   UNL d   1      60.508  -2.786  29.162  0.00  0.00    -0.532 OA
ENDBRANCH  20  23
ENDBRANCH  15  17
ENDBRANCH  14  15
ENDBRANCH   1  14
TORSDOF 6
ENDMDL
MODEL 3
REMARK VINA RESULT:       0.3      2.302      3.158
REMARK  6 active torsions:
REMARK  status: ('A' for Active; 'I' for Inactive)
REMARK    1  A    between atoms: C_5  and  N_1 
REMARK    2  A    between atoms: C_10  and  C_4 
REMARK    3  A    between atoms: C_6  and  S_13 
REMARK    4  A    between atoms: C_8  and  C_11 
REMARK    5  A    between atoms: C_14  and  C_8 
REMARK    6  A    between atoms: S_13  and  C_14 
ROOT
ATOM      1  S   UNL d   1      56.466  -0.395  32.581  0.00  0.00    -0.062 SA
ENDROOT
BRANCH   1   2
ATOM      2  C   UNL d   1      56.944  -0.317  31.903  0.00  0.00     0.133 A 
ATOM      3  N   UNL d   1      57.039  -0.961  31.383  0.00  0.00    -0.141 NA
ATOM      4  N   UNL d   1      57.514  -0.882  30.711  0.00  0.00    -0.146 NA
ATOM      5  C   UNL d   1      57.893  -0.168  30.557  0.00  0.00     0.121 A 
ATOM      6  C   UNL d   1      57.799   0.476  31.077  0.00  0.00     0.025 A 
ATOM      7  C   UNL d   1      57.326   0.400  31.746  0.00  0.00     0.029 A 
BRANCH   5   8
ATOM      8  C   UNL d   1      58.366  -0.091  29.887  0.00  0.00     0.101 A 
ATOM      9  N   UNL d   1      58.020   0.053  29.152  0.00  0.00    -0.242 NA
ATOM     10  C   UNL d   1      58.492   0.130  28.482  0.00  0.00     0.099 A 
ATOM     11  C   UNL d   1      59.322   0.064  28.542  0.00  0.00     0.021 A 
ATOM     12  C   UNL d   1      59.667  -0.079  29.277  0.00  0.00     0.003 A 
ATOM     13  C   UNL d   1      59.192  -0.157  29.948  0.00  0.00     0.021 A 
ENDBRANCH   5   8
ENDBRANCH   1   2
BRANCH   1  14
ATOM     14  C   UNL d   1      55.962   0.227  32.809  0.00  0.00     0.079 C 
BRANCH  14  15
ATOM     15  C   UNL d   1      55.910   0.448  33.600  0.00  0.00     0.202 C 
ATOM     16  O   UNL d   1      56.595   0.621  34.023  0.00  0.00    -0.286 OA
BRANCH  15  17
ATOM     17  C   UNL d   1      55.170   0.495  33.971  0.00  0.00     0.040 A 
ATOM     18  C   UNL d   1      55.113   0.425  34.790  0.00  0.00     0.005 A 
ATOM     19  C   UNL d   1      54.376   0.473  35.159  0.00  0.00     0.024 A 
ATOM     20  C   UNL d   1      53.697   0.590  34.709  0.00  0.00     0.127 A 
ATOM     21  C   UNL d   1      53.753   0.660  33.891  0.00  0.00     0.024 A 
ATOM     22  C   UNL d   1      54.490   0.612  33.522  0.00  0.00     0.005 A 
BRANCH  20  23
ATOM     23  N   UNL d   1      52.960   0.637  35.078  0.00  0.00    -0.114 N 
ATOM     24  O   UNL d   1      52.271   0.641  34.626  0.00  0.00    -0.532 OA
ATOM     25  O   UNL d   1      52.915   0.681  35.905  0.00  0.00    -0.532 OA
ENDBRANCH  20  23
ENDBRANCH  15  17
ENDBRANCH  14  15
ENDBRANCH   1  14
TORSDOF 6
ENDMDL
