MODEL 1
REMARK VINA RESULT:      -4.7      0.000      0.000
REMARK  6 active torsions:
REMARK  status: ('A' for Active; 'I' for Inactive)
REMARK    1  A    between atoms: O_8  and  C_2 
REMARK    2  A    between atoms: C_10  and  C_5 
REMARK    3  A    between atoms: C_21  and  O_8 
REMARK    4  A    between atoms: N_9  and  C_10 
REMARK    5  A    between atoms: C_12  and  C_15 
REMARK    6  A    between atoms: O_26  and  C_12 
ROOT
ATOM      1  C   UNL d   1     -48.077  12.996  22.440  0.00  0.00     0.108 A 
ATOM      2  C   UNL d   1     -46.424  13.124  22.335  0.00  0.00     0.161 A 
ATOM      3  C   UNL d   1     -47.683  12.784  21.732  0.00  0.00     0.064 A 
ATOM      4  C   UNL d   1     -46.867  12.847  21.680  0.00  0.00     0.222 A 
ATOM      5  C   UNL d   1     -48.903  12.933  22.493  0.00  0.00     0.079 A 
ATOM      6  O   UNL d   1     -47.647  13.273  23.094  0.00  0.00    -0.305 OA
ATOM      7  C   UNL d   1     -46.813  13.336  23.037  0.00  0.00     0.126 A 
ATOM      8  C   UNL d   1     -48.131  12.509  21.088  0.00  0.00     0.009 A 
ATOM      9  C   UNL d   1     -49.338  12.660  21.849  0.00  0.00     0.199 A 
ATOM     10  O   UNL d   1     -46.475  12.637  20.984  0.00  0.00    -0.284 OA
ATOM     11  C   UNL d   1     -48.951  12.447  21.143  0.00  0.00     0.042 A 
ATOM     12  O   UNL d   1     -50.153  12.596  21.899  0.00  0.00    -0.286 OA
ATOM     13  C   UNL d   1     -46.377  13.608  23.680  0.00  0.00     0.029 C 
ENDROOT
BRANCH   2  14
ATOM     14  O   UNL d   1     -45.604  13.186  22.280  0.00  0.00    -0.302 OA
BRANCH  14  15
ATOM     15  C   UNL d   1     -45.128  12.560  22.520  0.00  0.00     0.100 A 
ATOM     16  C   UNL d   1     -44.365  12.486  22.221  0.00  0.00     0.025 A 
ATOM     17  C   UNL d   1     -43.888  11.860  22.461  0.00  0.00     0.007 A 
ATOM     18  C   UNL d   1     -44.175  11.306  23.001  0.00  0.00     0.063 A 
ATOM     19  C   UNL d   1     -44.950  11.385  23.301  0.00  0.00     0.007 A 
ATOM     20  C   UNL d   1     -45.419  12.008  23.060  0.00  0.00     0.025 A 
BRANCH  18  21
ATOM     21  C   UNL d   1     -43.700  10.676  23.244  0.00  0.00     0.296 C 
ATOM     22  O   UNL d   1     -42.883  10.772  23.309  0.00  0.00    -0.259 OA
BRANCH  21  23
ATOM     23  O   UNL d   1     -44.037   9.944  23.425  0.00  0.00    -0.296 OA
ATOM     24  C   UNL d   1     -43.548   9.302  23.599  0.00  0.00     0.185 C 
ENDBRANCH  21  23
ENDBRANCH  18  21
ENDBRANCH  14  15
ENDBRANCH   2  14
BRANCH   5  25
ATOM     25  C   UNL d   1     -49.282  13.141  23.184  0.00  0.00     0.086 C 
BRANCH  25  26
ATOM     26  N   UNL d   1     -49.729  13.837  23.217  0.00  0.00    -0.300 N 
ATOM     27  C   UNL d   1     -49.353  14.570  23.174  0.00  0.00     0.100 A 
ATOM     28  C   UNL d   1     -49.797  15.259  23.206  0.00  0.00     0.100 A 
ATOM     29  N   UNL d   1     -50.614  15.224  23.281  0.00  0.00    -0.299 N 
ATOM     30  C   UNL d   1     -50.992  14.487  23.324  0.00  0.00     0.100 A 
ATOM     31  C   UNL d   1     -51.064  15.922  23.313  0.00  0.00     0.100 C 
ATOM     32  C   UNL d   1     -50.546  13.792  23.292  0.00  0.00     0.100 A 
ENDBRANCH  25  26
ENDBRANCH   5  25
TORSDOF 6
ENDMDL
MODEL 2
REMARK VINA RESULT:      -4.5      1.627      2.460
REMARK  6 active torsions:
REMARK  status: ('A' for Active; 'I' for Inactive)
REMARK    1  A    between atoms: O_8  and  C_2 
REMARK    2  A    between atoms: C_10  and  C_5 
REMARK    3  A    between atoms: C_21  and  O_8 
REMARK    4  A    between atoms: N_9  and  C_10 
REMARK    5  A    between atoms: C_12  and  C_15 
REMARK    6  A    between atoms: O_26  and  C_12 
ROOT
ATOM      1  C   UNL d   1     -47.950  13.859  22.376  0.00  0.00     0.108 A 
ATOM      2  C   UNL d   1     -46.487  13.280  22.909  0.00  0.00     0.161 A 
ATOM      3  C   UNL d   1     -47.393  14.380  22.722  0.00  0.00     0.064 A 
ATOM      4  C   UNL d   1     -46.670  14.094  22.985  0.00  0.00     0.222 A 
ATOM      5  C   UNL d   1     -48.681  14.148  22.109  0.00  0.00     0.079 A 
ATOM      6  O   UNL d   1     -47.778  13.051  22.296  0.00  0.00    -0.305 OA
ATOM      7  C   UNL d   1     -47.039  12.763  22.566  0.00  0.00     0.126 A 
ATOM      8  C   UNL d   1     -47.584  15.186  22.793  0.00  0.00     0.009 A 
ATOM      9  C   UNL d   1     -48.861  14.949  22.184  0.00  0.00     0.199 A 
ATOM     10  O   UNL d   1     -46.118  14.605  23.327  0.00  0.00    -0.284 OA
ATOM     11  C   UNL d   1     -48.310  15.470  22.527  0.00  0.00     0.042 A 
ATOM     12  O   UNL d   1     -49.582  15.236  21.922  0.00  0.00    -0.286 OA
ATOM     13  C   UNL d   1     -46.859  11.963  22.492  0.00  0.00     0.029 C 
ENDROOT
BRANCH   2  14
ATOM     14  O   UNL d   1     -45.761  12.996  23.174  0.00  0.00    -0.302 OA
BRANCH  14  15
ATOM     15  C   UNL d   1     -45.115  12.981  22.665  0.00  0.00     0.100 A 
ATOM     16  C   UNL d   1     -45.022  13.576  22.104  0.00  0.00     0.025 A 
ATOM     17  C   UNL d   1     -44.376  13.562  21.595  0.00  0.00     0.007 A 
ATOM     18  C   UNL d   1     -43.822  12.953  21.646  0.00  0.00     0.063 A 
ATOM     19  C   UNL d   1     -43.921  12.352  22.217  0.00  0.00     0.007 A 
ATOM     20  C   UNL d   1     -44.564  12.371  22.720  0.00  0.00     0.025 A 
BRANCH  18  21
ATOM     21  C   UNL d   1     -43.172  12.936  21.137  0.00  0.00     0.296 C 
ATOM     22  O   UNL d   1     -43.229  12.566  20.401  0.00  0.00    -0.259 OA
BRANCH  21  23
ATOM     23  O   UNL d   1     -42.458  13.288  21.358  0.00  0.00    -0.296 OA
ATOM     24  C   UNL d   1     -41.831  13.308  20.821  0.00  0.00     0.185 C 
ENDBRANCH  21  23
ENDBRANCH  18  21
ENDBRANCH  14  15
ENDBRANCH   2  14
BRANCH   5  25
ATOM     25  C   UNL d   1     -49.221  13.637  21.773  0.00  0.00     0.086 C 
BRANCH  25  26
ATOM     26  N   UNL d   1     -49.681  13.147  22.255  0.00  0.00    -0.300 N 
ATOM     27  C   UNL d   1     -49.684  12.331  22.130  0.00  0.00     0.100 A 
ATOM     28  C   UNL d   1     -50.141  11.846  22.609  0.00  0.00     0.100 A 
ATOM     29  N   UNL d   1     -50.596  12.168  23.212  0.00  0.00    -0.299 N 
ATOM     30  C   UNL d   1     -50.593  12.987  23.338  0.00  0.00     0.100 A 
ATOM     31  C   UNL d   1     -51.059  11.677  23.697  0.00  0.00     0.100 C 
ATOM     32  C   UNL d   1     -50.133  13.478  22.856  0.00  0.00     0.100 A 
ENDBRANCH  25  26
ENDBRANCH   5  25
TORSDOF 6
ENDMDL
MODEL 3
REMARK VINA RESULT:      -3.7      6.481      9.078
REMARK  6 active torsions:
REMARK  status: ('A' for Active; 'I' for Inactive)
REMARK    1  A    between atoms: O_8  and  C_2 
REMARK    2  A    between atoms: C_10  and  C_5 
REMARK    3  A    between atoms: C_21  and  O_8 
REMARK    4  A    between atoms: N_9  and  C_10 
REMARK    5  A    between atoms: C_12  and  C_15 
REMARK    6  A    between atoms: O_26  and  C_12 
ROOT
ATOM      1  C   UNL d   1     -39.806  15.244  18.830  0.00  0.00     0.108 A 
ATOM      2  C   UNL d   1     -40.582  15.096  20.292  0.00  0.00     0.161 A 
ATOM      3  C   UNL d   1     -40.594  15.511  18.916  0.00  0.00     0.064 A 
ATOM      4  C   UNL d   1     -40.978  15.439  19.638  0.00  0.00     0.222 A 
ATOM      5  C   UNL d   1     -39.417  15.317  18.100  0.00  0.00     0.079 A 
ATOM      6  O   UNL d   1     -39.405  14.903  19.472  0.00  0.00    -0.305 OA
ATOM      7  C   UNL d   1     -39.800  14.830  20.208  0.00  0.00     0.126 A 
ATOM      8  C   UNL d   1     -40.979  15.850  18.261  0.00  0.00     0.009 A 
ATOM      9  C   UNL d   1     -39.807  15.654  17.457  0.00  0.00     0.199 A 
ATOM     10  O   UNL d   1     -41.756  15.702  19.725  0.00  0.00    -0.284 OA
ATOM     11  C   UNL d   1     -40.592  15.922  17.538  0.00  0.00     0.042 A 
ATOM     12  O   UNL d   1     -39.426  15.728  16.736  0.00  0.00    -0.286 OA
ATOM     13  C   UNL d   1     -39.411  14.494  20.851  0.00  0.00     0.029 C 
ENDROOT
BRANCH   2  14
ATOM     14  O   UNL d   1     -40.970  15.024  21.015  0.00  0.00    -0.302 OA
BRANCH  14  15
ATOM     15  C   UNL d   1     -41.513  14.418  21.130  0.00  0.00     0.100 A 
ATOM     16  C   UNL d   1     -41.265  13.633  21.101  0.00  0.00     0.025 A 
ATOM     17  C   UNL d   1     -41.809  13.026  21.216  0.00  0.00     0.007 A 
ATOM     18  C   UNL d   1     -42.601  13.204  21.362  0.00  0.00     0.063 A 
ATOM     19  C   UNL d   1     -42.847  14.001  21.391  0.00  0.00     0.007 A 
ATOM     20  C   UNL d   1     -42.305  14.599  21.276  0.00  0.00     0.025 A 
BRANCH  18  21
ATOM     21  C   UNL d   1     -43.150  12.598  21.479  0.00  0.00     0.296 C 
ATOM     22  O   UNL d   1     -43.772  12.491  20.947  0.00  0.00    -0.259 OA
BRANCH  21  23
ATOM     23  O   UNL d   1     -43.082  12.091  22.129  0.00  0.00    -0.296 OA
ATOM     24  C   UNL d   1     -43.763  11.775  22.471  0.00  0.00     0.185 C 
ENDBRANCH  21  23
ENDBRANCH  18  21
ENDBRANCH  14  15
ENDBRANCH   2  14
BRANCH   5  25
ATOM     25  C   UNL d   1     -38.649  15.055  18.021  0.00  0.00     0.086 C 
BRANCH  25  26
ATOM     26  N   UNL d   1     -38.479  14.420  17.520  0.00  0.00    -0.300 N 
ATOM     27  C   UNL d   1     -38.673  13.651  17.748  0.00  0.00     0.100 A 
ATOM     28  C   UNL d   1     -38.504  13.022  17.249  0.00  0.00     0.100 A 
ATOM     29  N   UNL d   1     -38.141  13.153  16.524  0.00  0.00    -0.299 N 
ATOM     30  C   UNL d   1     -37.946  13.925  16.294  0.00  0.00     0.100 A 
ATOM     31  C   UNL d   1     -37.970  12.516  16.018  0.00  0.00     0.100 C 
ATOM     32  C   UNL d   1     -38.116  14.560  16.796  0.00  0.00     0.100 A 
ENDBRANCH  25  26
ENDBRANCH   5  25
TORSDOF 6
ENDMDL
MODEL 4
REMARK VINA RESULT:      -3.3      6.183      8.607
REMARK  6 active torsions:
REMARK  status: ('A' for Active; 'I' for Inactive)
REMARK    1  A    between atoms: O_8  and  C_2 
REMARK    2  A    between atoms: C_10  and  C_5 
REMARK    3  A    between atoms: C_21  and  O_8 
REMARK    4  A    between atoms: N_9  and  C_10 
REMARK    5  A    between atoms: C_12  and  C_15 
REMARK    6  A    between atoms: O_26  and  C_12 
ROOT
ATOM      1  C   UNL d   1     -39.498  15.044  18.917  0.00  0.00     0.108 A 
ATOM      2  C   UNL d   1     -40.022  14.672  20.449  0.00  0.00     0.161 A 
ATOM      3  C   UNL d   1     -39.246  14.337  19.286  0.00  0.00     0.064 A 
ATOM      4  C   UNL d   1     -39.504  14.153  20.043  0.00  0.00     0.222 A 
ATOM      5  C   UNL d   1     -39.237  15.231  18.151  0.00  0.00     0.079 A 
ATOM      6  O   UNL d   1     -40.011  15.565  19.310  0.00  0.00    -0.305 OA
ATOM      7  C   UNL d   1     -40.272  15.374  20.083  0.00  0.00     0.126 A 
ATOM      8  C   UNL d   1     -38.733  13.828  18.875  0.00  0.00     0.009 A 
ATOM      9  C   UNL d   1     -38.729  14.720  17.752  0.00  0.00     0.199 A 
ATOM     10  O   UNL d   1     -39.257  13.455  20.410  0.00  0.00    -0.284 OA
ATOM     11  C   UNL d   1     -38.475  14.015  18.116  0.00  0.00     0.042 A 
ATOM     12  O   UNL d   1     -38.470  14.902  16.997  0.00  0.00    -0.286 OA
ATOM     13  C   UNL d   1     -40.781  15.884  20.482  0.00  0.00     0.029 C 
ENDROOT
BRANCH   2  14
ATOM     14  O   UNL d   1     -40.279  14.485  21.208  0.00  0.00    -0.302 OA
BRANCH  14  15
ATOM     15  C   UNL d   1     -40.983  14.072  21.313  0.00  0.00     0.100 A 
ATOM     16  C   UNL d   1     -40.969  13.310  21.626  0.00  0.00     0.025 A 
ATOM     17  C   UNL d   1     -41.673  12.897  21.730  0.00  0.00     0.007 A 
ATOM     18  C   UNL d   1     -42.391  13.245  21.521  0.00  0.00     0.063 A 
ATOM     19  C   UNL d   1     -42.400  14.016  21.204  0.00  0.00     0.007 A 
ATOM     20  C   UNL d   1     -41.699  14.423  21.102  0.00  0.00     0.025 A 
BRANCH  18  21
ATOM     21  C   UNL d   1     -43.100  12.833  21.625  0.00  0.00     0.296 C 
ATOM     22  O   UNL d   1     -43.096  12.069  21.936  0.00  0.00    -0.259 OA
BRANCH  21  23
ATOM     23  O   UNL d   1     -43.820  13.181  21.417  0.00  0.00    -0.296 OA
ATOM     24  C   UNL d   1     -44.527  12.809  21.626  0.00  0.00     0.185 C 
ENDBRANCH  21  23
ENDBRANCH  18  21
ENDBRANCH  14  15
ENDBRANCH   2  14
BRANCH   5  25
ATOM     25  C   UNL d   1     -39.486  15.922  17.795  0.00  0.00     0.086 C 
BRANCH  25  26
ATOM     26  N   UNL d   1     -40.141  15.913  17.289  0.00  0.00    -0.300 N 
ATOM     27  C   UNL d   1     -40.030  15.904  16.472  0.00  0.00     0.100 A 
ATOM     28  C   UNL d   1     -40.681  15.896  15.972  0.00  0.00     0.100 A 
ATOM     29  N   UNL d   1     -41.442  15.896  16.280  0.00  0.00    -0.299 N 
ATOM     30  C   UNL d   1     -41.554  15.905  17.102  0.00  0.00     0.100 A 
ATOM     31  C   UNL d   1     -42.101  15.887  15.774  0.00  0.00     0.100 C 
ATOM     32  C   UNL d   1     -40.898  15.913  17.607  0.00  0.00     0.100 A 
ENDBRANCH  25  26
ENDBRANCH   5  25
TORSDOF 6
ENDMDL
MODEL 5
REMARK VINA RESULT:      -2.8      8.181      9.871
REMARK  6 active torsions:
REMARK  status: ('A' for Active; 'I' for Inactive)
REMARK    1  A    between atoms: O_8  and  C_2 
REMARK    2  A    between atoms: C_10  and  C_5 
REMARK    3  A    between atoms: C_21  and  O_8 
REMARK    4  A    between atoms: N_9  and  C_10 
REMARK    5  A    between atoms: C_12  and  C_15 
REMARK    6  A    between atoms: O_26  and  C_12 
ROOT
ATOM      1  C   UNL d   1     -39.329  15.509  18.394  0.00  0.00     0.108 A 
ATOM      2  C   UNL d   1     -39.363  15.756  20.037  0.00  0.00     0.161 A 
ATOM      3  C   UNL d   1     -40.056  15.488  18.807  0.00  0.00     0.064 A 
ATOM      4  C   UNL d   1     -40.074  15.610  19.618  0.00  0.00     0.222 A 
ATOM      5  C   UNL d   1     -39.311  15.386  17.574  0.00  0.00     0.079 A 
ATOM      6  O   UNL d   1     -38.619  15.653  18.800  0.00  0.00    -0.305 OA
ATOM      7  C   UNL d   1     -38.640  15.776  19.628  0.00  0.00     0.126 A 
ATOM      8  C   UNL d   1     -40.757  15.343  18.383  0.00  0.00     0.009 A 
ATOM      9  C   UNL d   1     -40.010  15.243  17.162  0.00  0.00     0.199 A 
ATOM     10  O   UNL d   1     -40.791  15.590  20.028  0.00  0.00    -0.284 OA
ATOM     11  C   UNL d   1     -40.737  15.221  17.569  0.00  0.00     0.042 A 
ATOM     12  O   UNL d   1     -39.995  15.121  16.352  0.00  0.00    -0.286 OA
ATOM     13  C   UNL d   1     -37.942  15.920  20.040  0.00  0.00     0.029 C 
ENDROOT
BRANCH   2  14
ATOM     14  O   UNL d   1     -39.383  15.877  20.851  0.00  0.00    -0.302 OA
BRANCH  14  15
ATOM     15  C   UNL d   1     -39.304  15.239  21.363  0.00  0.00     0.100 A 
ATOM     16  C   UNL d   1     -39.972  14.827  21.613  0.00  0.00     0.025 A 
ATOM     17  C   UNL d   1     -39.893  14.189  22.126  0.00  0.00     0.007 A 
ATOM     18  C   UNL d   1     -39.145  13.961  22.389  0.00  0.00     0.063 A 
ATOM     19  C   UNL d   1     -38.471  14.381  22.134  0.00  0.00     0.007 A 
ATOM     20  C   UNL d   1     -38.554  15.014  21.625  0.00  0.00     0.025 A 
BRANCH  18  21
ATOM     21  C   UNL d   1     -39.061  13.320  22.904  0.00  0.00     0.296 C 
ATOM     22  O   UNL d   1     -38.312  13.029  23.089  0.00  0.00    -0.259 OA
BRANCH  21  23
ATOM     23  O   UNL d   1     -39.727  12.963  23.239  0.00  0.00    -0.296 OA
ATOM     24  C   UNL d   1     -39.637  12.284  23.698  0.00  0.00     0.185 C 
ENDBRANCH  21  23
ENDBRANCH  18  21
ENDBRANCH  14  15
ENDBRANCH   2  14
BRANCH   5  25
ATOM     25  C   UNL d   1     -38.599  15.407  17.175  0.00  0.00     0.086 C 
BRANCH  25  26
ATOM     26  N   UNL d   1     -38.439  14.851  16.584  0.00  0.00    -0.300 N 
ATOM     27  C   UNL d   1     -38.389  15.089  15.796  0.00  0.00     0.100 A 
ATOM     28  C   UNL d   1     -38.231  14.536  15.211  0.00  0.00     0.100 A 
ATOM     29  N   UNL d   1     -38.123  13.745  15.406  0.00  0.00    -0.299 N 
ATOM     30  C   UNL d   1     -38.173  13.505  16.198  0.00  0.00     0.100 A 
ATOM     31  C   UNL d   1     -37.962  13.185  14.814  0.00  0.00     0.100 C 
ATOM     32  C   UNL d   1     -38.333  14.062  16.789  0.00  0.00     0.100 A 
ENDBRANCH  25  26
ENDBRANCH   5  25
TORSDOF 6
ENDMDL
