MODEL 1
REMARK VINA RESULT:      47.2      0.000      0.000
REMARK  2 active torsions:
REMARK  status: ('A' for Active; 'I' for Inactive)
REMARK    1  A    between atoms: C_3  and  C_4 
REMARK       I    between atoms: N_7  and  C_3 
REMARK    2  A    between atoms: C_11  and  N_7 
ROOT
ATOM      1  C   UNL d   1      57.410  49.584  51.181  0.00  0.00     0.300 A 
ATOM      2  O   UNL d   1      58.229  49.609  51.328  0.00  0.00    -0.268 OA
ATOM      3  C   UNL d   1      58.765  49.549  50.692  0.00  0.00     0.161 A 
ATOM      4  C   UNL d   1      57.125  49.500  50.408  0.00  0.00     0.064 A 
ATOM      5  C   UNL d   1      57.667  49.440  49.777  0.00  0.00     0.007 A 
ATOM      6  C   UNL d   1      58.481  49.464  49.916  0.00  0.00     0.030 A 
ATOM      7  O   UNL d   1      56.882  49.644  51.808  0.00  0.00    -0.259 OA
ATOM      8  C   UNL d   1      57.381  49.355  49.004  0.00  0.00     0.000 A 
ATOM      9  C   UNL d   1      56.318  49.475  50.266  0.00  0.00     0.005 A 
ATOM     10  C   UNL d   1      56.567  49.332  48.871  0.00  0.00     0.000 A 
ATOM     11  C   UNL d   1      56.039  49.391  49.498  0.00  0.00     0.000 A 
ENDROOT
BRANCH   3  12
ATOM     12  C   UNL d   1      59.572  49.574  50.840  0.00  0.00     0.302 C 
ATOM     13  N   UNL d   1      59.856  49.496  51.606  0.00  0.00    -0.206 NA
ATOM     14  O   UNL d   1      60.095  49.677  50.215  0.00  0.00    -0.263 OA
BRANCH  13  15
ATOM     15  C   UNL d   1      60.665  49.522  51.745  0.00  0.00     0.085 A 
ATOM     16  C   UNL d   1      61.198  49.398  51.138  0.00  0.00     0.019 A 
ATOM     17  C   UNL d   1      62.000  49.423  51.272  0.00  0.00     0.002 A 
ATOM     18  C   UNL d   1      62.288  49.577  52.036  0.00  0.00     0.000 A 
ATOM     19  C   UNL d   1      61.756  49.703  52.651  0.00  0.00     0.002 A 
ATOM     20  C   UNL d   1      63.094  49.603  52.174  0.00  0.00     0.000 C 
ATOM     21  C   UNL d   1      60.936  49.677  52.512  0.00  0.00     0.019 A 
ENDBRANCH  13  15
ENDBRANCH   3  12
TORSDOF 2
ENDMDL
