MODEL 1
REMARK VINA RESULT:     130.3      0.000      0.000
REMARK  5 active torsions:
REMARK  status: ('A' for Active; 'I' for Inactive)
REMARK    1  A    between atoms: C_12  and  N_3 
REMARK    2  A    between atoms: C_11  and  C_5 
REMARK       I    between atoms: N_16  and  C_11 
REMARK    3  A    between atoms: C_15  and  C_12 
REMARK    4  A    between atoms: C_26  and  N_16 
REMARK    5  A    between atoms: C_27  and  C_26 
ROOT
ATOM      1  C   UNL d   1      58.844  49.330  51.836  0.00  0.00     0.155 A 
ATOM      2  C   UNL d   1      58.972  49.026  51.069  0.00  0.00     0.091 A 
ATOM      3  N   UNL d   1      59.478  49.405  52.352  0.00  0.00    -0.272 N 
ATOM      4  N   UNL d   1      58.086  49.548  52.064  0.00  0.00    -0.210 NA
ATOM      5  C   UNL d   1      60.367  48.883  51.358  0.00  0.00     0.094 A 
ATOM      6  C   UNL d   1      60.240  49.183  52.118  0.00  0.00     0.175 A 
ATOM      7  C   UNL d   1      58.339  48.947  50.545  0.00  0.00     0.269 A 
ATOM      8  N   UNL d   1      57.579  49.172  50.788  0.00  0.00    -0.258 N 
ATOM      9  C   UNL d   1      57.457  49.472  51.548  0.00  0.00     0.152 A 
ATOM     10  C   UNL d   1      59.731  48.804  50.833  0.00  0.00     0.016 A 
ATOM     11  N   UNL d   1      60.873  49.262  52.641  0.00  0.00    -0.128 N 
ATOM     12  C   UNL d   1      56.948  49.090  50.257  0.00  0.00     0.084 A 
ATOM     13  O   UNL d   1      58.458  48.647  49.783  0.00  0.00    -0.266 OA
ATOM     14  C   UNL d   1      56.695  49.691  51.775  0.00  0.00     0.038 A 
ATOM     15  C   UNL d   1      56.192  49.314  50.500  0.00  0.00     0.019 A 
ATOM     16  C   UNL d   1      56.065  49.615  51.260  0.00  0.00     0.005 A 
ENDROOT
BRANCH   5  17
ATOM     17  C   UNL d   1      61.126  48.661  51.122  0.00  0.00     0.282 C 
ATOM     18  N   UNL d   1      61.298  47.866  50.984  0.00  0.00    -0.206 NA
ATOM     19  O   UNL d   1      61.713  49.235  51.025  0.00  0.00    -0.265 OA
BRANCH  18  20
ATOM     20  C   UNL d   1      62.062  47.639  50.747  0.00  0.00     0.102 C 
BRANCH  20  21
ATOM     21  C   UNL d   1      62.168  46.971  50.275  0.00  0.00     0.019 A 
ATOM     22  C   UNL d   1      62.652  47.010  49.605  0.00  0.00     0.002 A 
ATOM     23  C   UNL d   1      62.758  46.342  49.133  0.00  0.00     0.000 A 
ATOM     24  C   UNL d   1      62.380  45.631  49.329  0.00  0.00     0.000 A 
ATOM     25  C   UNL d   1      61.897  45.596  49.999  0.00  0.00     0.000 A 
ATOM     26  C   UNL d   1      62.486  44.963  48.857  0.00  0.00     0.000 C 
ATOM     27  C   UNL d   1      61.791  46.264  50.471  0.00  0.00     0.002 A 
ENDBRANCH  20  21
ENDBRANCH  18  20
ENDBRANCH   5  17
BRANCH   3  28
ATOM     28  C   UNL d   1      59.351  49.706  53.112  0.00  0.00     0.107 C 
BRANCH  28  29
ATOM     29  C   UNL d   1      58.598  49.677  53.448  0.00  0.00     0.118 A 
ATOM     30  O   UNL d   1      57.790  49.634  53.324  0.00  0.00    -0.304 OA
ATOM     31  C   UNL d   1      57.410  49.632  54.053  0.00  0.00     0.123 A 
ATOM     32  C   UNL d   1      57.989  49.673  54.639  0.00  0.00     0.029 A 
ATOM     33  C   UNL d   1      58.725  49.701  54.267  0.00  0.00     0.028 A 
ENDBRANCH  28  29
ENDBRANCH   3  28
TORSDOF 5
ENDMDL
