MODEL 1
REMARK VINA RESULT:      57.8      0.000      0.000
REMARK  6 active torsions:
REMARK  status: ('A' for Active; 'I' for Inactive)
REMARK    1  A    between atoms: C_3  and  N_1 
REMARK    2  A    between atoms: N_7  and  C_3 
REMARK    3  A    between atoms: C_10  and  C_4 
REMARK    4  A    between atoms: C_9  and  C_5 
REMARK    5  A    between atoms: C_13  and  N_7 
REMARK    6  A    between atoms: O_17  and  C_14 
ROOT
ATOM      1  N   UNL d   1      13.961  14.216  -3.006  0.00  0.00    -0.203 N 
ATOM      2  N   UNL d   1      13.950  13.557  -2.524  0.00  0.00    -0.163 NA
ATOM      3  C   UNL d   1      14.423  13.699  -1.890  0.00  0.00     0.103 A 
ATOM      4  C   UNL d   1      14.454  14.790  -2.671  0.00  0.00     0.087 A 
ATOM      5  C   UNL d   1      14.738  14.461  -1.975  0.00  0.00     0.040 A 
ENDROOT
BRANCH   1   6
ATOM      6  C   UNL d   1      13.529  14.277  -3.732  0.00  0.00     0.222 C 
ATOM      7  S   UNL d   1      13.788  14.791  -4.333  0.00  0.00    -0.037 SA
BRANCH   6   8
ATOM      8  N   UNL d   1      12.852  13.832  -3.850  0.00  0.00    -0.217 NA
BRANCH   8   9
ATOM      9  C   UNL d   1      12.854  13.179  -4.360  0.00  0.00     0.084 A 
ATOM     10  C   UNL d   1      12.771  13.294  -5.166  0.00  0.00     0.019 A 
ATOM     11  C   UNL d   1      12.773  12.636  -5.680  0.00  0.00     0.002 A 
ATOM     12  C   UNL d   1      12.858  11.877  -5.367  0.00  0.00     0.000 A 
ATOM     13  C   UNL d   1      12.938  11.788  -4.559  0.00  0.00     0.002 A 
ATOM     14  C   UNL d   1      12.937  12.435  -4.046  0.00  0.00     0.019 A 
ENDBRANCH   8   9
ENDBRANCH   6   8
ENDBRANCH   1   6
BRANCH   4  15
ATOM     15  C   UNL d   1      14.635  15.542  -2.958  0.00  0.00     0.018 A 
ATOM     16  C   UNL d   1      14.822  16.149  -2.424  0.00  0.00     0.004 A 
ATOM     17  C   UNL d   1      15.000  16.887  -2.699  0.00  0.00     0.024 A 
ATOM     18  C   UNL d   1      14.999  17.055  -3.520  0.00  0.00     0.094 A 
ATOM     19  C   UNL d   1      14.813  16.451  -4.032  0.00  0.00     0.024 A 
ATOM     20  C   UNL d   1      14.628  15.685  -3.758  0.00  0.00     0.004 A 
BRANCH  18  21
ATOM     21  O   UNL d   1      15.184  17.821  -3.795  0.00  0.00    -0.328 OA
ATOM     22  C   UNL d   1      14.744  18.192  -4.399  0.00  0.00     0.181 C 
ENDBRANCH  18  21
ENDBRANCH   4  15
BRANCH   3  23
ATOM     23  C   UNL d   1      14.547  13.166  -1.290  0.00  0.00     0.019 A 
ATOM     24  C   UNL d   1      15.162  12.611  -1.341  0.00  0.00     0.002 A 
ATOM     25  C   UNL d   1      15.285  12.068  -0.726  0.00  0.00     0.000 A 
ATOM     26  C   UNL d   1      14.799  12.080  -0.068  0.00  0.00     0.000 A 
ATOM     27  C   UNL d   1      14.184  12.635  -0.017  0.00  0.00     0.000 A 
ATOM     28  C   UNL d   1      14.062  13.178  -0.633  0.00  0.00     0.002 A 
ENDBRANCH   3  23
TORSDOF 6
ENDMDL
MODEL 2
REMARK VINA RESULT:      60.6      1.435      3.770
REMARK  6 active torsions:
REMARK  status: ('A' for Active; 'I' for Inactive)
REMARK    1  A    between atoms: C_3  and  N_1 
REMARK    2  A    between atoms: N_7  and  C_3 
REMARK    3  A    between atoms: C_10  and  C_4 
REMARK    4  A    between atoms: C_9  and  C_5 
REMARK    5  A    between atoms: C_13  and  N_7 
REMARK    6  A    between atoms: O_17  and  C_14 
ROOT
ATOM      1  N   UNL d   1      13.986  14.566  -3.158  0.00  0.00    -0.203 N 
ATOM      2  N   UNL d   1      14.088  15.216  -3.642  0.00  0.00    -0.163 NA
ATOM      3  C   UNL d   1      14.682  15.666  -3.340  0.00  0.00     0.103 A 
ATOM      4  C   UNL d   1      14.528  14.603  -2.534  0.00  0.00     0.087 A 
ATOM      5  C   UNL d   1      14.958  15.291  -2.654  0.00  0.00     0.040 A 
ENDROOT
BRANCH   1   6
ATOM      6  C   UNL d   1      13.408  13.962  -3.296  0.00  0.00     0.222 C 
ATOM      7  S   UNL d   1      13.221  13.417  -2.696  0.00  0.00    -0.037 SA
BRANCH   6   8
ATOM      8  N   UNL d   1      13.029  13.908  -4.019  0.00  0.00    -0.217 NA
BRANCH   8   9
ATOM      9  C   UNL d   1      13.012  13.193  -4.440  0.00  0.00     0.084 A 
ATOM     10  C   UNL d   1      12.823  12.498  -4.051  0.00  0.00     0.019 A 
ATOM     11  C   UNL d   1      12.806  11.779  -4.474  0.00  0.00     0.002 A 
ATOM     12  C   UNL d   1      12.980  11.779  -5.281  0.00  0.00     0.000 A 
ATOM     13  C   UNL d   1      13.165  12.486  -5.647  0.00  0.00     0.002 A 
ATOM     14  C   UNL d   1      13.184  13.200  -5.233  0.00  0.00     0.019 A 
ENDBRANCH   8   9
ENDBRANCH   6   8
ENDBRANCH   1   6
BRANCH   4  15
ATOM     15  C   UNL d   1      14.631  14.071  -1.912  0.00  0.00     0.018 A 
ATOM     16  C   UNL d   1      14.734  14.360  -1.140  0.00  0.00     0.004 A 
ATOM     17  C   UNL d   1      14.835  13.844  -0.528  0.00  0.00     0.024 A 
ATOM     18  C   UNL d   1      14.839  13.016  -0.654  0.00  0.00     0.094 A 
ATOM     19  C   UNL d   1      14.737  12.747  -1.415  0.00  0.00     0.024 A 
ATOM     20  C   UNL d   1      14.632  13.272  -2.055  0.00  0.00     0.004 A 
BRANCH  18  21
ATOM     21  O   UNL d   1      14.944  12.491  -0.014  0.00  0.00    -0.328 OA
ATOM     22  C   UNL d   1      15.372  11.780  -0.092  0.00  0.00     0.181 C 
ENDBRANCH  18  21
ENDBRANCH   4  15
BRANCH   3  23
ATOM     23  C   UNL d   1      14.940  16.359  -3.675  0.00  0.00     0.019 A 
ATOM     24  C   UNL d   1      15.518  16.349  -4.270  0.00  0.00     0.002 A 
ATOM     25  C   UNL d   1      15.778  17.060  -4.609  0.00  0.00     0.000 A 
ATOM     26  C   UNL d   1      15.462  17.772  -4.357  0.00  0.00     0.000 A 
ATOM     27  C   UNL d   1      14.884  17.781  -3.762  0.00  0.00     0.000 A 
ATOM     28  C   UNL d   1      14.625  17.070  -3.423  0.00  0.00     0.002 A 
ENDBRANCH   3  23
TORSDOF 6
ENDMDL
