MODEL 1
REMARK VINA RESULT:      -3.4      0.000      0.000
REMARK  3 active torsions:
REMARK  status: ('A' for Active; 'I' for Inactive)
REMARK    1  A    between atoms: S_8  and  C_2 
REMARK    2  A    between atoms: C_13  and  S_8 
REMARK    3  A    between atoms: C_15  and  C_13 
ROOT
ATOM      1  C   UNL d   1      57.968   0.611  31.844  0.00  0.00     0.104 A 
ATOM      2  C   UNL d   1      56.829   0.596  33.035  0.00  0.00     0.182 A 
ATOM      3  N   UNL d   1      57.630   0.635  33.229  0.00  0.00    -0.251 N 
ATOM      4  C   UNL d   1      58.202   0.642  32.623  0.00  0.00     0.274 A 
ATOM      5  C   UNL d   1      57.167   0.571  31.650  0.00  0.00     0.095 A 
ATOM      6  N   UNL d   1      56.600   0.564  32.234  0.00  0.00    -0.222 NA
ATOM      7  S   UNL d   1      58.398   0.609  31.143  0.00  0.00    -0.081 SA
ATOM      8  C   UNL d   1      57.103   0.545  30.828  0.00  0.00     0.026 A 
ATOM      9  O   UNL d   1      59.002   0.682  32.818  0.00  0.00    -0.266 OA
ATOM     10  C   UNL d   1      57.858   0.569  30.516  0.00  0.00     0.031 A 
ATOM     11  C   UNL d   1      57.864   0.668  34.026  0.00  0.00     0.104 C 
ATOM     12  C   UNL d   1      58.040   0.554  29.711  0.00  0.00     0.007 C 
ENDROOT
BRANCH   2  13
ATOM     13  S   UNL d   1      56.249   0.588  33.634  0.00  0.00    -0.050 SA
BRANCH  13  14
ATOM     14  C   UNL d   1      55.564   0.139  33.532  0.00  0.00     0.032 C 
ATOM     15  C   UNL d   1      55.612  -0.684  33.494  0.00  0.00     0.007 C 
BRANCH  14  16
ATOM     16  C   UNL d   1      54.835   0.514  33.468  0.00  0.00     0.007 C 
ATOM     17  C   UNL d   1      54.355   0.594  34.135  0.00  0.00     0.001 C 
ENDBRANCH  14  16
ENDBRANCH  13  14
ENDBRANCH   2  13
TORSDOF 3
ENDMDL
MODEL 2
REMARK VINA RESULT:      -3.2      0.769      3.163
REMARK  3 active torsions:
REMARK  status: ('A' for Active; 'I' for Inactive)
REMARK    1  A    between atoms: S_8  and  C_2 
REMARK    2  A    between atoms: C_13  and  S_8 
REMARK    3  A    between atoms: C_15  and  C_13 
ROOT
ATOM      1  C   UNL d   1      56.579   0.660  33.527  0.00  0.00     0.104 A 
ATOM      2  C   UNL d   1      57.520   0.673  32.175  0.00  0.00     0.182 A 
ATOM      3  N   UNL d   1      57.870   0.668  32.921  0.00  0.00    -0.251 N 
ATOM      4  C   UNL d   1      57.390   0.661  33.602  0.00  0.00     0.274 A 
ATOM      5  C   UNL d   1      56.229   0.665  32.781  0.00  0.00     0.095 A 
ATOM      6  N   UNL d   1      56.689   0.672  32.108  0.00  0.00    -0.222 NA
ATOM      7  S   UNL d   1      55.978   0.653  34.088  0.00  0.00    -0.081 SA
ATOM      8  C   UNL d   1      55.411   0.662  32.881  0.00  0.00     0.026 A 
ATOM      9  O   UNL d   1      57.741   0.655  34.349  0.00  0.00    -0.266 OA
ATOM     10  C   UNL d   1      55.255   0.655  33.683  0.00  0.00     0.031 A 
ATOM     11  C   UNL d   1      58.698   0.669  32.993  0.00  0.00     0.104 C 
ATOM     12  C   UNL d   1      54.502   0.650  34.021  0.00  0.00     0.007 C 
ENDROOT
BRANCH   2  13
ATOM     13  S   UNL d   1      57.991   0.680  31.487  0.00  0.00    -0.050 SA
BRANCH  13  14
ATOM     14  C   UNL d   1      57.750   0.252  30.823  0.00  0.00     0.032 C 
ATOM     15  C   UNL d   1      57.616  -0.559  30.882  0.00  0.00     0.007 C 
BRANCH  14  16
ATOM     16  C   UNL d   1      57.645   0.638  30.104  0.00  0.00     0.007 C 
ATOM     17  C   UNL d   1      57.897   0.279  29.405  0.00  0.00     0.001 C 
ENDBRANCH  14  16
ENDBRANCH  13  14
ENDBRANCH   2  13
TORSDOF 3
ENDMDL
MODEL 3
REMARK VINA RESULT:      -3.2     10.135     10.567
REMARK  3 active torsions:
REMARK  status: ('A' for Active; 'I' for Inactive)
REMARK    1  A    between atoms: S_8  and  C_2 
REMARK    2  A    between atoms: C_13  and  S_8 
REMARK    3  A    between atoms: C_15  and  C_13 
ROOT
ATOM      1  C   UNL d   1      59.175  -9.784  32.379  0.00  0.00     0.104 A 
ATOM      2  C   UNL d   1      59.803  -9.717  33.900  0.00  0.00     0.182 A 
ATOM      3  N   UNL d   1      60.306  -9.750  33.247  0.00  0.00    -0.251 N 
ATOM      4  C   UNL d   1      59.983  -9.784  32.480  0.00  0.00     0.274 A 
ATOM      5  C   UNL d   1      58.672  -9.751  33.032  0.00  0.00     0.095 A 
ATOM      6  N   UNL d   1      58.977  -9.717  33.786  0.00  0.00    -0.222 NA
ATOM      7  S   UNL d   1      58.708  -9.813  31.702  0.00  0.00    -0.081 SA
ATOM      8  C   UNL d   1      57.895  -9.759  32.759  0.00  0.00     0.026 A 
ATOM      9  O   UNL d   1      60.485  -9.818  31.827  0.00  0.00    -0.266 OA
ATOM     10  C   UNL d   1      57.915  -9.797  31.942  0.00  0.00     0.031 A 
ATOM     11  C   UNL d   1      61.130  -9.750  33.355  0.00  0.00     0.104 C 
ATOM     12  C   UNL d   1      57.252  -9.816  31.451  0.00  0.00     0.007 C 
ENDROOT
BRANCH   2  13
ATOM     13  S   UNL d   1      60.116  -9.683  34.672  0.00  0.00    -0.050 SA
BRANCH  13  14
ATOM     14  C   UNL d   1      59.690  -9.301  35.268  0.00  0.00     0.032 C 
ATOM     15  C   UNL d   1      59.169  -9.730  35.742  0.00  0.00     0.007 C 
BRANCH  14  16
ATOM     16  C   UNL d   1      59.787  -8.494  35.388  0.00  0.00     0.007 C 
ATOM     17  C   UNL d   1      59.600  -8.161  36.120  0.00  0.00     0.001 C 
ENDBRANCH  14  16
ENDBRANCH  13  14
ENDBRANCH   2  13
TORSDOF 3
ENDMDL
MODEL 4
REMARK VINA RESULT:      -2.8      3.035      4.925
REMARK  3 active torsions:
REMARK  status: ('A' for Active; 'I' for Inactive)
REMARK    1  A    between atoms: S_8  and  C_2 
REMARK    2  A    between atoms: C_13  and  S_8 
REMARK    3  A    between atoms: C_15  and  C_13 
ROOT
ATOM      1  C   UNL d   1      58.873  -0.052  29.937  0.00  0.00     0.104 A 
ATOM      2  C   UNL d   1      59.302  -1.305  28.957  0.00  0.00     0.182 A 
ATOM      3  N   UNL d   1      59.771  -0.627  28.990  0.00  0.00    -0.251 N 
ATOM      4  C   UNL d   1      59.549   0.004  29.487  0.00  0.00     0.274 A 
ATOM      5  C   UNL d   1      58.404  -0.730  29.904  0.00  0.00     0.095 A 
ATOM      6  N   UNL d   1      58.612  -1.353  29.422  0.00  0.00    -0.222 NA
ATOM      7  S   UNL d   1      58.523   0.471  30.467  0.00  0.00    -0.081 SA
ATOM      8  C   UNL d   1      57.765  -0.626  30.414  0.00  0.00     0.026 A 
ATOM      9  O   UNL d   1      60.018   0.682  29.520  0.00  0.00    -0.266 OA
ATOM     10  C   UNL d   1      57.836   0.111  30.760  0.00  0.00     0.031 A 
ATOM     11  C   UNL d   1      60.460  -0.574  28.529  0.00  0.00     0.104 C 
ATOM     12  C   UNL d   1      57.309   0.432  31.307  0.00  0.00     0.007 C 
ENDROOT
BRANCH   2  13
ATOM     13  S   UNL d   1      59.515  -1.942  28.463  0.00  0.00    -0.050 SA
BRANCH  13  14
ATOM     14  C   UNL d   1      59.285  -2.709  28.664  0.00  0.00     0.032 C 
ATOM     15  C   UNL d   1      58.533  -2.980  28.461  0.00  0.00     0.007 C 
BRANCH  14  16
ATOM     16  C   UNL d   1      59.806  -3.200  29.067  0.00  0.00     0.007 C 
ATOM     17  C   UNL d   1      59.922  -3.976  28.809  0.00  0.00     0.001 C 
ENDBRANCH  14  16
ENDBRANCH  13  14
ENDBRANCH   2  13
TORSDOF 3
ENDMDL
MODEL 5
REMARK VINA RESULT:      -2.3      2.660      4.496
REMARK  3 active torsions:
REMARK  status: ('A' for Active; 'I' for Inactive)
REMARK    1  A    between atoms: S_8  and  C_2 
REMARK    2  A    between atoms: C_13  and  S_8 
REMARK    3  A    between atoms: C_15  and  C_13 
ROOT
ATOM      1  C   UNL d   1      57.777  -0.452  30.814  0.00  0.00     0.104 A 
ATOM      2  C   UNL d   1      58.426  -1.334  29.583  0.00  0.00     0.182 A 
ATOM      3  N   UNL d   1      58.653  -0.548  29.693  0.00  0.00    -0.251 N 
ATOM      4  C   UNL d   1      58.322  -0.107  30.317  0.00  0.00     0.274 A 
ATOM      5  C   UNL d   1      57.551  -1.238  30.705  0.00  0.00     0.095 A 
ATOM      6  N   UNL d   1      57.868  -1.678  30.098  0.00  0.00    -0.222 NA
ATOM      7  S   UNL d   1      57.366  -0.159  31.464  0.00  0.00    -0.081 SA
ATOM      8  C   UNL d   1      56.999  -1.430  31.286  0.00  0.00     0.026 A 
ATOM      9  O   UNL d   1      58.549   0.678  30.427  0.00  0.00    -0.266 OA
ATOM     10  C   UNL d   1      56.884  -0.769  31.753  0.00  0.00     0.031 A 
ATOM     11  C   UNL d   1      59.209  -0.200  29.183  0.00  0.00     0.104 C 
ATOM     12  C   UNL d   1      56.374  -0.726  32.400  0.00  0.00     0.007 C 
ENDROOT
BRANCH   2  13
ATOM     13  S   UNL d   1      58.752  -1.784  28.962  0.00  0.00    -0.050 SA
BRANCH  13  14
ATOM     14  C   UNL d   1      58.982  -2.565  29.102  0.00  0.00     0.032 C 
ATOM     15  C   UNL d   1      58.446  -3.181  28.983  0.00  0.00     0.007 C 
BRANCH  14  16
ATOM     16  C   UNL d   1      59.746  -2.726  29.358  0.00  0.00     0.007 C 
ATOM     17  C   UNL d   1      60.126  -3.416  29.110  0.00  0.00     0.001 C 
ENDBRANCH  14  16
ENDBRANCH  13  14
ENDBRANCH   2  13
TORSDOF 3
ENDMDL
MODEL 6
REMARK VINA RESULT:      -1.7      9.383     10.164
REMARK  3 active torsions:
REMARK  status: ('A' for Active; 'I' for Inactive)
REMARK    1  A    between atoms: S_8  and  C_2 
REMARK    2  A    between atoms: C_13  and  S_8 
REMARK    3  A    between atoms: C_15  and  C_13 
ROOT
ATOM      1  C   UNL d   1      60.014  -7.895  35.709  0.00  0.00     0.104 A 
ATOM      2  C   UNL d   1      59.838  -9.172  34.683  0.00  0.00     0.182 A 
ATOM      3  N   UNL d   1      60.444  -9.173  35.244  0.00  0.00    -0.251 N 
ATOM      4  C   UNL d   1      60.528  -8.524  35.760  0.00  0.00     0.274 A 
ATOM      5  C   UNL d   1      59.409  -7.894  35.148  0.00  0.00     0.095 A 
ATOM      6  N   UNL d   1      59.317  -8.523  34.638  0.00  0.00    -0.222 NA
ATOM      7  S   UNL d   1      59.963  -7.193  36.135  0.00  0.00    -0.081 SA
ATOM      8  C   UNL d   1      58.984  -7.193  35.228  0.00  0.00     0.026 A 
ATOM      9  O   UNL d   1      61.133  -8.525  36.321  0.00  0.00    -0.266 OA
ATOM     10  C   UNL d   1      59.323  -6.761  35.834  0.00  0.00     0.031 A 
ATOM     11  C   UNL d   1      60.966  -9.817  35.294  0.00  0.00     0.104 C 
ATOM     12  C   UNL d   1      59.064  -6.022  36.093  0.00  0.00     0.007 C 
ENDROOT
BRANCH   2  13
ATOM     13  S   UNL d   1      59.746  -9.817  34.162  0.00  0.00    -0.050 SA
BRANCH  13  14
ATOM     14  C   UNL d   1      59.634  -9.676  33.356  0.00  0.00     0.032 C 
ATOM     15  C   UNL d   1      58.880  -9.737  33.027  0.00  0.00     0.007 C 
BRANCH  14  16
ATOM     16  C   UNL d   1      60.276  -9.475  32.883  0.00  0.00     0.007 C 
ATOM     17  C   UNL d   1      60.304  -9.730  32.099  0.00  0.00     0.001 C 
ENDBRANCH  14  16
ENDBRANCH  13  14
ENDBRANCH   2  13
TORSDOF 3
ENDMDL
MODEL 7
REMARK VINA RESULT:      -0.7      1.331      1.722
REMARK  3 active torsions:
REMARK  status: ('A' for Active; 'I' for Inactive)
REMARK    1  A    between atoms: S_8  and  C_2 
REMARK    2  A    between atoms: C_13  and  S_8 
REMARK    3  A    between atoms: C_15  and  C_13 
ROOT
ATOM      1  C   UNL d   1      57.459  -0.376  31.510  0.00  0.00     0.104 A 
ATOM      2  C   UNL d   1      56.693  -0.343  32.969  0.00  0.00     0.182 A 
ATOM      3  N   UNL d   1      56.472  -0.896  32.398  0.00  0.00    -0.251 N 
ATOM      4  C   UNL d   1      56.862  -0.909  31.663  0.00  0.00     0.274 A 
ATOM      5  C   UNL d   1      57.680   0.177  32.081  0.00  0.00     0.095 A 
ATOM      6  N   UNL d   1      57.305   0.198  32.804  0.00  0.00    -0.222 NA
ATOM      7  S   UNL d   1      57.933  -0.259  30.849  0.00  0.00    -0.081 SA
ATOM      8  C   UNL d   1      58.291   0.635  31.771  0.00  0.00     0.026 A 
ATOM      9  O   UNL d   1      56.640  -1.462  31.092  0.00  0.00    -0.266 OA
ATOM     10  C   UNL d   1      58.447   0.369  31.014  0.00  0.00     0.031 A 
ATOM     11  C   UNL d   1      55.862  -1.439  32.558  0.00  0.00     0.104 C 
ATOM     12  C   UNL d   1      59.022   0.679  30.510  0.00  0.00     0.007 C 
ENDROOT
BRANCH   2  13
ATOM     13  S   UNL d   1      56.309  -0.323  33.708  0.00  0.00    -0.050 SA
BRANCH  13  14
ATOM     14  C   UNL d   1      55.850   0.334  33.911  0.00  0.00     0.032 C 
ATOM     15  C   UNL d   1      55.304   0.638  33.373  0.00  0.00     0.007 C 
BRANCH  14  16
ATOM     16  C   UNL d   1      55.940   0.682  34.651  0.00  0.00     0.007 C 
ATOM     17  C   UNL d   1      55.329   0.634  35.204  0.00  0.00     0.001 C 
ENDBRANCH  14  16
ENDBRANCH  13  14
ENDBRANCH   2  13
TORSDOF 3
ENDMDL
