MODEL 1
REMARK VINA RESULT:      87.9      0.000      0.000
REMARK  7 active torsions:
REMARK  status: ('A' for Active; 'I' for Inactive)
REMARK    1  A    between atoms: C_2  and  S_1 
REMARK    2  A    between atoms: N_3  and  S_1 
REMARK    3  A    between atoms: C_15  and  N_3 
REMARK    4  A    between atoms: C_4  and  C_9 
REMARK       I    between atoms: N_5  and  C_4 
REMARK    5  A    between atoms: C_16  and  N_5 
REMARK    6  A    between atoms: C_18  and  C_15 
REMARK    7  A    between atoms: C_17  and  C_16 
ROOT
ATOM      1  C   UNL d   1      60.291  48.258  50.717  0.00  0.00     0.058 A 
ATOM      2  C   UNL d   1      59.893  47.530  50.597  0.00  0.00     0.005 A 
ATOM      3  C   UNL d   1      61.113  48.263  50.783  0.00  0.00     0.005 A 
ATOM      4  C   UNL d   1      61.141  46.844  50.612  0.00  0.00     0.020 A 
ATOM      5  C   UNL d   1      60.322  46.836  50.546  0.00  0.00     0.002 A 
ATOM      6  C   UNL d   1      61.540  47.560  50.731  0.00  0.00     0.002 A 
ENDROOT
BRANCH   4   7
ATOM      7  C   UNL d   1      61.572  46.133  50.559  0.00  0.00     0.112 C 
BRANCH   7   8
ATOM      8  N   UNL d   1      61.200  45.439  50.307  0.00  0.00    -0.157 NA
BRANCH   8   9
ATOM      9  S   UNL d   1      61.577  44.703  50.404  0.00  0.00     0.285 S 
ATOM     10  O   UNL d   1      61.664  44.639  49.578  0.00  0.00    -0.198 OA
ATOM     11  O   UNL d   1      61.487  44.775  51.227  0.00  0.00    -0.198 OA
BRANCH   9  12
ATOM     12  C   UNL d   1      61.953  43.969  50.506  0.00  0.00     0.106 A 
ATOM     13  C   UNL d   1      62.027  43.639  51.255  0.00  0.00     0.024 A 
ATOM     14  C   UNL d   1      62.401  42.911  51.352  0.00  0.00     0.059 A 
ATOM     15 CL   UNL d   1      62.474  42.579  52.114  0.00  0.00    -0.082 Cl
ATOM     16  C   UNL d   1      62.701  42.512  50.700  0.00  0.00     0.011 A 
ATOM     17  C   UNL d   1      62.626  42.843  49.951  0.00  0.00     0.002 A 
ATOM     18  C   UNL d   1      62.253  43.571  49.854  0.00  0.00     0.013 A 
ENDBRANCH   9  12
ENDBRANCH   8   9
ENDBRANCH   7   8
ENDBRANCH   4   7
BRANCH   1  19
ATOM     19  C   UNL d   1      59.864  48.971  50.771  0.00  0.00     0.279 C 
ATOM     20  N   UNL d   1      59.065  48.985  50.576  0.00  0.00    -0.205 NA
ATOM     21  O   UNL d   1      60.245  49.670  51.021  0.00  0.00    -0.265 OA
BRANCH  20  22
ATOM     22  C   UNL d   1      58.636  49.693  50.628  0.00  0.00     0.121 C 
BRANCH  22  23
ATOM     23  C   UNL d   1      57.829  49.693  50.442  0.00  0.00     0.101 A 
ATOM     24  N   UNL d   1      57.275  49.708  51.052  0.00  0.00    -0.242 NA
ATOM     25  C   UNL d   1      56.474  49.708  50.860  0.00  0.00     0.099 A 
ATOM     26  C   UNL d   1      56.227  49.693  50.076  0.00  0.00     0.021 A 
ATOM     27  C   UNL d   1      56.796  49.678  49.470  0.00  0.00     0.003 A 
ATOM     28  C   UNL d   1      57.600  49.678  49.660  0.00  0.00     0.021 A 
ENDBRANCH  22  23
ENDBRANCH  20  22
ENDBRANCH   1  19
TORSDOF 7
ENDMDL
