MODEL 1
REMARK VINA RESULT:      -5.2      0.000      0.000
REMARK  5 active torsions:
REMARK  status: ('A' for Active; 'I' for Inactive)
REMARK    1  A    between atoms: C_2  and  C_1 
REMARK    2  A    between atoms: C_7  and  C_2 
REMARK    3  A    between atoms: O_17  and  C_6 
REMARK    4  A    between atoms: C_10  and  C_7 
REMARK    5  A    between atoms: O_18  and  C_8 
ROOT
ATOM      1  C   UNL d   1      57.374   0.557  31.218  0.00  0.00     0.042 C 
ENDROOT
BRANCH   1   2
ATOM      2  C   UNL d   1      57.073  -0.127  31.556  0.00  0.00     0.199 C 
ATOM      3  O   UNL d   1      57.349  -0.871  31.291  0.00  0.00    -0.286 OA
BRANCH   2   4
ATOM      4  C   UNL d   1      56.501  -0.098  32.154  0.00  0.00     0.078 A 
ATOM      5  C   UNL d   1      56.228  -0.814  32.491  0.00  0.00     0.202 A 
ATOM      6  C   UNL d   1      55.659  -0.799  33.087  0.00  0.00     0.084 A 
ATOM      7  O   UNL d   1      56.533  -1.543  32.221  0.00  0.00    -0.286 OA
ATOM      8  C   UNL d   1      55.365  -0.083  33.347  0.00  0.00     0.199 A 
ATOM      9  C   UNL d   1      55.638   0.633  33.010  0.00  0.00     0.042 A 
ATOM     10  O   UNL d   1      54.791  -0.063  33.948  0.00  0.00    -0.286 OA
ATOM     11  C   UNL d   1      56.198   0.615  32.423  0.00  0.00     0.010 A 
ENDBRANCH   2   4
ENDBRANCH   1   2
BRANCH   1  12
ATOM     12  C   UNL d   1      58.113   0.566  30.852  0.00  0.00     0.005 A 
ATOM     13  C   UNL d   1      58.167   0.469  30.045  0.00  0.00     0.026 A 
ATOM     14  C   UNL d   1      58.918   0.479  29.685  0.00  0.00     0.116 A 
ATOM     15  C   UNL d   1      59.595   0.583  30.128  0.00  0.00     0.116 A 
ATOM     16  C   UNL d   1      59.533   0.682  30.957  0.00  0.00     0.026 A 
ATOM     17  C   UNL d   1      58.784   0.673  31.326  0.00  0.00     0.002 A 
BRANCH  14  18
ATOM     18  O   UNL d   1      58.978   0.381  28.862  0.00  0.00    -0.326 OA
ATOM     19  C   UNL d   1      58.413  -0.065  28.456  0.00  0.00     0.181 C 
ENDBRANCH  14  18
BRANCH  15  20
ATOM     20  O   UNL d   1      60.345   0.595  29.784  0.00  0.00    -0.326 OA
ATOM     21  C   UNL d   1      61.021   0.590  30.246  0.00  0.00     0.181 C 
ENDBRANCH  15  20
ENDBRANCH   1  12
TORSDOF 5
ENDMDL
MODEL 2
REMARK VINA RESULT:      -4.4      1.214      1.465
REMARK  5 active torsions:
REMARK  status: ('A' for Active; 'I' for Inactive)
REMARK    1  A    between atoms: C_2  and  C_1 
REMARK    2  A    between atoms: C_7  and  C_2 
REMARK    3  A    between atoms: O_17  and  C_6 
REMARK    4  A    between atoms: C_10  and  C_7 
REMARK    5  A    between atoms: O_18  and  C_8 
ROOT
ATOM      1  C   UNL d   1      57.184  -0.048  31.147  0.00  0.00     0.042 C 
ENDROOT
BRANCH   1   2
ATOM      2  C   UNL d   1      57.388   0.171  31.910  0.00  0.00     0.199 C 
ATOM      3  O   UNL d   1      58.165   0.438  32.068  0.00  0.00    -0.286 OA
BRANCH   2   4
ATOM      4  C   UNL d   1      56.840   0.135  32.531  0.00  0.00     0.078 A 
ATOM      5  C   UNL d   1      57.072   0.393  33.293  0.00  0.00     0.202 A 
ATOM      6  C   UNL d   1      56.536   0.362  33.919  0.00  0.00     0.084 A 
ATOM      7  O   UNL d   1      57.845   0.682  33.417  0.00  0.00    -0.286 OA
ATOM      8  C   UNL d   1      55.781   0.078  33.792  0.00  0.00     0.199 A 
ATOM      9  C   UNL d   1      55.550  -0.180  33.030  0.00  0.00     0.042 A 
ATOM     10  O   UNL d   1      55.238   0.045  34.420  0.00  0.00    -0.286 OA
ATOM     11  C   UNL d   1      56.080  -0.148  32.415  0.00  0.00     0.010 A 
ENDBRANCH   2   4
ENDBRANCH   1   2
BRANCH   1  12
ATOM     12  C   UNL d   1      57.739  -0.044  30.537  0.00  0.00     0.005 A 
ATOM     13  C   UNL d   1      58.110  -0.737  30.322  0.00  0.00     0.026 A 
ATOM     14  C   UNL d   1      58.669  -0.723  29.705  0.00  0.00     0.116 A 
ATOM     15  C   UNL d   1      58.849  -0.028  29.316  0.00  0.00     0.116 A 
ATOM     16  C   UNL d   1      58.464   0.681  29.542  0.00  0.00     0.026 A 
ATOM     17  C   UNL d   1      57.902   0.676  30.160  0.00  0.00     0.002 A 
BRANCH  14  18
ATOM     18  O   UNL d   1      59.051  -1.426  29.482  0.00  0.00    -0.326 OA
ATOM     19  C   UNL d   1      58.604  -2.098  29.298  0.00  0.00     0.181 C 
ENDBRANCH  14  18
BRANCH  15  20
ATOM     20  O   UNL d   1      59.401   0.000  28.704  0.00  0.00    -0.326 OA
ATOM     21  C   UNL d   1      59.928   0.624  28.640  0.00  0.00     0.181 C 
ENDBRANCH  15  20
ENDBRANCH   1  12
TORSDOF 5
ENDMDL
MODEL 3
REMARK VINA RESULT:      -4.3      0.912      4.484
REMARK  5 active torsions:
REMARK  status: ('A' for Active; 'I' for Inactive)
REMARK    1  A    between atoms: C_2  and  C_1 
REMARK    2  A    between atoms: C_7  and  C_2 
REMARK    3  A    between atoms: O_17  and  C_6 
REMARK    4  A    between atoms: C_10  and  C_7 
REMARK    5  A    between atoms: O_18  and  C_8 
ROOT
ATOM      1  C   UNL d   1      57.677  -0.221  31.518  0.00  0.00     0.042 C 
ENDROOT
BRANCH   1   2
ATOM      2  C   UNL d   1      57.687   0.049  30.744  0.00  0.00     0.199 C 
ATOM      3  O   UNL d   1      56.977   0.322  30.395  0.00  0.00    -0.286 OA
BRANCH   2   4
ATOM      4  C   UNL d   1      58.385   0.059  30.298  0.00  0.00     0.078 A 
ATOM      5  C   UNL d   1      58.548  -0.580  29.783  0.00  0.00     0.202 A 
ATOM      6  C   UNL d   1      59.240  -0.581  29.335  0.00  0.00     0.084 A 
ATOM      7  O   UNL d   1      58.010  -1.215  29.725  0.00  0.00    -0.286 OA
ATOM      8  C   UNL d   1      59.763   0.043  29.395  0.00  0.00     0.199 A 
ATOM      9  C   UNL d   1      59.600   0.682  29.910  0.00  0.00     0.042 A 
ATOM     10  O   UNL d   1      60.461   0.045  28.944  0.00  0.00    -0.286 OA
ATOM     11  C   UNL d   1      58.918   0.680  30.351  0.00  0.00     0.010 A 
ENDBRANCH   2   4
ENDBRANCH   1   2
BRANCH   1  12
ATOM     12  C   UNL d   1      57.003  -0.150  31.988  0.00  0.00     0.005 A 
ATOM     13  C   UNL d   1      56.584  -0.817  32.197  0.00  0.00     0.026 A 
ATOM     14  C   UNL d   1      55.904  -0.736  32.672  0.00  0.00     0.116 A 
ATOM     15  C   UNL d   1      55.655  -0.002  32.928  0.00  0.00     0.116 A 
ATOM     16  C   UNL d   1      56.091   0.679  32.710  0.00  0.00     0.026 A 
ATOM     17  C   UNL d   1      56.773   0.607  32.234  0.00  0.00     0.002 A 
BRANCH  14  18
ATOM     18  O   UNL d   1      55.472  -1.412  32.888  0.00  0.00    -0.326 OA
ATOM     19  C   UNL d   1      55.834  -2.010  33.331  0.00  0.00     0.181 C 
ENDBRANCH  14  18
BRANCH  15  20
ATOM     20  O   UNL d   1      54.984   0.092  33.398  0.00  0.00    -0.326 OA
ATOM     21  C   UNL d   1      54.947   0.682  33.965  0.00  0.00     0.181 C 
ENDBRANCH  15  20
ENDBRANCH   1  12
TORSDOF 5
ENDMDL
MODEL 4
REMARK VINA RESULT:      -3.2      1.059      1.890
REMARK  5 active torsions:
REMARK  status: ('A' for Active; 'I' for Inactive)
REMARK    1  A    between atoms: C_2  and  C_1 
REMARK    2  A    between atoms: C_7  and  C_2 
REMARK    3  A    between atoms: O_17  and  C_6 
REMARK    4  A    between atoms: C_10  and  C_7 
REMARK    5  A    between atoms: O_18  and  C_8 
ROOT
ATOM      1  C   UNL d   1      56.797   0.681  32.196  0.00  0.00     0.042 C 
ENDROOT
BRANCH   1   2
ATOM      2  C   UNL d   1      56.578   0.074  32.702  0.00  0.00     0.199 C 
ATOM      3  O   UNL d   1      56.712  -0.720  32.474  0.00  0.00    -0.286 OA
BRANCH   2   4
ATOM      4  C   UNL d   1      56.228   0.229  33.437  0.00  0.00     0.078 A 
ATOM      5  C   UNL d   1      55.398   0.153  33.516  0.00  0.00     0.202 A 
ATOM      6  C   UNL d   1      55.037   0.304  34.241  0.00  0.00     0.084 A 
ATOM      7  O   UNL d   1      54.937  -0.076  32.858  0.00  0.00    -0.286 OA
ATOM      8  C   UNL d   1      55.493   0.528  34.881  0.00  0.00     0.199 A 
ATOM      9  C   UNL d   1      56.323   0.604  34.802  0.00  0.00     0.042 A 
ATOM     10  O   UNL d   1      55.133   0.681  35.614  0.00  0.00    -0.286 OA
ATOM     11  C   UNL d   1      56.675   0.454  34.086  0.00  0.00     0.010 A 
ENDBRANCH   2   4
ENDBRANCH   1   2
BRANCH   1  12
ATOM     12  C   UNL d   1      57.340   0.557  31.588  0.00  0.00     0.005 A 
ATOM     13  C   UNL d   1      58.133   0.682  31.722  0.00  0.00     0.026 A 
ATOM     14  C   UNL d   1      58.675   0.554  31.102  0.00  0.00     0.116 A 
ATOM     15  C   UNL d   1      58.421   0.307  30.367  0.00  0.00     0.116 A 
ATOM     16  C   UNL d   1      57.604   0.180  30.235  0.00  0.00     0.026 A 
ATOM     17  C   UNL d   1      57.054   0.306  30.852  0.00  0.00     0.002 A 
BRANCH  14  18
ATOM     18  O   UNL d   1      59.486   0.680  31.233  0.00  0.00    -0.326 OA
ATOM     19  C   UNL d   1      59.790   0.649  32.002  0.00  0.00     0.181 C 
ENDBRANCH  14  18
BRANCH  15  20
ATOM     20  O   UNL d   1      58.946   0.177  29.744  0.00  0.00    -0.326 OA
ATOM     21  C   UNL d   1      58.822   0.519  29.011  0.00  0.00     0.181 C 
ENDBRANCH  15  20
ENDBRANCH   1  12
TORSDOF 5
ENDMDL
