MODEL 1
REMARK VINA RESULT:      49.5      0.000      0.000
REMARK  4 active torsions:
REMARK  status: ('A' for Active; 'I' for Inactive)
REMARK    1  A    between atoms: N_10  and  C_3 
REMARK    2  A    between atoms: C_11  and  C_5 
REMARK    3  A    between atoms: C_13  and  N_10 
REMARK    4  A    between atoms: C_19  and  C_13 
ROOT
ATOM      1  N   UNL d   1     -52.402  25.496  33.375  0.00  0.00    -0.195 N 
ATOM      2  C   UNL d   1     -51.632  25.836  33.401  0.00  0.00     0.167 A 
ATOM      3  C   UNL d   1     -52.487  24.670  33.391  0.00  0.00     0.167 A 
ATOM      4  N   UNL d   1     -52.976  26.799  33.317  0.00  0.00    -0.163 NA
ATOM      5  C   UNL d   1     -51.548  26.642  33.385  0.00  0.00     0.055 A 
ATOM      6  N   UNL d   1     -50.974  25.338  33.443  0.00  0.00    -0.227 NA
ATOM      7  C   UNL d   1     -51.828  24.192  33.432  0.00  0.00     0.054 A 
ATOM      8  C   UNL d   1     -52.218  27.134  33.343  0.00  0.00     0.104 A 
ATOM      9  C   UNL d   1     -51.055  24.524  33.458  0.00  0.00     0.086 A 
ATOM     10  C   UNL d   1     -51.737  23.383  33.455  0.00  0.00     0.005 A 
ATOM     11  C   UNL d   1     -52.123  27.949  33.328  0.00  0.00     0.023 C 
ATOM     12  C   UNL d   1     -50.507  23.912  33.498  0.00  0.00     0.019 A 
ATOM     13  C   UNL d   1     -50.938  23.198  33.496  0.00  0.00     0.002 A 
ENDROOT
BRANCH   5  14
ATOM     14  C   UNL d   1     -50.794  26.975  33.411  0.00  0.00     0.004 A 
ATOM     15  C   UNL d   1     -50.127  26.500  33.307  0.00  0.00     0.000 A 
ATOM     16  C   UNL d   1     -49.375  26.828  33.332  0.00  0.00     0.000 A 
ATOM     17  C   UNL d   1     -49.285  27.641  33.463  0.00  0.00     0.000 A 
ATOM     18  C   UNL d   1     -49.938  28.116  33.566  0.00  0.00     0.000 A 
ATOM     19  C   UNL d   1     -50.700  27.780  33.540  0.00  0.00     0.000 A 
ENDBRANCH   5  14
BRANCH   3  20
ATOM     20  N   UNL d   1     -53.263  24.323  33.364  0.00  0.00    -0.225 NA
BRANCH  20  21
ATOM     21  C   UNL d   1     -54.096  24.383  33.482  0.00  0.00     0.101 C 
BRANCH  21  22
ATOM     22  C   UNL d   1     -54.544  23.712  33.730  0.00  0.00     0.019 C 
ATOM     23  C   UNL d   1     -55.300  23.555  33.380  0.00  0.00     0.002 C 
ATOM     24  C   UNL d   1     -54.232  23.197  34.331  0.00  0.00     0.002 C 
ENDBRANCH  21  22
ENDBRANCH  20  21
ENDBRANCH   3  20
TORSDOF 4
ENDMDL
MODEL 2
REMARK VINA RESULT:      49.8      1.099      3.973
REMARK  4 active torsions:
REMARK  status: ('A' for Active; 'I' for Inactive)
REMARK    1  A    between atoms: N_10  and  C_3 
REMARK    2  A    between atoms: C_11  and  C_5 
REMARK    3  A    between atoms: C_13  and  N_10 
REMARK    4  A    between atoms: C_19  and  C_13 
ROOT
ATOM      1  N   UNL d   1     -50.967  26.022  33.413  0.00  0.00    -0.195 N 
ATOM      2  C   UNL d   1     -51.407  25.304  33.396  0.00  0.00     0.167 A 
ATOM      3  C   UNL d   1     -50.137  25.996  33.395  0.00  0.00     0.167 A 
ATOM      4  N   UNL d   1     -52.182  26.765  33.464  0.00  0.00    -0.163 NA
ATOM      5  C   UNL d   1     -52.217  25.329  33.414  0.00  0.00     0.055 A 
ATOM      6  N   UNL d   1     -51.002  24.585  33.362  0.00  0.00    -0.227 NA
ATOM      7  C   UNL d   1     -49.752  25.278  33.361  0.00  0.00     0.054 A 
ATOM      8  C   UNL d   1     -52.615  26.058  33.448  0.00  0.00     0.104 A 
ATOM      9  C   UNL d   1     -50.185  24.556  33.345  0.00  0.00     0.086 A 
ATOM     10  C   UNL d   1     -48.963  25.079  33.338  0.00  0.00     0.005 A 
ATOM     11  C   UNL d   1     -53.435  26.074  33.465  0.00  0.00     0.023 C 
ATOM     12  C   UNL d   1     -49.651  23.931  33.311  0.00  0.00     0.019 A 
ATOM     13  C   UNL d   1     -48.886  24.262  33.307  0.00  0.00     0.002 A 
ENDROOT
BRANCH   5  14
ATOM     14  C   UNL d   1     -52.648  24.625  33.398  0.00  0.00     0.004 A 
ATOM     15  C   UNL d   1     -53.472  24.644  33.370  0.00  0.00     0.000 A 
ATOM     16  C   UNL d   1     -53.904  23.947  33.354  0.00  0.00     0.000 A 
ATOM     17  C   UNL d   1     -53.510  23.219  33.366  0.00  0.00     0.000 A 
ATOM     18  C   UNL d   1     -52.697  23.191  33.393  0.00  0.00     0.000 A 
ATOM     19  C   UNL d   1     -52.262  23.901  33.409  0.00  0.00     0.000 A 
ENDBRANCH   5  14
BRANCH   3  20
ATOM     20  N   UNL d   1     -49.690  26.718  33.411  0.00  0.00    -0.225 NA
BRANCH  20  21
ATOM     21  C   UNL d   1     -49.165  27.246  33.809  0.00  0.00     0.101 C 
BRANCH  21  22
ATOM     22  C   UNL d   1     -49.464  27.821  34.349  0.00  0.00     0.019 C 
ATOM     23  C   UNL d   1     -49.679  27.592  35.137  0.00  0.00     0.002 C 
ATOM     24  C   UNL d   1     -49.548  28.630  34.099  0.00  0.00     0.002 C 
ENDBRANCH  21  22
ENDBRANCH  20  21
ENDBRANCH   3  20
TORSDOF 4
ENDMDL
