MODEL 1
REMARK VINA RESULT:      -7.7      0.000      0.000
REMARK  3 active torsions:
REMARK  status: ('A' for Active; 'I' for Inactive)
REMARK    1  A    between atoms: N_2  and  C_1 
REMARK    2  A    between atoms: C_6  and  C_5 
REMARK       I    between atoms: N_13  and  C_6 
REMARK    3  A    between atoms: C_17  and  N_13 
ROOT
ATOM      1  C   UNL d   1     -47.963  13.455  22.763  0.00  0.00     0.285 C 
ATOM      2  N   UNL d   1     -47.584  13.271  23.512  0.00  0.00    -0.208 NA
ATOM      3  O   UNL d   1     -47.926  12.977  22.121  0.00  0.00    -0.265 OA
ENDROOT
BRANCH   2   4
ATOM      4  C   UNL d   1     -47.148  12.523  23.537  0.00  0.00     0.086 A 
ATOM      5  C   UNL d   1     -46.325  12.521  23.424  0.00  0.00     0.039 A 
ATOM      6  C   UNL d   1     -45.910  11.808  23.449  0.00  0.00     0.089 A 
ATOM      7  N   UNL d   1     -45.120  11.628  23.360  0.00  0.00    -0.238 NA
ATOM      8  C   UNL d   1     -46.319  11.097  23.586  0.00  0.00     0.049 A 
ATOM      9  C   UNL d   1     -45.028  10.829  23.439  0.00  0.00     0.111 A 
ATOM     10  C   UNL d   1     -44.315  10.413  23.389  0.00  0.00     0.028 C 
ATOM     11  S   UNL d   1     -45.745  10.503  23.575  0.00  0.00    -0.066 SA
ATOM     12  C   UNL d   1     -47.133  11.106  23.698  0.00  0.00     0.010 A 
ATOM     13  C   UNL d   1     -47.548  11.818  23.673  0.00  0.00     0.020 A 
ENDBRANCH   2   4
BRANCH   1  14
ATOM     14  C   UNL d   1     -48.393  14.143  22.657  0.00  0.00     0.089 A 
ATOM     15  S   UNL d   1     -49.169  14.227  22.872  0.00  0.00    -0.059 SA
ATOM     16  C   UNL d   1     -49.375  15.018  22.659  0.00  0.00     0.156 A 
ATOM     17  C   UNL d   1     -48.755  15.382  22.337  0.00  0.00     0.031 A 
ATOM     18  C   UNL d   1     -48.121  14.850  22.324  0.00  0.00     0.014 A 
BRANCH  16  19
ATOM     19  N   UNL d   1     -50.095  15.381  22.757  0.00  0.00    -0.107 N 
ATOM     20  O   UNL d   1     -50.303  15.922  23.355  0.00  0.00    -0.531 OA
ATOM     21  O   UNL d   1     -50.740  15.261  22.263  0.00  0.00    -0.531 OA
ENDBRANCH  16  19
ENDBRANCH   1  14
TORSDOF 3
ENDMDL
MODEL 2
REMARK VINA RESULT:      -5.6      8.469      8.925
REMARK  3 active torsions:
REMARK  status: ('A' for Active; 'I' for Inactive)
REMARK    1  A    between atoms: N_2  and  C_1 
REMARK    2  A    between atoms: C_6  and  C_5 
REMARK       I    between atoms: N_13  and  C_6 
REMARK    3  A    between atoms: C_17  and  N_13 
ROOT
ATOM      1  C   UNL d   1     -39.789  14.910  19.205  0.00  0.00     0.285 C 
ATOM      2  N   UNL d   1     -40.310  14.823  19.882  0.00  0.00    -0.208 NA
ATOM      3  O   UNL d   1     -38.993  14.979  19.268  0.00  0.00    -0.265 OA
ENDROOT
BRANCH   2   4
ATOM      4  C   UNL d   1     -39.922  14.814  20.656  0.00  0.00     0.086 A 
ATOM      5  C   UNL d   1     -39.732  14.088  21.013  0.00  0.00     0.039 A 
ATOM      6  C   UNL d   1     -39.362  14.079  21.750  0.00  0.00     0.089 A 
ATOM      7  N   UNL d   1     -39.112  13.471  22.233  0.00  0.00    -0.238 NA
ATOM      8  C   UNL d   1     -39.181  14.796  22.130  0.00  0.00     0.049 A 
ATOM      9  C   UNL d   1     -38.782  13.790  22.898  0.00  0.00     0.111 A 
ATOM     10  C   UNL d   1     -38.458  13.369  23.532  0.00  0.00     0.028 C 
ATOM     11  S   UNL d   1     -38.820  14.586  22.844  0.00  0.00    -0.066 SA
ATOM     12  C   UNL d   1     -39.371  15.510  21.772  0.00  0.00     0.010 A 
ATOM     13  C   UNL d   1     -39.741  15.519  21.035  0.00  0.00     0.020 A 
ENDBRANCH   2   4
BRANCH   1  14
ATOM     14  C   UNL d   1     -40.077  14.928  18.440  0.00  0.00     0.089 A 
ATOM     15  S   UNL d   1     -40.584  15.495  18.162  0.00  0.00    -0.059 SA
ATOM     16  C   UNL d   1     -40.727  15.290  17.355  0.00  0.00     0.156 A 
ATOM     17  C   UNL d   1     -40.328  14.639  17.167  0.00  0.00     0.031 A 
ATOM     18  C   UNL d   1     -39.908  14.389  17.835  0.00  0.00     0.014 A 
BRANCH  16  19
ATOM     19  N   UNL d   1     -41.201  15.684  16.826  0.00  0.00    -0.107 N 
ATOM     20  O   UNL d   1     -41.001  15.912  16.051  0.00  0.00    -0.531 OA
ATOM     21  O   UNL d   1     -41.971  15.920  16.988  0.00  0.00    -0.531 OA
ENDBRANCH  16  19
ENDBRANCH   1  14
TORSDOF 3
ENDMDL
MODEL 3
REMARK VINA RESULT:      -5.2      8.630      9.844
REMARK  3 active torsions:
REMARK  status: ('A' for Active; 'I' for Inactive)
REMARK    1  A    between atoms: N_2  and  C_1 
REMARK    2  A    between atoms: C_6  and  C_5 
REMARK       I    between atoms: N_13  and  C_6 
REMARK    3  A    between atoms: C_17  and  N_13 
ROOT
ATOM      1  C   UNL d   1     -39.548  14.317  18.625  0.00  0.00     0.285 C 
ATOM      2  N   UNL d   1     -39.244  14.858  19.219  0.00  0.00    -0.208 NA
ATOM      3  O   UNL d   1     -39.875  13.607  18.802  0.00  0.00    -0.265 OA
ENDROOT
BRANCH   2   4
ATOM      4  C   UNL d   1     -39.312  14.590  20.040  0.00  0.00     0.086 A 
ATOM      5  C   UNL d   1     -38.662  14.226  20.409  0.00  0.00     0.039 A 
ATOM      6  C   UNL d   1     -38.726  13.970  21.191  0.00  0.00     0.089 A 
ATOM      7  N   UNL d   1     -38.201  13.603  21.695  0.00  0.00    -0.238 NA
ATOM      8  C   UNL d   1     -39.440  14.079  21.604  0.00  0.00     0.049 A 
ATOM      9  C   UNL d   1     -38.567  13.481  22.405  0.00  0.00     0.111 A 
ATOM     10  C   UNL d   1     -38.233  13.124  23.071  0.00  0.00     0.028 C 
ATOM     11  S   UNL d   1     -39.313  13.765  22.358  0.00  0.00    -0.066 SA
ATOM     12  C   UNL d   1     -40.078  14.440  21.233  0.00  0.00     0.010 A 
ATOM     13  C   UNL d   1     -40.014  14.695  20.451  0.00  0.00     0.020 A 
ENDBRANCH   2   4
BRANCH   1  14
ATOM     14  C   UNL d   1     -39.521  14.496  17.828  0.00  0.00     0.089 A 
ATOM     15  S   UNL d   1     -38.866  14.393  17.364  0.00  0.00    -0.059 SA
ATOM     16  C   UNL d   1     -39.096  14.648  16.592  0.00  0.00     0.156 A 
ATOM     17  C   UNL d   1     -39.845  14.889  16.599  0.00  0.00     0.031 A 
ATOM     18  C   UNL d   1     -40.138  14.803  17.369  0.00  0.00     0.014 A 
BRANCH  16  19
ATOM     19  N   UNL d   1     -38.638  14.658  15.921  0.00  0.00    -0.107 N 
ATOM     20  O   UNL d   1     -38.274  15.321  15.574  0.00  0.00    -0.531 OA
ATOM     21  O   UNL d   1     -38.464  13.989  15.476  0.00  0.00    -0.531 OA
ENDBRANCH  16  19
ENDBRANCH   1  14
TORSDOF 3
ENDMDL
MODEL 4
REMARK VINA RESULT:      -5.0      9.108     10.299
REMARK  3 active torsions:
REMARK  status: ('A' for Active; 'I' for Inactive)
REMARK    1  A    between atoms: N_2  and  C_1 
REMARK    2  A    between atoms: C_6  and  C_5 
REMARK       I    between atoms: N_13  and  C_6 
REMARK    3  A    between atoms: C_17  and  N_13 
ROOT
ATOM      1  C   UNL d   1     -39.766  15.214  18.463  0.00  0.00     0.285 C 
ATOM      2  N   UNL d   1     -38.952  14.968  18.343  0.00  0.00    -0.208 NA
ATOM      3  O   UNL d   1     -40.253  15.433  17.865  0.00  0.00    -0.265 OA
ENDROOT
BRANCH   2   4
ATOM      4  C   UNL d   1     -38.678  14.970  17.521  0.00  0.00     0.086 A 
ATOM      5  C   UNL d   1     -38.695  14.265  17.080  0.00  0.00     0.039 A 
ATOM      6  C   UNL d   1     -38.434  14.267  16.298  0.00  0.00     0.089 A 
ATOM      7  N   UNL d   1     -38.383  13.680  15.734  0.00  0.00    -0.238 NA
ATOM      8  C   UNL d   1     -38.155  14.972  15.957  0.00  0.00     0.049 A 
ATOM      9  C   UNL d   1     -38.082  14.000  15.056  0.00  0.00     0.111 A 
ATOM     10  C   UNL d   1     -37.939  13.598  14.348  0.00  0.00     0.028 C 
ATOM     11  S   UNL d   1     -37.942  14.777  15.182  0.00  0.00    -0.066 SA
ATOM     12  C   UNL d   1     -38.140  15.665  16.398  0.00  0.00     0.010 A 
ATOM     13  C   UNL d   1     -38.401  15.663  17.181  0.00  0.00     0.020 A 
ENDBRANCH   2   4
BRANCH   1  14
ATOM     14  C   UNL d   1     -40.101  15.240  19.209  0.00  0.00     0.089 A 
ATOM     15  S   UNL d   1     -40.321  14.583  19.628  0.00  0.00    -0.059 SA
ATOM     16  C   UNL d   1     -40.635  14.877  20.355  0.00  0.00     0.156 A 
ATOM     17  C   UNL d   1     -40.604  15.663  20.365  0.00  0.00     0.031 A 
ATOM     18  C   UNL d   1     -40.271  15.918  19.652  0.00  0.00     0.014 A 
BRANCH  16  19
ATOM     19  N   UNL d   1     -40.933  14.441  20.972  0.00  0.00    -0.107 N 
ATOM     20  O   UNL d   1     -41.736  14.307  21.147  0.00  0.00    -0.531 OA
ATOM     21  O   UNL d   1     -40.467  14.058  21.530  0.00  0.00    -0.531 OA
ENDBRANCH  16  19
ENDBRANCH   1  14
TORSDOF 3
ENDMDL
