MODEL 1
REMARK VINA RESULT:      31.3      0.000      0.000
REMARK  3 active torsions:
REMARK  status: ('A' for Active; 'I' for Inactive)
REMARK    1  A    between atoms: N_3  and  S_1 
REMARK    2  A    between atoms: C_10  and  S_1 
REMARK    3  A    between atoms: C_2  and  N_3 
ROOT
ATOM      1  N   UNL d   1     -51.042  25.496  33.519  0.00  0.00     0.034 NA
ENDROOT
BRANCH   1   2
ATOM      2  C   UNL d   1     -51.721  25.032  33.475  0.00  0.00     0.760 A 
ATOM      3  N   UNL d   1     -52.505  25.292  33.482  0.00  0.00    -0.057 NA
ATOM      4  C   UNL d   1     -52.997  24.657  33.428  0.00  0.00     0.118 A 
ATOM      5  C   UNL d   1     -53.819  24.594  33.411  0.00  0.00     0.021 A 
ATOM      6  C   UNL d   1     -52.530  23.979  33.384  0.00  0.00     0.118 A 
ATOM      7  C   UNL d   1     -54.152  23.867  33.351  0.00  0.00     0.002 A 
ATOM      8  C   UNL d   1     -53.685  23.188  33.308  0.00  0.00     0.002 A 
ATOM      9  C   UNL d   1     -52.885  23.237  33.323  0.00  0.00     0.021 A 
ATOM     10  N   UNL d   1     -51.757  24.205  33.412  0.00  0.00    -0.057 NA
ENDBRANCH   1   2
BRANCH   1  11
ATOM     11  S   UNL d   1     -51.107  26.315  33.607  0.00  0.00     0.300 S 
ATOM     12  O   UNL d   1     -51.174  27.136  33.695  0.00  0.00    -0.198 OA
ATOM     13  O   UNL d   1     -51.928  26.255  33.553  0.00  0.00    -0.198 OA
BRANCH  11  14
ATOM     14  C   UNL d   1     -50.285  26.374  33.661  0.00  0.00     0.106 A 
ATOM     15  C   UNL d   1     -49.943  27.025  34.034  0.00  0.00     0.013 A 
ATOM     16  C   UNL d   1     -49.119  27.085  34.089  0.00  0.00     0.001 A 
ATOM     17  C   UNL d   1     -48.641  26.493  33.770  0.00  0.00     0.000 A 
ATOM     18  C   UNL d   1     -49.003  25.862  33.408  0.00  0.00     0.001 A 
ATOM     19  C   UNL d   1     -49.807  25.782  33.342  0.00  0.00     0.013 A 
ENDBRANCH  11  14
ENDBRANCH   1  11
TORSDOF 3
ENDMDL
