MODEL 1
REMARK VINA RESULT:      -3.0      0.000      0.000
REMARK  5 active torsions:
REMARK  status: ('A' for Active; 'I' for Inactive)
REMARK    1  A    between atoms: N_2  and  S_1 
REMARK    2  A    between atoms: C_8  and  S_1 
REMARK    3  A    between atoms: S_7  and  C_3 
REMARK    4  A    between atoms: C_11  and  S_7 
REMARK    5  A    between atoms: C_12  and  C_11 
ROOT
ATOM      1  N   UNL d   1      30.338  16.563 -24.779  0.00  0.00    -0.208 N 
ATOM      2  C   UNL d   1      31.143  16.694 -24.606  0.00  0.00     0.189 A 
ATOM      3  N   UNL d   1      31.565  16.007 -24.803  0.00  0.00    -0.219 NA
ATOM      4  C   UNL d   1      30.265  15.789 -25.084  0.00  0.00     0.114 A 
ATOM      5  C   UNL d   1      31.021  15.453 -25.097  0.00  0.00     0.121 A 
ENDROOT
BRANCH   1   6
ATOM      6  S   UNL d   1      29.721  17.108 -24.667  0.00  0.00     0.273 S 
ATOM      7  O   UNL d   1      30.168  17.645 -25.097  0.00  0.00    -0.200 OA
ATOM      8  O   UNL d   1      29.264  17.799 -24.690  0.00  0.00    -0.200 OA
BRANCH   6   9
ATOM      9  C   UNL d   1      29.258  16.579 -24.231  0.00  0.00     0.104 A 
ATOM     10  C   UNL d   1      29.381  16.507 -23.422  0.00  0.00     0.013 A 
ATOM     11  C   UNL d   1      28.919  15.980 -22.988  0.00  0.00     0.001 A 
ATOM     12  C   UNL d   1      28.339  15.531 -23.366  0.00  0.00     0.000 A 
ATOM     13  C   UNL d   1      28.221  15.606 -24.175  0.00  0.00     0.001 A 
ATOM     14  C   UNL d   1      28.687  16.137 -24.609  0.00  0.00     0.013 A 
ENDBRANCH   6   9
ENDBRANCH   1   6
BRANCH   2  15
ATOM     15  S   UNL d   1      31.466  17.394 -24.291  0.00  0.00    -0.049 SA
BRANCH  15  16
ATOM     16  C   UNL d   1      32.286  17.467 -24.205  0.00  0.00     0.038 C 
BRANCH  16  17
ATOM     17  C   UNL d   1      32.596  18.074 -23.740  0.00  0.00     0.007 A 
ATOM     18  C   UNL d   1      32.719  18.825 -24.058  0.00  0.00     0.001 A 
ATOM     19  C   UNL d   1      33.033  19.429 -23.575  0.00  0.00     0.000 A 
ATOM     20  C   UNL d   1      33.220  19.274 -22.783  0.00  0.00     0.000 A 
ATOM     21  C   UNL d   1      33.100  18.527 -22.464  0.00  0.00     0.000 A 
ATOM     22  C   UNL d   1      32.790  17.928 -22.934  0.00  0.00     0.001 A 
ENDBRANCH  16  17
ENDBRANCH  15  16
ENDBRANCH   2  15
TORSDOF 5
ENDMDL
MODEL 2
REMARK VINA RESULT:      -0.6      1.289      3.917
REMARK  5 active torsions:
REMARK  status: ('A' for Active; 'I' for Inactive)
REMARK    1  A    between atoms: N_2  and  S_1 
REMARK    2  A    between atoms: C_8  and  S_1 
REMARK    3  A    between atoms: S_7  and  C_3 
REMARK    4  A    between atoms: C_11  and  S_7 
REMARK    5  A    between atoms: C_12  and  C_11 
ROOT
ATOM      1  N   UNL d   1      32.441  16.631 -23.916  0.00  0.00    -0.208 N 
ATOM      2  C   UNL d   1      31.760  16.214 -23.676  0.00  0.00     0.189 A 
ATOM      3  N   UNL d   1      31.998  15.597 -23.175  0.00  0.00    -0.219 NA
ATOM      4  C   UNL d   1      33.102  16.268 -23.559  0.00  0.00     0.114 A 
ATOM      5  C   UNL d   1      32.825  15.634 -23.106  0.00  0.00     0.121 A 
ENDROOT
BRANCH   1   6
ATOM      6  S   UNL d   1      32.455  17.291 -24.420  0.00  0.00     0.273 S 
ATOM      7  O   UNL d   1      32.310  16.774 -25.040  0.00  0.00    -0.200 OA
ATOM      8  O   UNL d   1      32.423  17.769 -25.097  0.00  0.00    -0.200 OA
BRANCH   6   9
ATOM      9  C   UNL d   1      32.601  17.828 -23.807  0.00  0.00     0.104 A 
ATOM     10  C   UNL d   1      32.249  18.570 -23.827  0.00  0.00     0.013 A 
ATOM     11  C   UNL d   1      32.395  19.103 -23.216  0.00  0.00     0.001 A 
ATOM     12  C   UNL d   1      32.891  18.890 -22.592  0.00  0.00     0.000 A 
ATOM     13  C   UNL d   1      33.240  18.147 -22.576  0.00  0.00     0.001 A 
ATOM     14  C   UNL d   1      33.091  17.612 -23.192  0.00  0.00     0.013 A 
ENDBRANCH   6   9
ENDBRANCH   1   6
BRANCH   2  15
ATOM     15  S   UNL d   1      30.977  16.388 -23.902  0.00  0.00    -0.049 SA
BRANCH  15  16
ATOM     16  C   UNL d   1      30.376  15.836 -23.761  0.00  0.00     0.038 C 
BRANCH  16  17
ATOM     17  C   UNL d   1      29.590  16.087 -23.735  0.00  0.00     0.007 A 
ATOM     18  C   UNL d   1      29.370  16.816 -24.050  0.00  0.00     0.001 A 
ATOM     19  C   UNL d   1      28.571  17.055 -24.016  0.00  0.00     0.000 A 
ATOM     20  C   UNL d   1      28.004  16.563 -23.668  0.00  0.00     0.000 A 
ATOM     21  C   UNL d   1      28.219  15.835 -23.353  0.00  0.00     0.000 A 
ATOM     22  C   UNL d   1      29.005  15.594 -23.383  0.00  0.00     0.001 A 
ENDBRANCH  16  17
ENDBRANCH  15  16
ENDBRANCH   2  15
TORSDOF 5
ENDMDL
MODEL 3
REMARK VINA RESULT:      -0.1      3.703      5.867
REMARK  5 active torsions:
REMARK  status: ('A' for Active; 'I' for Inactive)
REMARK    1  A    between atoms: N_2  and  S_1 
REMARK    2  A    between atoms: C_8  and  S_1 
REMARK    3  A    between atoms: S_7  and  C_3 
REMARK    4  A    between atoms: C_11  and  S_7 
REMARK    5  A    between atoms: C_12  and  C_11 
ROOT
ATOM      1  N   UNL d   1      33.065  21.404 -21.953  0.00  0.00    -0.208 N 
ATOM      2  C   UNL d   1      33.047  20.943 -22.648  0.00  0.00     0.189 A 
ATOM      3  N   UNL d   1      33.155  21.448 -23.297  0.00  0.00    -0.219 NA
ATOM      4  C   UNL d   1      33.186  22.199 -22.177  0.00  0.00     0.114 A 
ATOM      5  C   UNL d   1      33.241  22.220 -23.002  0.00  0.00     0.121 A 
ENDROOT
BRANCH   1   6
ATOM      6  S   UNL d   1      32.978  21.118 -21.178  0.00  0.00     0.273 S 
ATOM      7  O   UNL d   1      33.241  20.392 -21.455  0.00  0.00    -0.200 OA
ATOM      8  O   UNL d   1      32.975  20.620 -20.515  0.00  0.00    -0.200 OA
BRANCH   6   9
ATOM      9  C   UNL d   1      32.712  21.843 -20.881  0.00  0.00     0.104 A 
ATOM     10  C   UNL d   1      31.922  22.050 -20.970  0.00  0.00     0.013 A 
ATOM     11  C   UNL d   1      31.658  22.772 -20.674  0.00  0.00     0.001 A 
ATOM     12  C   UNL d   1      32.184  23.280 -20.292  0.00  0.00     0.000 A 
ATOM     13  C   UNL d   1      32.972  23.069 -20.205  0.00  0.00     0.001 A 
ATOM     14  C   UNL d   1      33.236  22.341 -20.504  0.00  0.00     0.013 A 
ENDBRANCH   6   9
ENDBRANCH   1   6
BRANCH   2  15
ATOM     15  S   UNL d   1      32.938  20.117 -22.682  0.00  0.00    -0.049 SA
BRANCH  15  16
ATOM     16  C   UNL d   1      33.022  19.721 -23.404  0.00  0.00     0.038 C 
BRANCH  16  17
ATOM     17  C   UNL d   1      32.800  18.928 -23.464  0.00  0.00     0.007 A 
ATOM     18  C   UNL d   1      32.289  18.679 -24.061  0.00  0.00     0.001 A 
ATOM     19  C   UNL d   1      32.074  17.874 -24.108  0.00  0.00     0.000 A 
ATOM     20  C   UNL d   1      32.370  17.331 -23.559  0.00  0.00     0.000 A 
ATOM     21  C   UNL d   1      32.879  17.575 -22.962  0.00  0.00     0.000 A 
ATOM     22  C   UNL d   1      33.096  18.367 -22.910  0.00  0.00     0.001 A 
ENDBRANCH  16  17
ENDBRANCH  15  16
ENDBRANCH   2  15
TORSDOF 5
ENDMDL
