MODEL 1
REMARK VINA RESULT:      -2.9      0.000      0.000
REMARK  2 active torsions:
REMARK  status: ('A' for Active; 'I' for Inactive)
REMARK    1  A    between atoms: C_6  and  C_1 
REMARK    2  A    between atoms: C_7  and  C_5 
ROOT
ATOM      1  C   UNL d   1      32.985  19.337 -22.450  0.00  0.00     0.169 A 
ATOM      2  C   UNL d   1      32.793  20.152 -22.508  0.00  0.00     0.048 A 
ATOM      3  N   UNL d   1      33.212  19.918 -21.249  0.00  0.00    -0.148 NA
ATOM      4  N   UNL d   1      33.238  19.202 -21.682  0.00  0.00    -0.142 NA
ATOM      5  C   UNL d   1      32.931  20.505 -21.779  0.00  0.00     0.105 A 
ENDROOT
BRANCH   5   6
ATOM      6  C   UNL d   1      32.817  21.298 -21.590  0.00  0.00     0.019 A 
ATOM      7  C   UNL d   1      32.299  21.502 -20.981  0.00  0.00     0.002 A 
ATOM      8  C   UNL d   1      32.181  22.293 -20.788  0.00  0.00     0.011 A 
ATOM      9  C   UNL d   1      32.570  22.898 -21.191  0.00  0.00     0.058 A 
ATOM     10  C   UNL d   1      33.085  22.687 -21.798  0.00  0.00     0.011 A 
ATOM     11 CL   UNL d   1      32.453  23.672 -21.001  0.00  0.00    -0.082 Cl
ATOM     12  C   UNL d   1      33.213  21.896 -22.002  0.00  0.00     0.002 A 
ENDBRANCH   5   6
BRANCH   1  13
ATOM     13  C   UNL d   1      32.925  18.776 -23.066  0.00  0.00     0.231 C 
ATOM     14  O   UNL d   1      32.571  18.034 -22.938  0.00  0.00    -0.643 OA
ATOM     15  O   UNL d   1      33.231  18.979 -23.816  0.00  0.00    -0.643 OA
ENDBRANCH   1  13
TORSDOF 2
ENDMDL
MODEL 2
REMARK VINA RESULT:      -2.8      2.489      3.631
REMARK  2 active torsions:
REMARK  status: ('A' for Active; 'I' for Inactive)
REMARK    1  A    between atoms: C_6  and  C_1 
REMARK    2  A    between atoms: C_7  and  C_5 
ROOT
ATOM      1  C   UNL d   1      32.716  21.191 -20.973  0.00  0.00     0.169 A 
ATOM      2  C   UNL d   1      32.665  20.934 -21.771  0.00  0.00     0.048 A 
ATOM      3  N   UNL d   1      33.239  19.945 -21.059  0.00  0.00    -0.148 NA
ATOM      4  N   UNL d   1      33.065  20.584 -20.547  0.00  0.00    -0.142 NA
ATOM      5  C   UNL d   1      32.982  20.179 -21.824  0.00  0.00     0.105 A 
ENDROOT
BRANCH   5   6
ATOM      6  C   UNL d   1      33.044  19.720 -22.504  0.00  0.00     0.019 A 
ATOM      7  C   UNL d   1      33.178  20.085 -23.232  0.00  0.00     0.002 A 
ATOM      8  C   UNL d   1      33.240  19.631 -23.916  0.00  0.00     0.011 A 
ATOM      9  C   UNL d   1      33.171  18.809 -23.896  0.00  0.00     0.058 A 
ATOM     10  C   UNL d   1      33.037  18.452 -23.166  0.00  0.00     0.011 A 
ATOM     11 CL   UNL d   1      33.232  18.367 -24.566  0.00  0.00    -0.082 Cl
ATOM     12  C   UNL d   1      32.972  18.896 -22.471  0.00  0.00     0.002 A 
ENDBRANCH   5   6
BRANCH   1  13
ATOM     13  C   UNL d   1      32.456  21.927 -20.679  0.00  0.00     0.231 C 
ATOM     14  O   UNL d   1      31.743  22.267 -20.941  0.00  0.00    -0.643 OA
ATOM     15  O   UNL d   1      32.931  22.316 -20.114  0.00  0.00    -0.643 OA
ENDBRANCH   1  13
TORSDOF 2
ENDMDL
MODEL 3
REMARK VINA RESULT:      -2.8      2.830      3.789
REMARK  2 active torsions:
REMARK  status: ('A' for Active; 'I' for Inactive)
REMARK    1  A    between atoms: C_6  and  C_1 
REMARK    2  A    between atoms: C_7  and  C_5 
ROOT
ATOM      1  C   UNL d   1      32.633  22.184 -20.356  0.00  0.00     0.169 A 
ATOM      2  C   UNL d   1      33.058  21.589 -20.768  0.00  0.00     0.048 A 
ATOM      3  N   UNL d   1      31.744  21.352 -20.947  0.00  0.00    -0.148 NA
ATOM      4  N   UNL d   1      31.835  22.033 -20.469  0.00  0.00    -0.142 NA
ATOM      5  C   UNL d   1      32.519  21.084 -21.127  0.00  0.00     0.105 A 
ENDROOT
BRANCH   5   6
ATOM      6  C   UNL d   1      32.697  20.425 -21.587  0.00  0.00     0.019 A 
ATOM      7  C   UNL d   1      32.501  20.421 -22.389  0.00  0.00     0.002 A 
ATOM      8  C   UNL d   1      32.677  19.764 -22.852  0.00  0.00     0.011 A 
ATOM      9  C   UNL d   1      33.049  19.100 -22.536  0.00  0.00     0.058 A 
ATOM     10  C   UNL d   1      33.241  19.111 -21.736  0.00  0.00     0.011 A 
ATOM     11 CL   UNL d   1      33.220  18.459 -22.992  0.00  0.00    -0.082 Cl
ATOM     12  C   UNL d   1      33.070  19.764 -21.258  0.00  0.00     0.002 A 
ENDBRANCH   5   6
BRANCH   1  13
ATOM     13  C   UNL d   1      32.969  22.808 -19.916  0.00  0.00     0.231 C 
ATOM     14  O   UNL d   1      33.219  23.510 -20.286  0.00  0.00    -0.643 OA
ATOM     15  O   UNL d   1      33.050  22.710 -19.090  0.00  0.00    -0.643 OA
ENDBRANCH   1  13
TORSDOF 2
ENDMDL
MODEL 4
REMARK VINA RESULT:      -2.8      4.716      5.500
REMARK  2 active torsions:
REMARK  status: ('A' for Active; 'I' for Inactive)
REMARK    1  A    between atoms: C_6  and  C_1 
REMARK    2  A    between atoms: C_7  and  C_5 
ROOT
ATOM      1  C   UNL d   1      29.269  16.134 -23.735  0.00  0.00     0.169 A 
ATOM      2  C   UNL d   1      29.728  16.788 -23.996  0.00  0.00     0.048 A 
ATOM      3  N   UNL d   1      30.579  15.802 -23.650  0.00  0.00    -0.148 NA
ATOM      4  N   UNL d   1      29.793  15.539 -23.527  0.00  0.00    -0.142 NA
ATOM      5  C   UNL d   1      30.522  16.586 -23.944  0.00  0.00     0.105 A 
ENDROOT
BRANCH   5   6
ATOM      6  C   UNL d   1      31.162  17.064 -24.144  0.00  0.00     0.019 A 
ATOM      7  C   UNL d   1      31.190  17.418 -24.889  0.00  0.00     0.002 A 
ATOM      8  C   UNL d   1      31.828  17.897 -25.094  0.00  0.00     0.011 A 
ATOM      9  C   UNL d   1      32.449  18.036 -24.570  0.00  0.00     0.058 A 
ATOM     10  C   UNL d   1      32.414  17.679 -23.829  0.00  0.00     0.011 A 
ATOM     11 CL   UNL d   1      33.071  18.504 -24.772  0.00  0.00    -0.082 Cl
ATOM     12  C   UNL d   1      31.779  17.196 -23.610  0.00  0.00     0.002 A 
ENDBRANCH   5   6
BRANCH   1  13
ATOM     13  C   UNL d   1      28.436  16.106 -23.699  0.00  0.00     0.231 C 
ATOM     14  O   UNL d   1      28.001  16.710 -23.328  0.00  0.00    -0.643 OA
ATOM     15  O   UNL d   1      28.048  15.453 -24.045  0.00  0.00    -0.643 OA
ENDBRANCH   1  13
TORSDOF 2
ENDMDL
MODEL 5
REMARK VINA RESULT:      -2.8      4.330      5.751
REMARK  2 active torsions:
REMARK  status: ('A' for Active; 'I' for Inactive)
REMARK    1  A    between atoms: C_6  and  C_1 
REMARK    2  A    between atoms: C_7  and  C_5 
ROOT
ATOM      1  C   UNL d   1      32.152  17.451 -23.923  0.00  0.00     0.169 A 
ATOM      2  C   UNL d   1      31.349  17.382 -23.688  0.00  0.00     0.048 A 
ATOM      3  N   UNL d   1      31.663  16.282 -24.399  0.00  0.00    -0.148 NA
ATOM      4  N   UNL d   1      32.335  16.779 -24.355  0.00  0.00    -0.142 NA
ATOM      5  C   UNL d   1      31.052  16.673 -23.976  0.00  0.00     0.105 A 
ENDROOT
BRANCH   5   6
ATOM      6  C   UNL d   1      30.288  16.385 -23.874  0.00  0.00     0.019 A 
ATOM      7  C   UNL d   1      29.676  16.674 -24.347  0.00  0.00     0.002 A 
ATOM      8  C   UNL d   1      28.910  16.389 -24.248  0.00  0.00     0.011 A 
ATOM      9  C   UNL d   1      28.732  15.815 -23.684  0.00  0.00     0.058 A 
ATOM     10  C   UNL d   1      29.347  15.531 -23.217  0.00  0.00     0.011 A 
ATOM     11 CL   UNL d   1      27.982  15.538 -23.590  0.00  0.00    -0.082 Cl
ATOM     12  C   UNL d   1      30.122  15.808 -23.304  0.00  0.00     0.002 A 
ENDBRANCH   5   6
BRANCH   1  13
ATOM     13  C   UNL d   1      32.660  18.089 -23.745  0.00  0.00     0.231 C 
ATOM     14  O   UNL d   1      32.934  18.218 -22.971  0.00  0.00    -0.643 OA
ATOM     15  O   UNL d   1      32.887  18.598 -24.368  0.00  0.00    -0.643 OA
ENDBRANCH   1  13
TORSDOF 2
ENDMDL
MODEL 6
REMARK VINA RESULT:      -2.5      3.392      5.137
REMARK  2 active torsions:
REMARK  status: ('A' for Active; 'I' for Inactive)
REMARK    1  A    between atoms: C_6  and  C_1 
REMARK    2  A    between atoms: C_7  and  C_5 
ROOT
ATOM      1  C   UNL d   1      32.819  18.517 -23.033  0.00  0.00     0.169 A 
ATOM      2  C   UNL d   1      32.173  18.251 -23.498  0.00  0.00     0.048 A 
ATOM      3  N   UNL d   1      32.838  17.163 -23.062  0.00  0.00    -0.148 NA
ATOM      4  N   UNL d   1      33.219  17.850 -22.771  0.00  0.00    -0.142 NA
ATOM      5  C   UNL d   1      32.184  17.430 -23.516  0.00  0.00     0.105 A 
ENDROOT
BRANCH   5   6
ATOM      6  C   UNL d   1      31.651  16.942 -23.909  0.00  0.00     0.019 A 
ATOM      7  C   UNL d   1      31.386  16.249 -23.546  0.00  0.00     0.002 A 
ATOM      8  C   UNL d   1      30.852  15.758 -23.935  0.00  0.00     0.011 A 
ATOM      9  C   UNL d   1      30.569  15.939 -24.688  0.00  0.00     0.058 A 
ATOM     10  C   UNL d   1      30.837  16.631 -25.044  0.00  0.00     0.011 A 
ATOM     11 CL   UNL d   1      30.047  15.457 -25.066  0.00  0.00    -0.082 Cl
ATOM     12  C   UNL d   1      31.373  17.134 -24.665  0.00  0.00     0.002 A 
ENDBRANCH   5   6
BRANCH   1  13
ATOM     13  C   UNL d   1      33.011  19.313 -22.872  0.00  0.00     0.231 C 
ATOM     14  O   UNL d   1      33.240  19.831 -23.481  0.00  0.00    -0.643 OA
ATOM     15  O   UNL d   1      32.966  19.578 -22.082  0.00  0.00    -0.643 OA
ENDBRANCH   1  13
TORSDOF 2
ENDMDL
MODEL 7
REMARK VINA RESULT:      -2.5      3.745      4.495
REMARK  2 active torsions:
REMARK  status: ('A' for Active; 'I' for Inactive)
REMARK    1  A    between atoms: C_6  and  C_1 
REMARK    2  A    between atoms: C_7  and  C_5 
ROOT
ATOM      1  C   UNL d   1      32.788  23.033 -18.111  0.00  0.00     0.169 A 
ATOM      2  C   UNL d   1      32.569  23.372 -18.847  0.00  0.00     0.048 A 
ATOM      3  N   UNL d   1      33.241  22.233 -19.105  0.00  0.00    -0.148 NA
ATOM      4  N   UNL d   1      33.196  22.342 -18.275  0.00  0.00    -0.142 NA
ATOM      5  C   UNL d   1      32.844  22.887 -19.450  0.00  0.00     0.105 A 
ENDROOT
BRANCH   5   6
ATOM      6  C   UNL d   1      32.751  23.011 -20.258  0.00  0.00     0.019 A 
ATOM      7  C   UNL d   1      32.206  22.558 -20.681  0.00  0.00     0.002 A 
ATOM      8  C   UNL d   1      32.110  22.678 -21.490  0.00  0.00     0.011 A 
ATOM      9  C   UNL d   1      32.547  23.247 -21.897  0.00  0.00     0.058 A 
ATOM     10  C   UNL d   1      33.089  23.695 -21.468  0.00  0.00     0.011 A 
ATOM     11 CL   UNL d   1      32.451  23.362 -22.688  0.00  0.00    -0.082 Cl
ATOM     12  C   UNL d   1      33.196  23.585 -20.656  0.00  0.00     0.002 A 
ENDBRANCH   5   6
BRANCH   1  13
ATOM     13  C   UNL d   1      32.617  23.350 -17.357  0.00  0.00     0.231 C 
ATOM     14  O   UNL d   1      33.224  23.523 -16.816  0.00  0.00    -0.643 OA
ATOM     15  O   UNL d   1      31.818  23.488 -17.160  0.00  0.00    -0.643 OA
ENDBRANCH   1  13
TORSDOF 2
ENDMDL
MODEL 8
REMARK VINA RESULT:      -2.5      2.702      3.365
REMARK  2 active torsions:
REMARK  status: ('A' for Active; 'I' for Inactive)
REMARK    1  A    between atoms: C_6  and  C_1 
REMARK    2  A    between atoms: C_7  and  C_5 
ROOT
ATOM      1  C   UNL d   1      32.679  21.864 -20.878  0.00  0.00     0.169 A 
ATOM      2  C   UNL d   1      32.565  21.867 -20.046  0.00  0.00     0.048 A 
ATOM      3  N   UNL d   1      33.044  23.076 -20.398  0.00  0.00    -0.148 NA
ATOM      4  N   UNL d   1      32.970  22.602 -21.085  0.00  0.00    -0.142 NA
ATOM      5  C   UNL d   1      32.787  22.602 -19.755  0.00  0.00     0.105 A 
ENDROOT
BRANCH   5   6
ATOM      6  C   UNL d   1      32.764  22.844 -18.969  0.00  0.00     0.019 A 
ATOM      7  C   UNL d   1      32.259  23.457 -18.744  0.00  0.00     0.002 A 
ATOM      8  C   UNL d   1      32.233  23.702 -17.959  0.00  0.00     0.011 A 
ATOM      9  C   UNL d   1      32.703  23.349 -17.380  0.00  0.00     0.058 A 
ATOM     10  C   UNL d   1      33.204  22.739 -17.612  0.00  0.00     0.011 A 
ATOM     11 CL   UNL d   1      32.676  23.591 -16.613  0.00  0.00    -0.082 Cl
ATOM     12  C   UNL d   1      33.241  22.482 -18.397  0.00  0.00     0.002 A 
ENDBRANCH   5   6
BRANCH   1  13
ATOM     13  C   UNL d   1      32.522  21.224 -21.390  0.00  0.00     0.231 C 
ATOM     14  O   UNL d   1      31.763  20.887 -21.438  0.00  0.00    -0.643 OA
ATOM     15  O   UNL d   1      33.149  20.928 -21.856  0.00  0.00    -0.643 OA
ENDBRANCH   1  13
TORSDOF 2
ENDMDL
MODEL 9
REMARK VINA RESULT:      -2.4      2.996      3.709
REMARK  2 active torsions:
REMARK  status: ('A' for Active; 'I' for Inactive)
REMARK    1  A    between atoms: C_6  and  C_1 
REMARK    2  A    between atoms: C_7  and  C_5 
ROOT
ATOM      1  C   UNL d   1      32.548  22.688 -20.324  0.00  0.00     0.169 A 
ATOM      2  C   UNL d   1      32.970  22.875 -21.026  0.00  0.00     0.048 A 
ATOM      3  N   UNL d   1      31.729  22.491 -21.385  0.00  0.00    -0.148 NA
ATOM      4  N   UNL d   1      31.795  22.455 -20.550  0.00  0.00    -0.142 NA
ATOM      5  C   UNL d   1      32.473  22.756 -21.669  0.00  0.00     0.105 A 
ENDROOT
BRANCH   5   6
ATOM      6  C   UNL d   1      32.662  22.874 -22.461  0.00  0.00     0.019 A 
ATOM      7  C   UNL d   1      33.002  22.260 -22.895  0.00  0.00     0.002 A 
ATOM      8  C   UNL d   1      33.193  22.373 -23.688  0.00  0.00     0.011 A 
ATOM      9  C   UNL d   1      33.053  23.091 -24.068  0.00  0.00     0.058 A 
ATOM     10  C   UNL d   1      32.714  23.699 -23.628  0.00  0.00     0.011 A 
ATOM     11 CL   UNL d   1      33.241  23.199 -24.843  0.00  0.00    -0.082 Cl
ATOM     12  C   UNL d   1      32.517  23.600 -22.831  0.00  0.00     0.002 A 
ENDBRANCH   5   6
BRANCH   1  13
ATOM     13  C   UNL d   1      32.848  22.733 -19.547  0.00  0.00     0.231 C 
ATOM     14  O   UNL d   1      32.807  23.439 -19.110  0.00  0.00    -0.643 OA
ATOM     15  O   UNL d   1      33.193  22.047 -19.217  0.00  0.00    -0.643 OA
ENDBRANCH   1  13
TORSDOF 2
ENDMDL
