MODEL 1
REMARK VINA RESULT:      -8.7      0.000      0.000
REMARK  6 active torsions:
REMARK  status: ('A' for Active; 'I' for Inactive)
REMARK    1  A    between atoms: C_6  and  C_1 
REMARK    2  A    between atoms: C_9  and  N_3 
REMARK       I    between atoms: N_7  and  C_6 
REMARK    3  A    between atoms: C_8  and  N_7 
REMARK    4  A    between atoms: C_14  and  C_9 
REMARK    5  A    between atoms: O_21  and  C_12 
REMARK    6  A    between atoms: O_22  and  C_19 
ROOT
ATOM      1  C   UNL d   1      50.518  34.120  52.802  0.00  0.00     0.199 A 
ATOM      2  C   UNL d   1      51.283  34.108  52.479  0.00  0.00     0.211 A 
ATOM      3  N   UNL d   1      51.768  33.677  52.990  0.00  0.00    -0.190 N 
ATOM      4  N   UNL d   1      50.535  33.698  53.512  0.00  0.00    -0.122 NA
ATOM      5  N   UNL d   1      51.311  33.424  53.627  0.00  0.00    -0.058 NA
ATOM      6  N   UNL d   1      51.517  34.464  51.769  0.00  0.00    -0.125 N 
ENDROOT
BRANCH   1   7
ATOM      7  C   UNL d   1      49.863  34.491  52.470  0.00  0.00     0.302 C 
ATOM      8  N   UNL d   1      49.331  34.896  52.957  0.00  0.00    -0.205 NA
ATOM      9  O   UNL d   1      49.736  34.459  51.655  0.00  0.00    -0.263 OA
BRANCH   8  10
ATOM     10  C   UNL d   1      48.669  35.271  52.624  0.00  0.00     0.108 A 
ATOM     11  C   UNL d   1      48.359  35.003  51.909  0.00  0.00     0.033 A 
ATOM     12  C   UNL d   1      47.701  35.375  51.577  0.00  0.00     0.059 A 
ATOM     13 CL   UNL d   1      47.395  35.101  50.859  0.00  0.00    -0.082 Cl
ATOM     14  C   UNL d   1      47.351  36.019  51.962  0.00  0.00     0.013 A 
ATOM     15  C   UNL d   1      47.665  36.290  52.686  0.00  0.00     0.027 A 
ATOM     16  C   UNL d   1      48.324  35.911  53.011  0.00  0.00     0.112 A 
BRANCH  16  17
ATOM     17  O   UNL d   1      48.637  36.180  53.729  0.00  0.00    -0.327 OA
ATOM     18  C   UNL d   1      48.206  36.709  54.192  0.00  0.00     0.181 C 
ENDBRANCH  16  17
ENDBRANCH   8  10
ENDBRANCH   1   7
BRANCH   3  19
ATOM     19  C   UNL d   1      52.572  33.523  52.889  0.00  0.00     0.104 C 
BRANCH  19  20
ATOM     20  C   UNL d   1      52.918  32.850  53.208  0.00  0.00     0.021 A 
ATOM     21  C   UNL d   1      52.805  32.112  52.860  0.00  0.00     0.026 A 
ATOM     22  C   UNL d   1      53.152  31.442  53.182  0.00  0.00     0.094 A 
ATOM     23  C   UNL d   1      53.622  31.499  53.864  0.00  0.00     0.024 A 
ATOM     24  C   UNL d   1      53.736  32.248  54.218  0.00  0.00     0.002 A 
ATOM     25  C   UNL d   1      53.386  32.914  53.890  0.00  0.00     0.002 A 
BRANCH  22  26
ATOM     26  O   UNL d   1      53.034  30.707  52.827  0.00  0.00    -0.328 OA
ATOM     27  C   UNL d   1      52.804  30.058  53.281  0.00  0.00     0.181 C 
ENDBRANCH  22  26
ENDBRANCH  19  20
ENDBRANCH   3  19
TORSDOF 6
ENDMDL
MODEL 2
REMARK VINA RESULT:      -8.6      0.875      1.312
REMARK  6 active torsions:
REMARK  status: ('A' for Active; 'I' for Inactive)
REMARK    1  A    between atoms: C_6  and  C_1 
REMARK    2  A    between atoms: C_9  and  N_3 
REMARK       I    between atoms: N_7  and  C_6 
REMARK    3  A    between atoms: C_8  and  N_7 
REMARK    4  A    between atoms: C_14  and  C_9 
REMARK    5  A    between atoms: O_21  and  C_12 
REMARK    6  A    between atoms: O_22  and  C_19 
ROOT
ATOM      1  C   UNL d   1      50.523  34.100  52.747  0.00  0.00     0.199 A 
ATOM      2  C   UNL d   1      51.287  34.105  52.421  0.00  0.00     0.211 A 
ATOM      3  N   UNL d   1      51.777  33.659  52.914  0.00  0.00    -0.190 N 
ATOM      4  N   UNL d   1      50.545  33.651  53.440  0.00  0.00    -0.122 NA
ATOM      5  N   UNL d   1      51.324  33.378  53.542  0.00  0.00    -0.058 NA
ATOM      6  N   UNL d   1      51.516  34.489  51.725  0.00  0.00    -0.125 N 
ENDROOT
BRANCH   1   7
ATOM      7  C   UNL d   1      49.864  34.479  52.431  0.00  0.00     0.302 C 
ATOM      8  N   UNL d   1      49.343  34.879  52.934  0.00  0.00    -0.205 NA
ATOM      9  O   UNL d   1      49.723  34.459  51.618  0.00  0.00    -0.263 OA
BRANCH   8  10
ATOM     10  C   UNL d   1      48.677  35.262  52.617  0.00  0.00     0.108 A 
ATOM     11  C   UNL d   1      48.344  34.996  51.912  0.00  0.00     0.033 A 
ATOM     12  C   UNL d   1      47.682  35.376  51.597  0.00  0.00     0.059 A 
ATOM     13 CL   UNL d   1      47.353  35.103  50.888  0.00  0.00    -0.082 Cl
ATOM     14  C   UNL d   1      47.352  36.026  51.989  0.00  0.00     0.013 A 
ATOM     15  C   UNL d   1      47.689  36.295  52.702  0.00  0.00     0.027 A 
ATOM     16  C   UNL d   1      48.352  35.909  53.011  0.00  0.00     0.112 A 
BRANCH  16  17
ATOM     17  O   UNL d   1      48.687  36.175  53.719  0.00  0.00    -0.327 OA
ATOM     18  C   UNL d   1      48.268  36.697  54.201  0.00  0.00     0.181 C 
ENDBRANCH  16  17
ENDBRANCH   8  10
ENDBRANCH   1   7
BRANCH   3  19
ATOM     19  C   UNL d   1      52.581  33.514  52.804  0.00  0.00     0.104 C 
BRANCH  19  20
ATOM     20  C   UNL d   1      53.019  33.106  53.367  0.00  0.00     0.021 A 
ATOM     21  C   UNL d   1      53.378  33.505  53.991  0.00  0.00     0.026 A 
ATOM     22  C   UNL d   1      53.815  33.094  54.552  0.00  0.00     0.094 A 
ATOM     23  C   UNL d   1      53.899  32.270  54.496  0.00  0.00     0.024 A 
ATOM     24  C   UNL d   1      53.534  31.865  53.862  0.00  0.00     0.002 A 
ATOM     25  C   UNL d   1      53.100  32.283  53.306  0.00  0.00     0.002 A 
BRANCH  22  26
ATOM     26  O   UNL d   1      54.171  33.501  55.174  0.00  0.00    -0.328 OA
ATOM     27  C   UNL d   1      54.991  33.591  55.196  0.00  0.00     0.181 C 
ENDBRANCH  22  26
ENDBRANCH  19  20
ENDBRANCH   3  19
TORSDOF 6
ENDMDL
MODEL 3
REMARK VINA RESULT:      -7.9      1.927      5.663
REMARK  6 active torsions:
REMARK  status: ('A' for Active; 'I' for Inactive)
REMARK    1  A    between atoms: C_6  and  C_1 
REMARK    2  A    between atoms: C_9  and  N_3 
REMARK       I    between atoms: N_7  and  C_6 
REMARK    3  A    between atoms: C_8  and  N_7 
REMARK    4  A    between atoms: C_14  and  C_9 
REMARK    5  A    between atoms: O_21  and  C_12 
REMARK    6  A    between atoms: O_22  and  C_19 
ROOT
ATOM      1  C   UNL d   1      51.054  33.967  52.932  0.00  0.00     0.199 A 
ATOM      2  C   UNL d   1      50.811  34.275  52.200  0.00  0.00     0.211 A 
ATOM      3  N   UNL d   1      49.995  34.396  52.233  0.00  0.00    -0.190 N 
ATOM      4  N   UNL d   1      50.386  33.899  53.413  0.00  0.00    -0.122 NA
ATOM      5  N   UNL d   1      49.730  34.166  52.978  0.00  0.00    -0.058 NA
ATOM      6  N   UNL d   1      51.300  34.434  51.551  0.00  0.00    -0.125 N 
ENDROOT
BRANCH   1   7
ATOM      7  C   UNL d   1      51.826  33.767  53.135  0.00  0.00     0.302 C 
ATOM      8  N   UNL d   1      51.986  33.014  53.440  0.00  0.00    -0.205 NA
ATOM      9  O   UNL d   1      52.437  34.312  53.036  0.00  0.00    -0.263 OA
BRANCH   8  10
ATOM     10  C   UNL d   1      52.764  32.809  53.645  0.00  0.00     0.108 A 
ATOM     11  C   UNL d   1      53.215  33.317  54.113  0.00  0.00     0.033 A 
ATOM     12  C   UNL d   1      53.989  33.113  54.318  0.00  0.00     0.059 A 
ATOM     13 CL   UNL d   1      54.435  33.627  54.788  0.00  0.00    -0.082 Cl
ATOM     14  C   UNL d   1      54.313  32.399  54.054  0.00  0.00     0.013 A 
ATOM     15  C   UNL d   1      53.857  31.886  53.580  0.00  0.00     0.027 A 
ATOM     16  C   UNL d   1      53.082  32.097  53.380  0.00  0.00     0.112 A 
BRANCH  16  17
ATOM     17  O   UNL d   1      52.629  31.589  52.910  0.00  0.00    -0.327 OA
ATOM     18  C   UNL d   1      52.811  30.785  52.880  0.00  0.00     0.181 C 
ENDBRANCH  16  17
ENDBRANCH   8  10
ENDBRANCH   1   7
BRANCH   3  19
ATOM     19  C   UNL d   1      49.519  34.695  51.630  0.00  0.00     0.104 C 
BRANCH  19  20
ATOM     20  C   UNL d   1      48.804  35.064  51.797  0.00  0.00     0.021 A 
ATOM     21  C   UNL d   1      48.124  34.877  51.372  0.00  0.00     0.026 A 
ATOM     22  C   UNL d   1      47.411  35.247  51.542  0.00  0.00     0.094 A 
ATOM     23  C   UNL d   1      47.367  35.815  52.146  0.00  0.00     0.024 A 
ATOM     24  C   UNL d   1      48.058  36.004  52.578  0.00  0.00     0.002 A 
ATOM     25  C   UNL d   1      48.766  35.630  52.402  0.00  0.00     0.002 A 
BRANCH  22  26
ATOM     26  O   UNL d   1      46.735  35.054  51.112  0.00  0.00    -0.328 OA
ATOM     27  C   UNL d   1      46.086  35.563  51.106  0.00  0.00     0.181 C 
ENDBRANCH  22  26
ENDBRANCH  19  20
ENDBRANCH   3  19
TORSDOF 6
ENDMDL
