MODEL 1
REMARK VINA RESULT:      -2.6      0.000      0.000
REMARK  3 active torsions:
REMARK  status: ('A' for Active; 'I' for Inactive)
REMARK    1  A    between atoms: N_3  and  C_1 
REMARK    2  A    between atoms: N_6  and  N_2 
REMARK    3  A    between atoms: S_5  and  N_6 
ROOT
ATOM      1  C   UNL d   1      31.164  16.270 -24.236  0.00  0.00     0.771 A 
ATOM      2  N   UNL d   1      31.822  16.689 -23.959  0.00  0.00    -0.026 N 
ATOM      3  N   UNL d   1      31.410  15.508 -24.424  0.00  0.00     0.048 NA
ATOM      4  C   UNL d   1      32.470  16.188 -23.976  0.00  0.00     0.204 A 
ATOM      5  N   UNL d   1      32.218  15.455 -24.264  0.00  0.00    -0.112 NA
ATOM      6  C   UNL d   1      33.237  16.379 -23.748  0.00  0.00     0.044 C 
ENDROOT
BRANCH   1   7
ATOM      7  N   UNL d   1      30.396  16.572 -24.307  0.00  0.00    -0.056 N 
ATOM      8  N   UNL d   1      30.153  17.179 -24.813  0.00  0.00    -0.150 NA
ATOM      9  C   UNL d   1      29.344  17.298 -24.700  0.00  0.00     0.103 A 
ATOM     10  C   UNL d   1      28.872  17.853 -25.093  0.00  0.00     0.022 C 
ATOM     11  C   UNL d   1      29.089  16.767 -24.127  0.00  0.00     0.041 A 
ATOM     12  C   UNL d   1      29.737  16.318 -23.882  0.00  0.00     0.102 A 
ATOM     13  C   UNL d   1      29.724  15.720 -23.314  0.00  0.00     0.021 C 
ENDBRANCH   1   7
BRANCH   2  14
ATOM     14  N   UNL d   1      31.819  17.475 -23.709  0.00  0.00    -0.059 NA
BRANCH  14  15
ATOM     15  S   UNL d   1      32.524  17.919 -23.734  0.00  0.00     0.282 S 
ATOM     16  O   UNL d   1      32.555  17.963 -24.548  0.00  0.00    -0.201 OA
ATOM     17  O   UNL d   1      32.484  17.870 -22.908  0.00  0.00    -0.201 OA
ATOM     18  C   UNL d   1      33.214  18.352 -23.674  0.00  0.00     0.167 C 
ENDBRANCH  14  15
ENDBRANCH   2  14
TORSDOF 3
ENDMDL
MODEL 2
REMARK VINA RESULT:      -2.5      1.726      3.409
REMARK  3 active torsions:
REMARK  status: ('A' for Active; 'I' for Inactive)
REMARK    1  A    between atoms: N_3  and  C_1 
REMARK    2  A    between atoms: N_6  and  N_2 
REMARK    3  A    between atoms: S_5  and  N_6 
ROOT
ATOM      1  C   UNL d   1      30.971  17.178 -24.409  0.00  0.00     0.771 A 
ATOM      2  N   UNL d   1      30.226  16.850 -24.259  0.00  0.00    -0.026 N 
ATOM      3  N   UNL d   1      30.869  17.821 -24.911  0.00  0.00     0.048 NA
ATOM      4  C   UNL d   1      29.667  17.289 -24.667  0.00  0.00     0.204 A 
ATOM      5  N   UNL d   1      30.063  17.891 -25.072  0.00  0.00    -0.112 NA
ATOM      6  C   UNL d   1      28.856  17.155 -24.674  0.00  0.00     0.044 C 
ENDROOT
BRANCH   1   7
ATOM      7  N   UNL d   1      31.690  16.901 -24.102  0.00  0.00    -0.056 N 
ATOM      8  N   UNL d   1      32.012  16.147 -24.213  0.00  0.00    -0.150 NA
ATOM      9  C   UNL d   1      32.731  16.116 -23.809  0.00  0.00     0.103 A 
ATOM     10  C   UNL d   1      33.241  15.465 -23.770  0.00  0.00     0.022 C 
ATOM     11  C   UNL d   1      32.851  16.845 -23.450  0.00  0.00     0.041 A 
ATOM     12  C   UNL d   1      32.210  17.332 -23.630  0.00  0.00     0.102 A 
ATOM     13  C   UNL d   1      32.110  18.112 -23.380  0.00  0.00     0.021 C 
ENDBRANCH   1   7
BRANCH   2  14
ATOM     14  N   UNL d   1      30.078  16.195 -23.780  0.00  0.00    -0.059 NA
BRANCH  14  15
ATOM     15  S   UNL d   1      29.327  15.833 -23.795  0.00  0.00     0.282 S 
ATOM     16  O   UNL d   1      29.444  15.453 -24.508  0.00  0.00    -0.201 OA
ATOM     17  O   UNL d   1      29.218  16.222 -23.073  0.00  0.00    -0.201 OA
ATOM     18  C   UNL d   1      28.577  15.516 -23.737  0.00  0.00     0.167 C 
ENDBRANCH  14  15
ENDBRANCH   2  14
TORSDOF 3
ENDMDL
MODEL 3
REMARK VINA RESULT:      -2.4      1.575      3.153
REMARK  3 active torsions:
REMARK  status: ('A' for Active; 'I' for Inactive)
REMARK    1  A    between atoms: N_3  and  C_1 
REMARK    2  A    between atoms: N_6  and  N_2 
REMARK    3  A    between atoms: S_5  and  N_6 
ROOT
ATOM      1  C   UNL d   1      32.700  17.123 -24.332  0.00  0.00     0.771 A 
ATOM      2  N   UNL d   1      31.990  16.697 -24.312  0.00  0.00    -0.026 N 
ATOM      3  N   UNL d   1      33.227  16.716 -24.814  0.00  0.00     0.048 NA
ATOM      4  C   UNL d   1      32.080  16.030 -24.780  0.00  0.00     0.204 A 
ATOM      5  N   UNL d   1      32.846  16.039 -25.092  0.00  0.00    -0.112 NA
ATOM      6  C   UNL d   1      31.511  15.453 -24.916  0.00  0.00     0.044 C 
ENDROOT
BRANCH   1   7
ATOM      7  N   UNL d   1      32.845  17.835 -23.933  0.00  0.00    -0.056 N 
ATOM      8  N   UNL d   1      32.928  17.931 -23.116  0.00  0.00    -0.150 NA
ATOM      9  C   UNL d   1      33.066  18.731 -22.966  0.00  0.00     0.103 A 
ATOM     10  C   UNL d   1      33.182  19.075 -22.222  0.00  0.00     0.022 C 
ATOM     11  C   UNL d   1      33.068  19.126 -23.686  0.00  0.00     0.041 A 
ATOM     12  C   UNL d   1      32.932  18.575 -24.285  0.00  0.00     0.102 A 
ATOM     13  C   UNL d   1      32.890  18.739 -25.093  0.00  0.00     0.021 C 
ENDBRANCH   1   7
BRANCH   2  14
ATOM     14  N   UNL d   1      31.313  16.912 -23.893  0.00  0.00    -0.059 NA
BRANCH  14  15
ATOM     15  S   UNL d   1      30.755  16.330 -23.682  0.00  0.00     0.282 S 
ATOM     16  O   UNL d   1      31.235  15.964 -23.133  0.00  0.00    -0.201 OA
ATOM     17  O   UNL d   1      30.276  16.707 -24.242  0.00  0.00    -0.201 OA
ATOM     18  C   UNL d   1      30.157  15.794 -23.532  0.00  0.00     0.167 C 
ENDBRANCH  14  15
ENDBRANCH   2  14
TORSDOF 3
ENDMDL
MODEL 4
REMARK VINA RESULT:      -1.9      1.199      2.009
REMARK  3 active torsions:
REMARK  status: ('A' for Active; 'I' for Inactive)
REMARK    1  A    between atoms: N_3  and  C_1 
REMARK    2  A    between atoms: N_6  and  N_2 
REMARK    3  A    between atoms: S_5  and  N_6 
ROOT
ATOM      1  C   UNL d   1      30.388  16.808 -24.179  0.00  0.00     0.771 A 
ATOM      2  N   UNL d   1      31.206  16.682 -24.201  0.00  0.00    -0.026 N 
ATOM      3  N   UNL d   1      30.225  17.493 -24.604  0.00  0.00     0.048 NA
ATOM      4  C   UNL d   1      31.545  17.287 -24.638  0.00  0.00     0.204 A 
ATOM      5  N   UNL d   1      30.940  17.790 -24.890  0.00  0.00    -0.112 NA
ATOM      6  C   UNL d   1      32.347  17.377 -24.799  0.00  0.00     0.044 C 
ENDROOT
BRANCH   1   7
ATOM      7  N   UNL d   1      29.836  16.324 -23.792  0.00  0.00    -0.056 N 
ATOM      8  N   UNL d   1      29.748  16.237 -22.975  0.00  0.00    -0.150 NA
ATOM      9  C   UNL d   1      29.134  15.702 -22.840  0.00  0.00     0.103 A 
ATOM     10  C   UNL d   1      28.858  15.453 -22.101  0.00  0.00     0.022 C 
ATOM     11  C   UNL d   1      28.846  15.460 -23.570  0.00  0.00     0.041 A 
ATOM     12  C   UNL d   1      29.278  15.843 -24.160  0.00  0.00     0.102 A 
ATOM     13  C   UNL d   1      29.168  15.757 -24.973  0.00  0.00     0.021 C 
ENDBRANCH   1   7
BRANCH   2  14
ATOM     14  N   UNL d   1      31.604  16.055 -23.842  0.00  0.00    -0.059 NA
BRANCH  14  15
ATOM     15  S   UNL d   1      32.423  16.113 -23.700  0.00  0.00     0.282 S 
ATOM     16  O   UNL d   1      32.354  16.640 -23.082  0.00  0.00    -0.201 OA
ATOM     17  O   UNL d   1      32.484  15.577 -24.329  0.00  0.00    -0.201 OA
ATOM     18  C   UNL d   1      33.237  16.115 -23.625  0.00  0.00     0.167 C 
ENDBRANCH  14  15
ENDBRANCH   2  14
TORSDOF 3
ENDMDL
MODEL 5
REMARK VINA RESULT:      -1.4      1.744      3.228
REMARK  3 active torsions:
REMARK  status: ('A' for Active; 'I' for Inactive)
REMARK    1  A    between atoms: N_3  and  C_1 
REMARK    2  A    between atoms: N_6  and  N_2 
REMARK    3  A    between atoms: S_5  and  N_6 
ROOT
ATOM      1  C   UNL d   1      30.538  15.819 -23.451  0.00  0.00     0.771 A 
ATOM      2  N   UNL d   1      29.866  16.133 -23.819  0.00  0.00    -0.026 N 
ATOM      3  N   UNL d   1      30.298  15.454 -22.754  0.00  0.00     0.048 NA
ATOM      4  C   UNL d   1      29.215  15.962 -23.351  0.00  0.00     0.204 A 
ATOM      5  N   UNL d   1      29.480  15.542 -22.690  0.00  0.00    -0.112 NA
ATOM      6  C   UNL d   1      28.436  16.172 -23.510  0.00  0.00     0.044 C 
ENDROOT
BRANCH   1   7
ATOM      7  N   UNL d   1      31.313  15.868 -23.741  0.00  0.00    -0.056 N 
ATOM      8  N   UNL d   1      31.607  15.498 -24.419  0.00  0.00    -0.150 NA
ATOM      9  C   UNL d   1      32.403  15.700 -24.495  0.00  0.00     0.103 A 
ATOM     10  C   UNL d   1      32.915  15.453 -25.097  0.00  0.00     0.022 C 
ATOM     11  C   UNL d   1      32.600  16.192 -23.866  0.00  0.00     0.041 A 
ATOM     12  C   UNL d   1      31.928  16.297 -23.399  0.00  0.00     0.102 A 
ATOM     13  C   UNL d   1      31.884  16.751 -22.712  0.00  0.00     0.021 C 
ENDBRANCH   1   7
BRANCH   2  14
ATOM     14  N   UNL d   1      29.860  16.545 -24.534  0.00  0.00    -0.059 NA
BRANCH  14  15
ATOM     15  S   UNL d   1      29.251  17.092 -24.690  0.00  0.00     0.282 S 
ATOM     16  O   UNL d   1      29.611  17.714 -24.303  0.00  0.00    -0.201 OA
ATOM     17  O   UNL d   1      28.893  16.456 -25.079  0.00  0.00    -0.201 OA
ATOM     18  C   UNL d   1      28.615  17.567 -24.883  0.00  0.00     0.167 C 
ENDBRANCH  14  15
ENDBRANCH   2  14
TORSDOF 3
ENDMDL
MODEL 6
REMARK VINA RESULT:      -1.0      1.394      2.329
REMARK  3 active torsions:
REMARK  status: ('A' for Active; 'I' for Inactive)
REMARK    1  A    between atoms: N_3  and  C_1 
REMARK    2  A    between atoms: N_6  and  N_2 
REMARK    3  A    between atoms: S_5  and  N_6 
ROOT
ATOM      1  C   UNL d   1      32.529  17.204 -23.268  0.00  0.00     0.771 A 
ATOM      2  N   UNL d   1      32.605  17.996 -23.500  0.00  0.00    -0.026 N 
ATOM      3  N   UNL d   1      32.915  17.113 -22.548  0.00  0.00     0.048 NA
ATOM      4  C   UNL d   1      33.036  18.389 -22.925  0.00  0.00     0.204 A 
ATOM      5  N   UNL d   1      33.230  17.845 -22.334  0.00  0.00    -0.112 NA
ATOM      6  C   UNL d   1      33.241  19.186 -22.933  0.00  0.00     0.044 C 
ENDROOT
BRANCH   1   7
ATOM      7  N   UNL d   1      32.131  16.614 -23.694  0.00  0.00    -0.056 N 
ATOM      8  N   UNL d   1      31.385  16.681 -24.044  0.00  0.00    -0.150 NA
ATOM      9  C   UNL d   1      31.209  15.961 -24.407  0.00  0.00     0.103 A 
ATOM     10  C   UNL d   1      30.517  15.781 -24.824  0.00  0.00     0.022 C 
ATOM     11  C   UNL d   1      31.843  15.454 -24.283  0.00  0.00     0.041 A 
ATOM     12  C   UNL d   1      32.414  15.855 -23.843  0.00  0.00     0.102 A 
ATOM     13  C   UNL d   1      33.139  15.547 -23.596  0.00  0.00     0.021 C 
ENDBRANCH   1   7
BRANCH   2  14
ATOM     14  N   UNL d   1      32.297  18.324 -24.191  0.00  0.00    -0.059 NA
BRANCH  14  15
ATOM     15  S   UNL d   1      32.715  18.932 -24.581  0.00  0.00     0.282 S 
ATOM     16  O   UNL d   1      33.240  18.432 -24.954  0.00  0.00    -0.201 OA
ATOM     17  O   UNL d   1      32.177  19.431 -24.199  0.00  0.00    -0.201 OA
ATOM     18  C   UNL d   1      33.071  19.580 -24.926  0.00  0.00     0.167 C 
ENDBRANCH  14  15
ENDBRANCH   2  14
TORSDOF 3
ENDMDL
MODEL 7
REMARK VINA RESULT:      -0.2      3.473      4.971
REMARK  3 active torsions:
REMARK  status: ('A' for Active; 'I' for Inactive)
REMARK    1  A    between atoms: N_3  and  C_1 
REMARK    2  A    between atoms: N_6  and  N_2 
REMARK    3  A    between atoms: S_5  and  N_6 
ROOT
ATOM      1  C   UNL d   1      33.033  20.457 -21.926  0.00  0.00     0.771 A 
ATOM      2  N   UNL d   1      33.059  19.929 -22.563  0.00  0.00    -0.026 N 
ATOM      3  N   UNL d   1      33.137  20.025 -21.234  0.00  0.00     0.048 NA
ATOM      4  C   UNL d   1      33.179  19.175 -22.264  0.00  0.00     0.204 A 
ATOM      5  N   UNL d   1      33.227  19.232 -21.441  0.00  0.00    -0.112 NA
ATOM      6  C   UNL d   1      33.240  18.484 -22.705  0.00  0.00     0.044 C 
ENDROOT
BRANCH   1   7
ATOM      7  N   UNL d   1      32.921  21.277 -21.984  0.00  0.00    -0.056 N 
ATOM      8  N   UNL d   1      33.215  21.771 -22.578  0.00  0.00    -0.150 NA
ATOM      9  C   UNL d   1      32.968  22.541 -22.414  0.00  0.00     0.103 A 
ATOM     10  C   UNL d   1      33.137  23.214 -22.866  0.00  0.00     0.022 C 
ATOM     11  C   UNL d   1      32.524  22.523 -21.723  0.00  0.00     0.041 A 
ATOM     12  C   UNL d   1      32.493  21.743 -21.455  0.00  0.00     0.102 A 
ATOM     13  C   UNL d   1      32.103  21.479 -20.778  0.00  0.00     0.021 C 
ENDBRANCH   1   7
BRANCH   2  14
ATOM     14  N   UNL d   1      32.978  20.133 -23.358  0.00  0.00    -0.059 NA
BRANCH  14  15
ATOM     15  S   UNL d   1      32.575  19.621 -23.877  0.00  0.00     0.282 S 
ATOM     16  O   UNL d   1      31.924  19.525 -23.394  0.00  0.00    -0.201 OA
ATOM     17  O   UNL d   1      33.239  19.724 -24.360  0.00  0.00    -0.201 OA
ATOM     18  C   UNL d   1      32.244  19.127 -24.437  0.00  0.00     0.167 C 
ENDBRANCH  14  15
ENDBRANCH   2  14
TORSDOF 3
ENDMDL
