MODEL 1
REMARK VINA RESULT:      -4.6      0.000      0.000
REMARK  4 active torsions:
REMARK  status: ('A' for Active; 'I' for Inactive)
REMARK    1  A    between atoms: N_4  and  S_1 
REMARK    2  A    between atoms: C_6  and  S_1 
REMARK    3  A    between atoms: N_3  and  C_2 
REMARK    4  A    between atoms: C_7  and  N_4 
ROOT
ATOM      1  S   UNL d   1      57.559  -0.124  30.550  0.00  0.00     0.285 S 
ATOM      2  O   UNL d   1      57.740  -0.949  30.657  0.00  0.00    -0.198 OA
ATOM      3  O   UNL d   1      57.391   0.682  30.405  0.00  0.00    -0.198 OA
ENDROOT
BRANCH   1   4
ATOM      4  N   UNL d   1      57.751  -0.203  29.723  0.00  0.00    -0.158 NA
BRANCH   4   5
ATOM      5  C   UNL d   1      58.553  -0.217  29.475  0.00  0.00     0.094 A 
ATOM      6  C   UNL d   1      58.931   0.512  29.319  0.00  0.00     0.023 A 
ATOM      7  C   UNL d   1      59.734   0.498  29.070  0.00  0.00     0.044 A 
ATOM      8  C   UNL d   1      60.111  -0.243  28.991  0.00  0.00     0.196 A 
ATOM      9  C   UNL d   1      59.733  -0.950  29.146  0.00  0.00     0.044 A 
ATOM     10  O   UNL d   1      60.919  -0.257  28.741  0.00  0.00    -0.287 OA
ATOM     11  C   UNL d   1      58.930  -0.936  29.395  0.00  0.00     0.023 A 
ENDBRANCH   4   5
ENDBRANCH   1   4
BRANCH   1  12
ATOM     12  C   UNL d   1      57.372  -0.042  31.353  0.00  0.00     0.107 A 
ATOM     13  C   UNL d   1      56.798  -0.538  31.677  0.00  0.00     0.037 A 
ATOM     14  C   UNL d   1      56.614  -0.454  32.476  0.00  0.00     0.138 A 
ATOM     15  C   UNL d   1      56.989   0.104  32.934  0.00  0.00     0.080 A 
ATOM     16  C   UNL d   1      57.562   0.600  32.610  0.00  0.00     0.014 A 
ATOM     17 CL   UNL d   1      56.798   0.185  33.743  0.00  0.00    -0.081 Cl
ATOM     18  C   UNL d   1      57.746   0.516  31.811  0.00  0.00     0.014 A 
BRANCH  14  19
ATOM     19  N   UNL d   1      56.034  -0.953  32.810  0.00  0.00    -0.113 N 
ATOM     20  O   UNL d   1      55.264  -0.682  32.920  0.00  0.00    -0.532 OA
ATOM     21  O   UNL d   1      56.221  -1.711  33.030  0.00  0.00    -0.532 OA
ENDBRANCH  14  19
ENDBRANCH   1  12
TORSDOF 4
ENDMDL
MODEL 2
REMARK VINA RESULT:      -4.1      1.640      4.256
REMARK  4 active torsions:
REMARK  status: ('A' for Active; 'I' for Inactive)
REMARK    1  A    between atoms: N_4  and  S_1 
REMARK    2  A    between atoms: C_6  and  S_1 
REMARK    3  A    between atoms: N_3  and  C_2 
REMARK    4  A    between atoms: C_7  and  N_4 
ROOT
ATOM      1  S   UNL d   1      57.198  -0.099  31.120  0.00  0.00     0.285 S 
ATOM      2  O   UNL d   1      57.440  -0.896  31.295  0.00  0.00    -0.198 OA
ATOM      3  O   UNL d   1      56.922   0.674  30.960  0.00  0.00    -0.198 OA
ENDROOT
BRANCH   1   4
ATOM      4  N   UNL d   1      56.410  -0.297  31.374  0.00  0.00    -0.158 NA
BRANCH   4   5
ATOM      5  C   UNL d   1      56.189  -0.205  32.180  0.00  0.00     0.094 A 
ATOM      6  C   UNL d   1      55.982   0.559  32.447  0.00  0.00     0.023 A 
ATOM      7  C   UNL d   1      55.761   0.651  33.254  0.00  0.00     0.044 A 
ATOM      8  C   UNL d   1      55.761  -0.026  33.743  0.00  0.00     0.196 A 
ATOM      9  C   UNL d   1      55.966  -0.768  33.472  0.00  0.00     0.044 A 
ATOM     10  O   UNL d   1      55.539   0.067  34.554  0.00  0.00    -0.287 OA
ATOM     11  C   UNL d   1      56.186  -0.860  32.666  0.00  0.00     0.023 A 
ENDBRANCH   4   5
ENDBRANCH   1   4
BRANCH   1  12
ATOM     12  C   UNL d   1      57.964   0.099  30.871  0.00  0.00     0.107 A 
ATOM     13  C   UNL d   1      58.193  -0.097  30.104  0.00  0.00     0.037 A 
ATOM     14  C   UNL d   1      58.955   0.101  29.859  0.00  0.00     0.138 A 
ATOM     15  C   UNL d   1      59.468   0.480  30.363  0.00  0.00     0.080 A 
ATOM     16  C   UNL d   1      59.240   0.676  31.131  0.00  0.00     0.014 A 
ATOM     17 CL   UNL d   1      60.239   0.678  30.111  0.00  0.00    -0.081 Cl
ATOM     18  C   UNL d   1      58.478   0.478  31.375  0.00  0.00     0.014 A 
BRANCH  14  19
ATOM     19  N   UNL d   1      59.192  -0.095  29.084  0.00  0.00    -0.113 N 
ATOM     20  O   UNL d   1      59.597  -0.797  28.937  0.00  0.00    -0.532 OA
ATOM     21  O   UNL d   1      59.027   0.403  28.465  0.00  0.00    -0.532 OA
ENDBRANCH  14  19
ENDBRANCH   1  12
TORSDOF 4
ENDMDL
MODEL 3
REMARK VINA RESULT:      -3.8      1.786      4.070
REMARK  4 active torsions:
REMARK  status: ('A' for Active; 'I' for Inactive)
REMARK    1  A    between atoms: N_4  and  S_1 
REMARK    2  A    between atoms: C_6  and  S_1 
REMARK    3  A    between atoms: N_3  and  C_2 
REMARK    4  A    between atoms: C_7  and  N_4 
ROOT
ATOM      1  S   UNL d   1      57.944   0.376  30.523  0.00  0.00     0.285 S 
ATOM      2  O   UNL d   1      58.489   0.335  31.176  0.00  0.00    -0.198 OA
ATOM      3  O   UNL d   1      57.381   0.430  29.907  0.00  0.00    -0.198 OA
ENDROOT
BRANCH   1   4
ATOM      4  N   UNL d   1      57.351   0.678  31.054  0.00  0.00    -0.158 NA
BRANCH   4   5
ATOM      5  C   UNL d   1      57.064   0.202  31.683  0.00  0.00     0.094 A 
ATOM      6  C   UNL d   1      57.214   0.450  32.466  0.00  0.00     0.023 A 
ATOM      7  C   UNL d   1      56.926  -0.028  33.096  0.00  0.00     0.044 A 
ATOM      8  C   UNL d   1      56.506  -0.724  32.905  0.00  0.00     0.196 A 
ATOM      9  C   UNL d   1      56.364  -0.957  32.136  0.00  0.00     0.044 A 
ATOM     10  O   UNL d   1      56.217  -1.204  33.539  0.00  0.00    -0.287 OA
ATOM     11  C   UNL d   1      56.652  -0.480  31.506  0.00  0.00     0.023 A 
ENDBRANCH   4   5
ENDBRANCH   1   4
BRANCH   1  12
ATOM     12  C   UNL d   1      58.519   0.081  30.002  0.00  0.00     0.107 A 
ATOM     13  C   UNL d   1      58.505  -0.720  29.811  0.00  0.00     0.037 A 
ATOM     14  C   UNL d   1      59.077  -1.010  29.293  0.00  0.00     0.138 A 
ATOM     15  C   UNL d   1      59.642  -0.517  28.979  0.00  0.00     0.080 A 
ATOM     16  C   UNL d   1      59.657   0.285  29.170  0.00  0.00     0.014 A 
ATOM     17 CL   UNL d   1      60.220  -0.815  28.455  0.00  0.00    -0.081 Cl
ATOM     18  C   UNL d   1      59.084   0.574  29.688  0.00  0.00     0.014 A 
BRANCH  14  19
ATOM     19  N   UNL d   1      59.067  -1.820  29.095  0.00  0.00    -0.113 N 
ATOM     20  O   UNL d   1      58.609  -2.090  28.466  0.00  0.00    -0.532 OA
ATOM     21  O   UNL d   1      59.509  -2.352  29.519  0.00  0.00    -0.532 OA
ENDBRANCH  14  19
ENDBRANCH   1  12
TORSDOF 4
ENDMDL
MODEL 4
REMARK VINA RESULT:      -2.6      1.682      2.193
REMARK  4 active torsions:
REMARK  status: ('A' for Active; 'I' for Inactive)
REMARK    1  A    between atoms: N_4  and  S_1 
REMARK    2  A    between atoms: C_6  and  S_1 
REMARK    3  A    between atoms: N_3  and  C_2 
REMARK    4  A    between atoms: C_7  and  N_4 
ROOT
ATOM      1  S   UNL d   1      58.576  -0.847  29.302  0.00  0.00     0.285 S 
ATOM      2  O   UNL d   1      59.137  -0.224  29.154  0.00  0.00    -0.198 OA
ATOM      3  O   UNL d   1      58.039  -1.478  29.414  0.00  0.00    -0.198 OA
ENDROOT
BRANCH   1   4
ATOM      4  N   UNL d   1      58.861  -1.250  28.607  0.00  0.00    -0.158 NA
BRANCH   4   5
ATOM      5  C   UNL d   1      59.387  -1.901  28.681  0.00  0.00     0.094 A 
ATOM      6  C   UNL d   1      60.192  -1.741  28.840  0.00  0.00     0.023 A 
ATOM      7  C   UNL d   1      60.719  -2.393  28.914  0.00  0.00     0.044 A 
ATOM      8  C   UNL d   1      60.409  -3.163  28.825  0.00  0.00     0.196 A 
ATOM      9  C   UNL d   1      59.621  -3.309  28.671  0.00  0.00     0.044 A 
ATOM     10  O   UNL d   1      60.939  -3.818  28.900  0.00  0.00    -0.287 OA
ATOM     11  C   UNL d   1      59.094  -2.658  28.597  0.00  0.00     0.023 A 
ENDBRANCH   4   5
ENDBRANCH   1   4
BRANCH   1  12
ATOM     12  C   UNL d   1      58.296  -0.458  29.979  0.00  0.00     0.107 A 
ATOM     13  C   UNL d   1      57.715  -0.826  30.433  0.00  0.00     0.037 A 
ATOM     14  C   UNL d   1      57.439  -0.437  31.106  0.00  0.00     0.138 A 
ATOM     15  C   UNL d   1      57.732   0.292  31.315  0.00  0.00     0.080 A 
ATOM     16  C   UNL d   1      58.314   0.660  30.861  0.00  0.00     0.014 A 
ATOM     17 CL   UNL d   1      57.449   0.681  31.997  0.00  0.00    -0.081 Cl
ATOM     18  C   UNL d   1      58.590   0.271  30.188  0.00  0.00     0.014 A 
BRANCH  14  19
ATOM     19  N   UNL d   1      56.851  -0.805  31.570  0.00  0.00    -0.113 N 
ATOM     20  O   UNL d   1      56.977  -1.556  31.883  0.00  0.00    -0.532 OA
ATOM     21  O   UNL d   1      56.149  -0.427  31.718  0.00  0.00    -0.532 OA
ENDBRANCH  14  19
ENDBRANCH   1  12
TORSDOF 4
ENDMDL
