MODEL 1
REMARK VINA RESULT:      -8.6      0.000      0.000
REMARK  6 active torsions:
REMARK  status: ('A' for Active; 'I' for Inactive)
REMARK    1  A    between atoms: C_11  and  C_3 
REMARK    2  A    between atoms: C_12  and  C_4 
REMARK    3  A    between atoms: C_13  and  C_7 
REMARK    4  A    between atoms: N_15  and  C_11 
REMARK    5  A    between atoms: N_14  and  C_12 
REMARK    6  A    between atoms: O_24  and  C_21 
ROOT
ATOM      1  C   UNL d   1      52.281  33.030  52.868  0.00  0.00     0.101 A 
ATOM      2  C   UNL d   1      52.859  33.546  53.154  0.00  0.00     0.111 A 
ATOM      3  C   UNL d   1      53.623  33.271  53.301  0.00  0.00     0.080 A 
ATOM      4  C   UNL d   1      53.223  31.970  52.875  0.00  0.00     0.096 A 
ATOM      5  C   UNL d   1      51.513  33.314  52.722  0.00  0.00     0.203 A 
ATOM      6  C   UNL d   1      52.468  32.240  52.730  0.00  0.00     0.205 A 
ATOM      7  C   UNL d   1      51.328  34.107  52.862  0.00  0.00     0.064 A 
ATOM      8  C   UNL d   1      53.801  32.486  53.161  0.00  0.00     0.203 A 
ATOM      9  O   UNL d   1      52.682  34.346  53.298  0.00  0.00    -0.305 OA
ATOM     10  C   UNL d   1      51.913  34.628  53.151  0.00  0.00     0.126 A 
ATOM     11  O   UNL d   1      50.941  32.803  52.439  0.00  0.00    -0.286 OA
ATOM     12  O   UNL d   1      51.890  31.724  52.443  0.00  0.00    -0.286 OA
ATOM     13  O   UNL d   1      54.572  32.204  53.308  0.00  0.00    -0.286 OA
ENDROOT
BRANCH   7  14
ATOM     14  C   UNL d   1      50.564  34.381  52.715  0.00  0.00     0.005 A 
ATOM     15  C   UNL d   1      50.106  34.661  53.346  0.00  0.00     0.002 A 
ATOM     16  C   UNL d   1      49.342  34.936  53.200  0.00  0.00     0.024 A 
ATOM     17  C   UNL d   1      49.036  34.933  52.431  0.00  0.00     0.094 A 
ATOM     18  C   UNL d   1      49.499  34.653  51.808  0.00  0.00     0.024 A 
ATOM     19  C   UNL d   1      50.263  34.377  51.946  0.00  0.00     0.002 A 
BRANCH  17  20
ATOM     20  O   UNL d   1      48.272  35.208  52.285  0.00  0.00    -0.328 OA
ATOM     21  C   UNL d   1      48.009  35.900  52.652  0.00  0.00     0.181 C 
ENDBRANCH  17  20
ENDBRANCH   7  14
BRANCH   3  22
ATOM     22  C   UNL d   1      54.195  33.794  53.587  0.00  0.00     0.085 C 
BRANCH  22  23
ATOM     23  N   UNL d   1      54.418  33.753  54.389  0.00  0.00    -0.302 N 
ATOM     24  C   UNL d   1      53.840  33.794  54.979  0.00  0.00     0.080 A 
ATOM     25  C   UNL d   1      54.064  33.753  55.768  0.00  0.00     0.019 A 
ATOM     26  C   UNL d   1      54.865  33.670  55.972  0.00  0.00     0.003 A 
ATOM     27  C   UNL d   1      55.436  33.629  55.383  0.00  0.00     0.019 A 
ATOM     28  C   UNL d   1      55.219  33.670  54.587  0.00  0.00     0.080 A 
ENDBRANCH  22  23
ENDBRANCH   3  22
BRANCH   4  29
ATOM     29  C   UNL d   1      53.408  31.178  52.735  0.00  0.00     0.087 C 
BRANCH  29  30
ATOM     30  N   UNL d   1      53.243  30.606  53.309  0.00  0.00    -0.302 N 
ATOM     31  C   UNL d   1      53.704  30.560  53.992  0.00  0.00     0.080 A 
ATOM     32  C   UNL d   1      53.539  29.989  54.565  0.00  0.00     0.019 A 
ATOM     33  C   UNL d   1      52.910  29.461  54.455  0.00  0.00     0.003 A 
ATOM     34  C   UNL d   1      52.449  29.507  53.772  0.00  0.00     0.019 A 
ATOM     35  C   UNL d   1      52.614  30.078  53.198  0.00  0.00     0.080 A 
ENDBRANCH  29  30
ENDBRANCH   4  29
TORSDOF 6
ENDMDL
MODEL 2
REMARK VINA RESULT:      -7.9      0.676      2.833
REMARK  6 active torsions:
REMARK  status: ('A' for Active; 'I' for Inactive)
REMARK    1  A    between atoms: C_11  and  C_3 
REMARK    2  A    between atoms: C_12  and  C_4 
REMARK    3  A    between atoms: C_13  and  C_7 
REMARK    4  A    between atoms: N_15  and  C_11 
REMARK    5  A    between atoms: N_14  and  C_12 
REMARK    6  A    between atoms: O_24  and  C_21 
ROOT
ATOM      1  C   UNL d   1      51.932  33.974  53.007  0.00  0.00     0.101 A 
ATOM      2  C   UNL d   1      51.918  33.207  52.700  0.00  0.00     0.111 A 
ATOM      3  C   UNL d   1      52.602  32.746  52.705  0.00  0.00     0.080 A 
ATOM      4  C   UNL d   1      53.308  33.821  53.322  0.00  0.00     0.096 A 
ATOM      5  C   UNL d   1      51.239  34.433  52.998  0.00  0.00     0.203 A 
ATOM      6  C   UNL d   1      52.632  34.278  53.318  0.00  0.00     0.205 A 
ATOM      7  C   UNL d   1      50.540  34.125  52.686  0.00  0.00     0.064 A 
ATOM      8  C   UNL d   1      53.293  33.054  53.016  0.00  0.00     0.203 A 
ATOM      9  O   UNL d   1      51.218  32.889  52.384  0.00  0.00    -0.305 OA
ATOM     10  C   UNL d   1      50.525  33.350  52.376  0.00  0.00     0.126 A 
ATOM     11  O   UNL d   1      51.254  35.192  53.302  0.00  0.00    -0.286 OA
ATOM     12  O   UNL d   1      52.647  35.045  53.624  0.00  0.00    -0.286 OA
ATOM     13  O   UNL d   1      53.986  32.592  53.023  0.00  0.00    -0.286 OA
ENDROOT
BRANCH   7  14
ATOM     14  C   UNL d   1      49.855  34.586  52.681  0.00  0.00     0.005 A 
ATOM     15  C   UNL d   1      49.473  34.736  51.962  0.00  0.00     0.002 A 
ATOM     16  C   UNL d   1      48.789  35.197  51.956  0.00  0.00     0.024 A 
ATOM     17  C   UNL d   1      48.487  35.507  52.661  0.00  0.00     0.094 A 
ATOM     18  C   UNL d   1      48.873  35.353  53.373  0.00  0.00     0.024 A 
ATOM     19  C   UNL d   1      49.558  34.893  53.388  0.00  0.00     0.002 A 
BRANCH  17  20
ATOM     20  O   UNL d   1      47.803  35.968  52.655  0.00  0.00    -0.328 OA
ATOM     21  C   UNL d   1      47.307  35.956  51.993  0.00  0.00     0.181 C 
ENDBRANCH  17  20
ENDBRANCH   7  14
BRANCH   3  22
ATOM     22  C   UNL d   1      52.578  31.980  52.397  0.00  0.00     0.085 C 
BRANCH  22  23
ATOM     23  N   UNL d   1      52.671  31.332  52.912  0.00  0.00    -0.302 N 
ATOM     24  C   UNL d   1      52.049  31.110  53.410  0.00  0.00     0.080 A 
ATOM     25  C   UNL d   1      52.144  30.471  53.916  0.00  0.00     0.019 A 
ATOM     26  C   UNL d   1      52.860  30.049  53.928  0.00  0.00     0.003 A 
ATOM     27  C   UNL d   1      53.476  30.272  53.431  0.00  0.00     0.019 A 
ATOM     28  C   UNL d   1      53.388  30.914  52.920  0.00  0.00     0.080 A 
ENDBRANCH  22  23
ENDBRANCH   3  22
BRANCH   4  29
ATOM     29  C   UNL d   1      54.007  34.129  53.634  0.00  0.00     0.087 C 
BRANCH  29  30
ATOM     30  N   UNL d   1      54.241  33.930  54.401  0.00  0.00    -0.302 N 
ATOM     31  C   UNL d   1      53.729  34.057  55.036  0.00  0.00     0.080 A 
ATOM     32  C   UNL d   1      53.962  33.859  55.803  0.00  0.00     0.019 A 
ATOM     33  C   UNL d   1      54.712  33.531  55.936  0.00  0.00     0.003 A 
ATOM     34  C   UNL d   1      55.224  33.404  55.301  0.00  0.00     0.019 A 
ATOM     35  C   UNL d   1      54.990  33.603  54.534  0.00  0.00     0.080 A 
ENDBRANCH  29  30
ENDBRANCH   4  29
TORSDOF 6
ENDMDL
MODEL 3
REMARK VINA RESULT:      -5.6      1.452      4.470
REMARK  6 active torsions:
REMARK  status: ('A' for Active; 'I' for Inactive)
REMARK    1  A    between atoms: C_11  and  C_3 
REMARK    2  A    between atoms: C_12  and  C_4 
REMARK    3  A    between atoms: C_13  and  C_7 
REMARK    4  A    between atoms: N_15  and  C_11 
REMARK    5  A    between atoms: N_14  and  C_12 
REMARK    6  A    between atoms: O_24  and  C_21 
ROOT
ATOM      1  C   UNL d   1      52.667  32.659  53.042  0.00  0.00     0.101 A 
ATOM      2  C   UNL d   1      53.224  33.161  53.388  0.00  0.00     0.111 A 
ATOM      3  C   UNL d   1      53.208  33.971  53.228  0.00  0.00     0.080 A 
ATOM      4  C   UNL d   1      52.080  33.768  52.379  0.00  0.00     0.096 A 
ATOM      5  C   UNL d   1      52.690  31.845  53.208  0.00  0.00     0.203 A 
ATOM      6  C   UNL d   1      52.095  32.968  52.537  0.00  0.00     0.205 A 
ATOM      7  C   UNL d   1      53.264  31.539  53.715  0.00  0.00     0.064 A 
ATOM      8  C   UNL d   1      52.637  34.270  52.726  0.00  0.00     0.203 A 
ATOM      9  O   UNL d   1      53.807  32.862  53.901  0.00  0.00    -0.305 OA
ATOM     10  C   UNL d   1      53.827  32.046  54.065  0.00  0.00     0.126 A 
ATOM     11  O   UNL d   1      52.138  31.348  52.865  0.00  0.00    -0.286 OA
ATOM     12  O   UNL d   1      51.538  32.466  52.190  0.00  0.00    -0.286 OA
ATOM     13  O   UNL d   1      52.617  35.087  52.561  0.00  0.00    -0.286 OA
ENDROOT
BRANCH   7  14
ATOM     14  C   UNL d   1      53.280  30.729  53.875  0.00  0.00     0.005 A 
ATOM     15  C   UNL d   1      53.010  30.456  54.609  0.00  0.00     0.002 A 
ATOM     16  C   UNL d   1      53.026  29.647  54.770  0.00  0.00     0.024 A 
ATOM     17  C   UNL d   1      53.309  29.114  54.204  0.00  0.00     0.094 A 
ATOM     18  C   UNL d   1      53.576  29.394  53.476  0.00  0.00     0.024 A 
ATOM     19  C   UNL d   1      53.564  30.200  53.307  0.00  0.00     0.002 A 
BRANCH  17  20
ATOM     20  O   UNL d   1      53.324  28.305  54.365  0.00  0.00    -0.328 OA
ATOM     21  C   UNL d   1      53.687  28.032  55.056  0.00  0.00     0.181 C 
ENDBRANCH  17  20
ENDBRANCH   7  14
BRANCH   3  22
ATOM     22  C   UNL d   1      53.769  34.466  53.579  0.00  0.00     0.085 C 
BRANCH  22  23
ATOM     23  N   UNL d   1      53.545  34.937  54.229  0.00  0.00    -0.302 N 
ATOM     24  C   UNL d   1      53.441  34.589  54.972  0.00  0.00     0.080 A 
ATOM     25  C   UNL d   1      53.221  35.056  55.610  0.00  0.00     0.019 A 
ATOM     26  C   UNL d   1      53.103  35.872  55.510  0.00  0.00     0.003 A 
ATOM     27  C   UNL d   1      53.207  36.214  54.770  0.00  0.00     0.019 A 
ATOM     28  C   UNL d   1      53.429  35.751  54.124  0.00  0.00     0.080 A 
ENDBRANCH  22  23
ENDBRANCH   3  22
BRANCH   4  29
ATOM     29  C   UNL d   1      51.505  34.074  51.872  0.00  0.00     0.087 C 
BRANCH  29  30
ATOM     30  N   UNL d   1      50.759  34.274  52.164  0.00  0.00    -0.302 N 
ATOM     31  C   UNL d   1      50.669  34.499  52.953  0.00  0.00     0.080 A 
ATOM     32  C   UNL d   1      49.923  34.698  53.245  0.00  0.00     0.019 A 
ATOM     33  C   UNL d   1      49.262  34.672  52.745  0.00  0.00     0.003 A 
ATOM     34  C   UNL d   1      49.352  34.447  51.956  0.00  0.00     0.019 A 
ATOM     35  C   UNL d   1      50.098  34.248  51.664  0.00  0.00     0.080 A 
ENDBRANCH  29  30
ENDBRANCH   4  29
TORSDOF 6
ENDMDL
MODEL 4
REMARK VINA RESULT:      -5.6      1.493      5.062
REMARK  6 active torsions:
REMARK  status: ('A' for Active; 'I' for Inactive)
REMARK    1  A    between atoms: C_11  and  C_3 
REMARK    2  A    between atoms: C_12  and  C_4 
REMARK    3  A    between atoms: C_13  and  C_7 
REMARK    4  A    between atoms: N_15  and  C_11 
REMARK    5  A    between atoms: N_14  and  C_12 
REMARK    6  A    between atoms: O_24  and  C_21 
ROOT
ATOM      1  C   UNL d   1      53.162  32.508  53.432  0.00  0.00     0.101 A 
ATOM      2  C   UNL d   1      52.542  32.603  52.896  0.00  0.00     0.111 A 
ATOM      3  C   UNL d   1      52.354  33.354  52.609  0.00  0.00     0.080 A 
ATOM      4  C   UNL d   1      53.408  33.905  53.396  0.00  0.00     0.096 A 
ATOM      5  C   UNL d   1      53.346  31.749  53.717  0.00  0.00     0.203 A 
ATOM      6  C   UNL d   1      53.594  33.164  53.680  0.00  0.00     0.205 A 
ATOM      7  C   UNL d   1      52.911  31.094  53.467  0.00  0.00     0.064 A 
ATOM      8  C   UNL d   1      52.787  34.000  52.859  0.00  0.00     0.203 A 
ATOM      9  O   UNL d   1      52.098  31.949  52.638  0.00  0.00    -0.305 OA
ATOM     10  C   UNL d   1      52.283  31.190  52.925  0.00  0.00     0.126 A 
ATOM     11  O   UNL d   1      53.961  31.655  54.248  0.00  0.00    -0.286 OA
ATOM     12  O   UNL d   1      54.215  33.069  54.216  0.00  0.00    -0.286 OA
ATOM     13  O   UNL d   1      52.601  34.760  52.572  0.00  0.00    -0.286 OA
ENDROOT
BRANCH   7  14
ATOM     14  C   UNL d   1      53.099  30.343  53.754  0.00  0.00     0.005 A 
ATOM     15  C   UNL d   1      52.762  30.086  54.466  0.00  0.00     0.002 A 
ATOM     16  C   UNL d   1      52.949  29.336  54.754  0.00  0.00     0.024 A 
ATOM     17  C   UNL d   1      53.467  28.845  54.336  0.00  0.00     0.094 A 
ATOM     18  C   UNL d   1      53.798  29.108  53.628  0.00  0.00     0.024 A 
ATOM     19  C   UNL d   1      53.616  29.856  53.333  0.00  0.00     0.002 A 
BRANCH  17  20
ATOM     20  O   UNL d   1      53.655  28.095  54.624  0.00  0.00    -0.328 OA
ATOM     21  C   UNL d   1      53.629  27.951  55.438  0.00  0.00     0.181 C 
ENDBRANCH  17  20
ENDBRANCH   7  14
BRANCH   3  22
ATOM     22  C   UNL d   1      51.731  33.440  52.073  0.00  0.00     0.085 C 
BRANCH  22  23
ATOM     23  N   UNL d   1      51.026  33.806  52.324  0.00  0.00    -0.302 N 
ATOM     24  C   UNL d   1      50.693  33.598  53.052  0.00  0.00     0.080 A 
ATOM     25  C   UNL d   1      49.998  33.960  53.298  0.00  0.00     0.019 A 
ATOM     26  C   UNL d   1      49.632  34.531  52.818  0.00  0.00     0.003 A 
ATOM     27  C   UNL d   1      49.967  34.735  52.095  0.00  0.00     0.019 A 
ATOM     28  C   UNL d   1      50.665  34.375  51.842  0.00  0.00     0.080 A 
ENDBRANCH  22  23
ENDBRANCH   3  22
BRANCH   4  29
ATOM     29  C   UNL d   1      53.843  34.561  53.646  0.00  0.00     0.087 C 
BRANCH  29  30
ATOM     30  N   UNL d   1      53.552  35.045  54.249  0.00  0.00    -0.302 N 
ATOM     31  C   UNL d   1      53.492  34.756  55.019  0.00  0.00     0.080 A 
ATOM     32  C   UNL d   1      53.201  35.240  55.622  0.00  0.00     0.019 A 
ATOM     33  C   UNL d   1      52.970  36.018  55.453  0.00  0.00     0.003 A 
ATOM     34  C   UNL d   1      53.030  36.307  54.682  0.00  0.00     0.019 A 
ATOM     35  C   UNL d   1      53.321  35.822  54.080  0.00  0.00     0.080 A 
ENDBRANCH  29  30
ENDBRANCH   4  29
TORSDOF 6
ENDMDL
