MODEL 1
REMARK VINA RESULT:      21.0      0.000      0.000
REMARK  3 active torsions:
REMARK  status: ('A' for Active; 'I' for Inactive)
REMARK    1  A    between atoms: S_2  and  C_1 
REMARK    2  A    between atoms: C_8  and  S_2 
REMARK    3  A    between atoms: C_20  and  C_13 
ROOT
ATOM      1  C   UNL d   1      46.097 -17.668  43.573  0.00  0.00     0.151 A 
ATOM      2  C   UNL d   1      46.232 -18.259  44.146  0.00  0.00     0.311 A 
ATOM      3  C   UNL d   1      46.135 -17.863  42.774  0.00  0.00     0.019 A 
ATOM      4  O   UNL d   1      46.403 -19.032  43.908  0.00  0.00    -0.273 OA
ATOM      5  C   UNL d   1      46.303 -18.628  42.534  0.00  0.00     0.024 A 
ATOM      6  C   UNL d   1      46.438 -19.219  43.106  0.00  0.00     0.103 A 
ATOM      7  O   UNL d   1      46.196 -18.070  44.955  0.00  0.00    -0.258 OA
ATOM      8  C   UNL d   1      46.340 -18.820  41.739  0.00  0.00     0.009 A 
ATOM      9  C   UNL d   1      46.608 -19.989  42.872  0.00  0.00     0.025 A 
ATOM     10  C   UNL d   1      46.510 -19.591  41.492  0.00  0.00     0.035 A 
ATOM     11  C   UNL d   1      46.645 -20.182  42.065  0.00  0.00     0.009 A 
ATOM     12 BR   UNL d   1      46.546 -19.782  40.679  0.00  0.00    -0.049 Br
ENDROOT
BRANCH   1  13
ATOM     13  S   UNL d   1      45.928 -16.898  43.819  0.00  0.00     0.215 S 
ATOM     14  O   UNL d   1      46.330 -17.027  44.530  0.00  0.00    -0.217 OA
ATOM     15  O   UNL d   1      45.521 -16.764  43.103  0.00  0.00    -0.217 OA
BRANCH  13  16
ATOM     16  C   UNL d   1      45.753 -16.125  44.057  0.00  0.00     0.088 A 
ATOM     17  C   UNL d   1      46.059 -15.478  43.635  0.00  0.00     0.011 A 
ATOM     18  C   UNL d   1      45.885 -14.709  43.874  0.00  0.00     0.001 A 
ATOM     19  C   UNL d   1      45.406 -14.576  44.532  0.00  0.00     0.000 A 
ATOM     20  C   UNL d   1      45.100 -15.219  44.953  0.00  0.00     0.001 A 
ATOM     21  C   UNL d   1      45.275 -15.988  44.715  0.00  0.00     0.011 A 
BRANCH  19  22
ATOM     22  C   UNL d   1      45.232 -13.799  44.769  0.00  0.00     0.000 C 
ATOM     23  C   UNL d   1      45.836 -13.260  44.870  0.00  0.00     0.000 C 
ATOM     24  C   UNL d   1      44.449 -13.576  44.901  0.00  0.00     0.000 C 
ENDBRANCH  19  22
ENDBRANCH  13  16
ENDBRANCH   1  13
TORSDOF 3
ENDMDL
MODEL 2
REMARK VINA RESULT:      21.5      1.958      4.883
REMARK  3 active torsions:
REMARK  status: ('A' for Active; 'I' for Inactive)
REMARK    1  A    between atoms: S_2  and  C_1 
REMARK    2  A    between atoms: C_8  and  S_2 
REMARK    3  A    between atoms: C_20  and  C_13 
ROOT
ATOM      1  C   UNL d   1      45.461 -15.611  44.336  0.00  0.00     0.151 A 
ATOM      2  C   UNL d   1      44.748 -15.485  44.749  0.00  0.00     0.311 A 
ATOM      3  C   UNL d   1      45.931 -14.966  44.136  0.00  0.00     0.019 A 
ATOM      4  O   UNL d   1      44.520 -14.717  44.954  0.00  0.00    -0.273 OA
ATOM      5  C   UNL d   1      45.710 -14.203  44.337  0.00  0.00     0.024 A 
ATOM      6  C   UNL d   1      44.997 -14.077  44.750  0.00  0.00     0.103 A 
ATOM      7  O   UNL d   1      44.267 -16.131  44.955  0.00  0.00    -0.258 OA
ATOM      8  C   UNL d   1      46.179 -13.562  44.137  0.00  0.00     0.009 A 
ATOM      9  C   UNL d   1      44.768 -13.314  44.955  0.00  0.00     0.025 A 
ATOM     10  C   UNL d   1      45.959 -12.791  44.338  0.00  0.00     0.035 A 
ATOM     11  C   UNL d   1      45.246 -12.666  44.751  0.00  0.00     0.009 A 
ATOM     12 BR   UNL d   1      46.442 -12.140  44.131  0.00  0.00    -0.049 Br
ENDROOT
BRANCH   1  13
ATOM     13  S   UNL d   1      45.681 -16.381  44.135  0.00  0.00     0.215 S 
ATOM     14  O   UNL d   1      46.228 -16.396  44.756  0.00  0.00    -0.217 OA
ATOM     15  O   UNL d   1      45.132 -16.369  43.508  0.00  0.00    -0.217 OA
BRANCH  13  16
ATOM     16  C   UNL d   1      45.896 -17.152  43.926  0.00  0.00     0.088 A 
ATOM     17  C   UNL d   1      45.917 -17.380  43.128  0.00  0.00     0.011 A 
ATOM     18  C   UNL d   1      46.130 -18.149  42.922  0.00  0.00     0.001 A 
ATOM     19  C   UNL d   1      46.325 -18.697  43.506  0.00  0.00     0.000 A 
ATOM     20  C   UNL d   1      46.305 -18.472  44.302  0.00  0.00     0.001 A 
ATOM     21  C   UNL d   1      46.092 -17.704  44.508  0.00  0.00     0.011 A 
BRANCH  19  22
ATOM     22  C   UNL d   1      46.540 -19.471  43.294  0.00  0.00     0.000 C 
ATOM     23  C   UNL d   1      46.647 -19.663  42.509  0.00  0.00     0.000 C 
ATOM     24  C   UNL d   1      46.645 -20.042  43.881  0.00  0.00     0.000 C 
ENDBRANCH  19  22
ENDBRANCH  13  16
ENDBRANCH   1  13
TORSDOF 3
ENDMDL
