MODEL 1
REMARK VINA RESULT:      92.0      0.000      0.000
REMARK  2 active torsions:
REMARK  status: ('A' for Active; 'I' for Inactive)
REMARK    1  A    between atoms: C_2  and  C_5 
REMARK       I    between atoms: C_5  and  N_9 
REMARK    2  A    between atoms: N_9  and  C_15 
ROOT
ATOM      1  C   UNL d   1      60.804  48.121  50.374  0.00  0.00     0.304 C 
ATOM      2  N   UNL d   1      60.004  47.941  50.343  0.00  0.00    -0.206 NA
ATOM      3  O   UNL d   1      61.054  48.814  50.717  0.00  0.00    -0.263 OA
ENDROOT
BRANCH   1   4
ATOM      4  C   UNL d   1      61.359  47.606  50.060  0.00  0.00     0.182 A 
ATOM      5  O   UNL d   1      61.136  46.839  49.891  0.00  0.00    -0.298 OA
ATOM      6  C   UNL d   1      61.697  46.316  49.572  0.00  0.00     0.123 A 
ATOM      7  C   UNL d   1      61.480  45.539  49.399  0.00  0.00     0.027 A 
ATOM      8  C   UNL d   1      62.455  46.572  49.434  0.00  0.00     0.123 A 
ATOM      9  C   UNL d   1      62.040  45.028  49.084  0.00  0.00     0.002 A 
ATOM     10  C   UNL d   1      62.795  45.273  48.944  0.00  0.00     0.002 A 
ATOM     11  C   UNL d   1      63.012  46.050  49.117  0.00  0.00     0.027 A 
ATOM     12  O   UNL d   1      62.672  47.349  49.608  0.00  0.00    -0.301 OA
ATOM     13  C   UNL d   1      62.116  47.856  49.920  0.00  0.00     0.152 A 
ENDBRANCH   1   4
BRANCH   2  14
ATOM     14  C   UNL d   1      59.399  48.425  50.645  0.00  0.00     0.085 A 
ATOM     15  C   UNL d   1      59.476  48.936  51.297  0.00  0.00     0.021 A 
ATOM     16  C   UNL d   1      58.850  49.383  51.546  0.00  0.00     0.021 A 
ATOM     17  C   UNL d   1      58.144  49.346  51.172  0.00  0.00     0.088 A 
ATOM     18  C   UNL d   1      58.054  48.842  50.523  0.00  0.00     0.050 A 
ATOM     19  N   UNL d   1      57.408  49.707  51.265  0.00  0.00    -0.239 NA
ATOM     20  C   UNL d   1      58.677  48.374  50.249  0.00  0.00     0.027 A 
ATOM     21  S   UNL d   1      57.263  48.912  50.240  0.00  0.00    -0.066 SA
ATOM     22  C   UNL d   1      56.901  49.461  50.733  0.00  0.00     0.111 A 
ATOM     23  C   UNL d   1      56.104  49.699  50.650  0.00  0.00     0.028 C 
ENDBRANCH   2  14
TORSDOF 2
ENDMDL
