MODEL 1
REMARK VINA RESULT:      -5.1      0.000      0.000
REMARK  1 active torsions:
REMARK  status: ('A' for Active; 'I' for Inactive)
REMARK       I    between atoms: C_2  and  N_1 
REMARK    1  A    between atoms: C_4  and  C_2 
ROOT
ATOM      1  N   UNL d   1      57.193  -0.182  31.626  0.00  0.00    -0.273 N 
ATOM      2  C   UNL d   1      57.556  -0.502  30.932  0.00  0.00     0.271 C 
ATOM      3  C   UNL d   1      56.673  -0.557  32.143  0.00  0.00     0.067 A 
ATOM      4  C   UNL d   1      57.297   0.597  31.924  0.00  0.00     0.083 A 
ATOM      5  O   UNL d   1      57.383  -1.289  30.727  0.00  0.00    -0.266 OA
ATOM      6  C   UNL d   1      56.459  -0.034  32.742  0.00  0.00     0.018 A 
ATOM      7  C   UNL d   1      56.853   0.682  32.598  0.00  0.00     0.021 A 
ATOM      8  C   UNL d   1      56.375  -1.326  32.124  0.00  0.00     0.018 A 
ATOM      9  C   UNL d   1      55.945  -0.273  33.329  0.00  0.00     0.002 A 
ATOM     10  C   UNL d   1      55.858  -1.567  32.712  0.00  0.00     0.002 A 
ATOM     11  C   UNL d   1      55.631  -1.034  33.336  0.00  0.00     0.000 A 
ENDROOT
BRANCH   2  12
ATOM     12  C   UNL d   1      58.073  -0.036  30.472  0.00  0.00     0.086 A 
ATOM     13  S   UNL d   1      58.830   0.248  30.604  0.00  0.00    -0.082 SA
ATOM     14  C   UNL d   1      59.051   0.682  29.933  0.00  0.00     0.036 A 
ATOM     15  C   UNL d   1      58.447   0.674  29.385  0.00  0.00     0.008 A 
ATOM     16  C   UNL d   1      57.832   0.228  29.712  0.00  0.00     0.012 A 
ENDBRANCH   2  12
TORSDOF 1
ENDMDL
MODEL 2
REMARK VINA RESULT:      -4.5      1.202      3.206
REMARK  1 active torsions:
REMARK  status: ('A' for Active; 'I' for Inactive)
REMARK       I    between atoms: C_2  and  N_1 
REMARK    1  A    between atoms: C_4  and  C_2 
ROOT
ATOM      1  N   UNL d   1      57.163  -0.341  31.596  0.00  0.00    -0.273 N 
ATOM      2  C   UNL d   1      56.693  -0.774  32.151  0.00  0.00     0.271 C 
ATOM      3  C   UNL d   1      57.578  -0.636  30.948  0.00  0.00     0.067 A 
ATOM      4  C   UNL d   1      57.297   0.488  31.601  0.00  0.00     0.083 A 
ATOM      5  O   UNL d   1      56.627  -1.596  32.052  0.00  0.00    -0.266 OA
ATOM      6  C   UNL d   1      57.958  -0.015  30.562  0.00  0.00     0.018 A 
ATOM      7  C   UNL d   1      57.777   0.681  30.976  0.00  0.00     0.021 A 
ATOM      8  C   UNL d   1      57.645  -1.411  30.674  0.00  0.00     0.018 A 
ATOM      9  C   UNL d   1      58.409  -0.162  29.899  0.00  0.00     0.002 A 
ATOM     10  C   UNL d   1      58.098  -1.560  30.008  0.00  0.00     0.002 A 
ATOM     11  C   UNL d   1      58.495  -0.925  29.602  0.00  0.00     0.000 A 
ENDROOT
BRANCH   2  12
ATOM     12  C   UNL d   1      56.309  -0.378  32.778  0.00  0.00     0.086 A 
ATOM     13  S   UNL d   1      56.564   0.183  33.318  0.00  0.00    -0.082 SA
ATOM     14  C   UNL d   1      55.921   0.362  33.809  0.00  0.00     0.036 A 
ATOM     15  C   UNL d   1      55.269  -0.076  33.586  0.00  0.00     0.008 A 
ATOM     16  C   UNL d   1      55.503  -0.542  32.943  0.00  0.00     0.012 A 
ENDBRANCH   2  12
TORSDOF 1
ENDMDL
MODEL 3
REMARK VINA RESULT:      -4.1      1.125      1.363
REMARK  1 active torsions:
REMARK  status: ('A' for Active; 'I' for Inactive)
REMARK       I    between atoms: C_2  and  N_1 
REMARK    1  A    between atoms: C_4  and  C_2 
ROOT
ATOM      1  N   UNL d   1      57.785  -0.469  30.781  0.00  0.00    -0.273 N 
ATOM      2  C   UNL d   1      57.955  -1.042  30.182  0.00  0.00     0.271 C 
ATOM      3  C   UNL d   1      57.281  -0.548  31.428  0.00  0.00     0.067 A 
ATOM      4  C   UNL d   1      58.107   0.306  30.830  0.00  0.00     0.083 A 
ATOM      5  O   UNL d   1      57.579  -1.782  30.231  0.00  0.00    -0.266 OA
ATOM      6  C   UNL d   1      57.287   0.150  31.865  0.00  0.00     0.018 A 
ATOM      7  C   UNL d   1      57.804   0.676  31.485  0.00  0.00     0.021 A 
ATOM      8  C   UNL d   1      56.819  -1.190  31.659  0.00  0.00     0.018 A 
ATOM      9  C   UNL d   1      56.830   0.214  32.538  0.00  0.00     0.002 A 
ATOM     10  C   UNL d   1      56.359  -1.127  32.335  0.00  0.00     0.002 A 
ATOM     11  C   UNL d   1      56.358  -0.410  32.794  0.00  0.00     0.000 A 
ENDROOT
BRANCH   2  12
ATOM     12  C   UNL d   1      58.485  -0.863  29.563  0.00  0.00     0.086 A 
ATOM     13  S   UNL d   1      58.482  -0.286  28.980  0.00  0.00    -0.082 SA
ATOM     14  C   UNL d   1      59.166  -0.393  28.525  0.00  0.00     0.036 A 
ATOM     15  C   UNL d   1      59.596  -1.025  28.812  0.00  0.00     0.008 A 
ATOM     16  C   UNL d   1      59.178  -1.324  29.460  0.00  0.00     0.012 A 
ENDBRANCH   2  12
TORSDOF 1
ENDMDL
MODEL 4
REMARK VINA RESULT:      -3.3      9.470     10.137
REMARK  1 active torsions:
REMARK  status: ('A' for Active; 'I' for Inactive)
REMARK       I    between atoms: C_2  and  N_1 
REMARK    1  A    between atoms: C_4  and  C_2 
ROOT
ATOM      1  N   UNL d   1      59.739  -9.288  33.668  0.00  0.00    -0.273 N 
ATOM      2  C   UNL d   1      60.235  -9.072  34.319  0.00  0.00     0.271 C 
ATOM      3  C   UNL d   1      59.965  -9.446  32.892  0.00  0.00     0.067 A 
ATOM      4  C   UNL d   1      58.905  -9.385  33.693  0.00  0.00     0.083 A 
ATOM      5  O   UNL d   1      61.053  -9.003  34.183  0.00  0.00    -0.266 OA
ATOM      6  C   UNL d   1      59.298  -9.634  32.447  0.00  0.00     0.018 A 
ATOM      7  C   UNL d   1      58.643  -9.594  32.954  0.00  0.00     0.021 A 
ATOM      8  C   UNL d   1      60.715  -9.435  32.550  0.00  0.00     0.018 A 
ATOM      9  C   UNL d   1      59.374  -9.814  31.655  0.00  0.00     0.002 A 
ATOM     10  C   UNL d   1      60.792  -9.615  31.754  0.00  0.00     0.002 A 
ATOM     11  C   UNL d   1      60.109  -9.812  31.285  0.00  0.00     0.000 A 
ENDROOT
BRANCH   2  12
ATOM     12  C   UNL d   1      59.906  -8.932  35.073  0.00  0.00     0.086 A 
ATOM     13  S   UNL d   1      59.674  -9.434  35.679  0.00  0.00    -0.082 SA
ATOM     14  C   UNL d   1      59.386  -8.960  36.294  0.00  0.00     0.036 A 
ATOM     15  C   UNL d   1      59.434  -8.172  36.086  0.00  0.00     0.008 A 
ATOM     16  C   UNL d   1      59.757  -8.146  35.325  0.00  0.00     0.012 A 
ENDBRANCH   2  12
TORSDOF 1
ENDMDL
MODEL 5
REMARK VINA RESULT:      -3.1      1.751      2.508
REMARK  1 active torsions:
REMARK  status: ('A' for Active; 'I' for Inactive)
REMARK       I    between atoms: C_2  and  N_1 
REMARK    1  A    between atoms: C_4  and  C_2 
ROOT
ATOM      1  N   UNL d   1      56.230   0.368  33.390  0.00  0.00    -0.273 N 
ATOM      2  C   UNL d   1      57.033   0.342  33.122  0.00  0.00     0.271 C 
ATOM      3  C   UNL d   1      55.958   0.476  34.161  0.00  0.00     0.067 A 
ATOM      4  C   UNL d   1      55.546   0.285  32.911  0.00  0.00     0.083 A 
ATOM      5  O   UNL d   1      57.637   0.436  33.685  0.00  0.00    -0.266 OA
ATOM      6  C   UNL d   1      55.135   0.462  34.163  0.00  0.00     0.018 A 
ATOM      7  C   UNL d   1      54.887   0.342  33.381  0.00  0.00     0.021 A 
ATOM      8  C   UNL d   1      56.384   0.586  34.858  0.00  0.00     0.018 A 
ATOM      9  C   UNL d   1      54.728   0.557  34.863  0.00  0.00     0.002 A 
ATOM     10  C   UNL d   1      55.976   0.682  35.562  0.00  0.00     0.002 A 
ATOM     11  C   UNL d   1      55.124   0.669  35.576  0.00  0.00     0.000 A 
ENDROOT
BRANCH   2  12
ATOM     12  C   UNL d   1      57.205   0.227  32.314  0.00  0.00     0.086 A 
ATOM     13  S   UNL d   1      56.879  -0.262  31.742  0.00  0.00    -0.082 SA
ATOM     14  C   UNL d   1      57.292  -0.124  31.037  0.00  0.00     0.036 A 
ATOM     15  C   UNL d   1      57.868   0.441  31.157  0.00  0.00     0.008 A 
ATOM     16  C   UNL d   1      57.822   0.666  31.952  0.00  0.00     0.012 A 
ENDBRANCH   2  12
TORSDOF 1
ENDMDL
MODEL 6
REMARK VINA RESULT:      -2.7      3.084      4.471
REMARK  1 active torsions:
REMARK  status: ('A' for Active; 'I' for Inactive)
REMARK       I    between atoms: C_2  and  N_1 
REMARK    1  A    between atoms: C_4  and  C_2 
ROOT
ATOM      1  N   UNL d   1      59.444  -1.691  29.047  0.00  0.00    -0.273 N 
ATOM      2  C   UNL d   1      59.640  -0.883  29.206  0.00  0.00     0.271 C 
ATOM      3  C   UNL d   1      59.947  -2.343  29.050  0.00  0.00     0.067 A 
ATOM      4  C   UNL d   1      58.682  -1.985  28.852  0.00  0.00     0.083 A 
ATOM      5  O   UNL d   1      60.430  -0.701  29.390  0.00  0.00    -0.266 OA
ATOM      6  C   UNL d   1      59.517  -3.020  28.864  0.00  0.00     0.018 A 
ATOM      7  C   UNL d   1      58.730  -2.788  28.742  0.00  0.00     0.021 A 
ATOM      8  C   UNL d   1      60.756  -2.383  29.205  0.00  0.00     0.018 A 
ATOM      9  C   UNL d   1      59.890  -3.745  28.831  0.00  0.00     0.002 A 
ATOM     10  C   UNL d   1      61.133  -3.110  29.172  0.00  0.00     0.002 A 
ATOM     11  C   UNL d   1      60.696  -3.816  28.980  0.00  0.00     0.000 A 
ENDROOT
BRANCH   2  12
ATOM     12  C   UNL d   1      59.053  -0.292  29.177  0.00  0.00     0.086 A 
ATOM     13  S   UNL d   1      58.665   0.075  28.555  0.00  0.00    -0.082 SA
ATOM     14  C   UNL d   1      58.135   0.622  28.883  0.00  0.00     0.036 A 
ATOM     15  C   UNL d   1      58.184   0.604  29.697  0.00  0.00     0.008 A 
ATOM     16  C   UNL d   1      58.754   0.036  29.890  0.00  0.00     0.012 A 
ENDBRANCH   2  12
TORSDOF 1
ENDMDL
MODEL 7
REMARK VINA RESULT:      -2.2      2.076      3.799
REMARK  1 active torsions:
REMARK  status: ('A' for Active; 'I' for Inactive)
REMARK       I    between atoms: C_2  and  N_1 
REMARK    1  A    between atoms: C_4  and  C_2 
ROOT
ATOM      1  N   UNL d   1      56.598   0.672  33.100  0.00  0.00    -0.273 N 
ATOM      2  C   UNL d   1      55.756   0.671  33.014  0.00  0.00     0.271 C 
ATOM      3  C   UNL d   1      57.166   0.676  32.503  0.00  0.00     0.067 A 
ATOM      4  C   UNL d   1      57.021   0.671  33.825  0.00  0.00     0.083 A 
ATOM      5  O   UNL d   1      55.440   0.673  32.245  0.00  0.00    -0.266 OA
ATOM      6  C   UNL d   1      57.917   0.676  32.842  0.00  0.00     0.018 A 
ATOM      7  C   UNL d   1      57.817   0.673  33.665  0.00  0.00     0.021 A 
ATOM      8  C   UNL d   1      57.069   0.678  31.684  0.00  0.00     0.018 A 
ATOM      9  C   UNL d   1      58.579   0.679  32.366  0.00  0.00     0.002 A 
ATOM     10  C   UNL d   1      57.734   0.681  31.205  0.00  0.00     0.002 A 
ATOM     11  C   UNL d   1      58.515   0.682  31.546  0.00  0.00     0.000 A 
ENDROOT
BRANCH   2  12
ATOM     12  C   UNL d   1      55.262   0.667  33.687  0.00  0.00     0.086 A 
ATOM     13  S   UNL d   1      55.421   0.681  34.491  0.00  0.00    -0.082 SA
ATOM     14  C   UNL d   1      54.693   0.669  34.886  0.00  0.00     0.036 A 
ATOM     15  C   UNL d   1      54.082   0.647  34.345  0.00  0.00     0.008 A 
ATOM     16  C   UNL d   1      54.429   0.646  33.594  0.00  0.00     0.012 A 
ENDBRANCH   2  12
TORSDOF 1
ENDMDL
