MODEL 1
REMARK VINA RESULT:      -9.5      0.000      0.000
REMARK  4 active torsions:
REMARK  status: ('A' for Active; 'I' for Inactive)
REMARK    1  A    between atoms: C_7  and  C_1 
REMARK    2  A    between atoms: C_8  and  C_3 
REMARK    3  A    between atoms: C_10  and  C_6 
REMARK    4  A    between atoms: C_9  and  C_8 
ROOT
ATOM      1  C   UNL d   1     -47.236  13.373  22.644  0.00  0.00     0.293 A 
ATOM      2  N   UNL d   1     -46.779  12.806  23.045  0.00  0.00    -0.223 N 
ATOM      3  C   UNL d   1     -48.047  13.226  22.497  0.00  0.00     0.113 A 
ATOM      4  C   UNL d   1     -47.134  12.092  23.298  0.00  0.00     0.356 A 
ATOM      5  N   UNL d   1     -47.946  11.943  23.151  0.00  0.00    -0.192 NA
ATOM      6  C   UNL d   1     -48.402  12.510  22.750  0.00  0.00     0.094 A 
ATOM      7  O   UNL d   1     -46.664  11.534  23.697  0.00  0.00    -0.244 OA
ATOM      8  O   UNL d   1     -47.514  14.050  22.238  0.00  0.00    -0.267 OA
ATOM      9  C   UNL d   1     -45.985  12.942  23.193  0.00  0.00     0.106 C 
ENDROOT
BRANCH   3  10
ATOM     10  C   UNL d   1     -48.503  13.793  22.096  0.00  0.00     0.207 C 
ATOM     11  O   UNL d   1     -48.691  13.690  21.301  0.00  0.00    -0.286 OA
BRANCH  10  12
ATOM     12  C   UNL d   1     -48.774  14.473  22.504  0.00  0.00     0.069 A 
ATOM     13  S   UNL d   1     -48.901  14.636  23.307  0.00  0.00    -0.083 SA
ATOM     14  C   UNL d   1     -49.175  15.416  23.362  0.00  0.00     0.035 A 
ATOM     15  C   UNL d   1     -49.228  15.758  22.630  0.00  0.00     0.008 A 
ATOM     16  C   UNL d   1     -48.981  15.180  22.083  0.00  0.00     0.010 A 
ENDBRANCH  10  12
ENDBRANCH   3  10
BRANCH   1  17
ATOM     17  C   UNL d   1     -46.487  13.702  22.686  0.00  0.00     0.469 C 
ATOM     18  F   UNL d   1     -46.334  13.995  23.276  0.00  0.00    -0.162 F 
ATOM     19  F   UNL d   1     -45.714  14.035  22.713  0.00  0.00    -0.162 F 
ATOM     20  F   UNL d   1     -46.025  13.671  22.109  0.00  0.00    -0.162 F 
ENDBRANCH   1  17
BRANCH   6  21
ATOM     21  C   UNL d   1     -49.194  12.368  22.605  0.00  0.00     0.021 A 
ATOM     22  C   UNL d   1     -49.726  12.324  23.226  0.00  0.00     0.043 A 
ATOM     23  C   UNL d   1     -50.533  12.179  23.077  0.00  0.00     0.196 A 
ATOM     24  O   UNL d   1     -51.058  12.136  23.698  0.00  0.00    -0.287 OA
ATOM     25  C   UNL d   1     -50.789  12.081  22.310  0.00  0.00     0.042 A 
ATOM     26  C   UNL d   1     -50.261  12.124  21.686  0.00  0.00     0.003 A 
ATOM     27  C   UNL d   1     -49.465  12.267  21.834  0.00  0.00     0.002 A 
ENDBRANCH   6  21
TORSDOF 4
ENDMDL
MODEL 2
REMARK VINA RESULT:      -8.7      1.403      2.340
REMARK  4 active torsions:
REMARK  status: ('A' for Active; 'I' for Inactive)
REMARK    1  A    between atoms: C_7  and  C_1 
REMARK    2  A    between atoms: C_8  and  C_3 
REMARK    3  A    between atoms: C_10  and  C_6 
REMARK    4  A    between atoms: C_9  and  C_8 
ROOT
ATOM      1  C   UNL d   1     -47.302  13.490  22.305  0.00  0.00     0.293 A 
ATOM      2  N   UNL d   1     -46.845  14.156  22.498  0.00  0.00    -0.223 N 
ATOM      3  C   UNL d   1     -48.133  13.564  22.226  0.00  0.00     0.113 A 
ATOM      4  C   UNL d   1     -47.218  14.897  22.612  0.00  0.00     0.356 A 
ATOM      5  N   UNL d   1     -48.048  14.973  22.532  0.00  0.00    -0.192 NA
ATOM      6  C   UNL d   1     -48.506  14.307  22.339  0.00  0.00     0.094 A 
ATOM      7  O   UNL d   1     -46.746  15.554  22.804  0.00  0.00    -0.244 OA
ATOM      8  O   UNL d   1     -47.576  12.724  22.113  0.00  0.00    -0.267 OA
ATOM      9  C   UNL d   1     -46.032  14.093  22.578  0.00  0.00     0.106 C 
ENDROOT
BRANCH   3  10
ATOM     10  C   UNL d   1     -48.590  12.898  22.033  0.00  0.00     0.207 C 
ATOM     11  O   UNL d   1     -48.903  12.813  21.276  0.00  0.00    -0.286 OA
BRANCH  10  12
ATOM     12  C   UNL d   1     -48.734  12.310  22.612  0.00  0.00     0.069 A 
ATOM     13  S   UNL d   1     -48.843  12.342  23.434  0.00  0.00    -0.083 SA
ATOM     14  C   UNL d   1     -48.964  11.567  23.698  0.00  0.00     0.035 A 
ATOM     15  C   UNL d   1     -48.936  11.040  23.083  0.00  0.00     0.008 A 
ATOM     16  C   UNL d   1     -48.793  11.492  22.397  0.00  0.00     0.010 A 
ENDBRANCH  10  12
ENDBRANCH   3  10
BRANCH   1  17
ATOM     17  C   UNL d   1     -46.533  13.211  22.335  0.00  0.00     0.469 C 
ATOM     18  F   UNL d   1     -46.285  13.118  22.957  0.00  0.00    -0.162 F 
ATOM     19  F   UNL d   1     -45.741  12.925  22.348  0.00  0.00    -0.162 F 
ATOM     20  F   UNL d   1     -46.153  13.077  21.715  0.00  0.00    -0.162 F 
ENDBRANCH   1  17
BRANCH   6  21
ATOM     21  C   UNL d   1     -49.317  14.377  22.261  0.00  0.00     0.021 A 
ATOM     22  C   UNL d   1     -49.781  14.552  22.912  0.00  0.00     0.043 A 
ATOM     23  C   UNL d   1     -50.607  14.624  22.831  0.00  0.00     0.196 A 
ATOM     24  O   UNL d   1     -51.064  14.798  23.482  0.00  0.00    -0.287 OA
ATOM     25  C   UNL d   1     -50.950  14.519  22.100  0.00  0.00     0.042 A 
ATOM     26  C   UNL d   1     -50.490  14.344  21.446  0.00  0.00     0.003 A 
ATOM     27  C   UNL d   1     -49.675  14.274  21.527  0.00  0.00     0.002 A 
ENDBRANCH   6  21
TORSDOF 4
ENDMDL
MODEL 3
REMARK VINA RESULT:      -7.8      2.153      3.795
REMARK  4 active torsions:
REMARK  status: ('A' for Active; 'I' for Inactive)
REMARK    1  A    between atoms: C_7  and  C_1 
REMARK    2  A    between atoms: C_8  and  C_3 
REMARK    3  A    between atoms: C_10  and  C_6 
REMARK    4  A    between atoms: C_9  and  C_8 
ROOT
ATOM      1  C   UNL d   1     -49.463  13.794  22.049  0.00  0.00     0.293 A 
ATOM      2  N   UNL d   1     -49.668  14.591  22.167  0.00  0.00    -0.223 N 
ATOM      3  C   UNL d   1     -48.685  13.535  22.216  0.00  0.00     0.113 A 
ATOM      4  C   UNL d   1     -49.094  15.129  22.453  0.00  0.00     0.356 A 
ATOM      5  N   UNL d   1     -48.315  14.871  22.621  0.00  0.00    -0.192 NA
ATOM      6  C   UNL d   1     -48.110  14.075  22.503  0.00  0.00     0.094 A 
ATOM      7  O   UNL d   1     -49.315  15.922  22.566  0.00  0.00    -0.244 OA
ATOM      8  O   UNL d   1     -49.457  12.977  21.869  0.00  0.00    -0.267 OA
ATOM      9  C   UNL d   1     -50.427  14.852  22.006  0.00  0.00     0.106 C 
ENDROOT
BRANCH   3  10
ATOM     10  C   UNL d   1     -48.480  12.739  22.098  0.00  0.00     0.207 C 
ATOM     11  O   UNL d   1     -48.042  12.515  21.438  0.00  0.00    -0.286 OA
BRANCH  10  12
ATOM     12  C   UNL d   1     -48.720  12.160  22.654  0.00  0.00     0.069 A 
ATOM     13  S   UNL d   1     -48.969  12.206  23.445  0.00  0.00    -0.083 SA
ATOM     14  C   UNL d   1     -49.133  11.435  23.698  0.00  0.00     0.035 A 
ATOM     15  C   UNL d   1     -49.000  10.898  23.106  0.00  0.00     0.008 A 
ATOM     16  C   UNL d   1     -48.742  11.338  22.447  0.00  0.00     0.010 A 
ENDBRANCH  10  12
ENDBRANCH   3  10
BRANCH   1  17
ATOM     17  C   UNL d   1     -50.251  13.840  21.831  0.00  0.00     0.469 C 
ATOM     18  F   UNL d   1     -50.692  13.826  22.343  0.00  0.00    -0.162 F 
ATOM     19  F   UNL d   1     -51.057  13.887  21.591  0.00  0.00    -0.162 F 
ATOM     20  F   UNL d   1     -50.447  13.891  21.120  0.00  0.00    -0.162 F 
ENDBRANCH   1  17
BRANCH   6  21
ATOM     21  C   UNL d   1     -47.350  13.820  22.666  0.00  0.00     0.021 A 
ATOM     22  C   UNL d   1     -46.821  13.683  22.057  0.00  0.00     0.043 A 
ATOM     23  C   UNL d   1     -46.047  13.423  22.224  0.00  0.00     0.196 A 
ATOM     24  O   UNL d   1     -45.525  13.288  21.614  0.00  0.00    -0.287 OA
ATOM     25  C   UNL d   1     -45.820  13.308  22.998  0.00  0.00     0.042 A 
ATOM     26  C   UNL d   1     -46.345  13.445  23.610  0.00  0.00     0.003 A 
ATOM     27  C   UNL d   1     -47.109  13.700  23.444  0.00  0.00     0.002 A 
ENDBRANCH   6  21
TORSDOF 4
ENDMDL
MODEL 4
REMARK VINA RESULT:      -7.4      1.621      2.682
REMARK  4 active torsions:
REMARK  status: ('A' for Active; 'I' for Inactive)
REMARK    1  A    between atoms: C_7  and  C_1 
REMARK    2  A    between atoms: C_8  and  C_3 
REMARK    3  A    between atoms: C_10  and  C_6 
REMARK    4  A    between atoms: C_9  and  C_8 
ROOT
ATOM      1  C   UNL d   1     -48.405  12.047  22.692  0.00  0.00     0.293 A 
ATOM      2  N   UNL d   1     -48.967  11.574  23.080  0.00  0.00    -0.223 N 
ATOM      3  C   UNL d   1     -48.579  12.850  22.529  0.00  0.00     0.113 A 
ATOM      4  C   UNL d   1     -49.703  11.903  23.306  0.00  0.00     0.356 A 
ATOM      5  N   UNL d   1     -49.878  12.706  23.143  0.00  0.00    -0.192 NA
ATOM      6  C   UNL d   1     -49.316  13.180  22.755  0.00  0.00     0.094 A 
ATOM      7  O   UNL d   1     -50.254  11.416  23.693  0.00  0.00    -0.244 OA
ATOM      8  O   UNL d   1     -47.728  12.347  22.304  0.00  0.00    -0.267 OA
ATOM      9  C   UNL d   1     -48.806  10.787  23.243  0.00  0.00     0.106 C 
ENDROOT
BRANCH   3  10
ATOM     10  C   UNL d   1     -48.018  13.323  22.140  0.00  0.00     0.207 C 
ATOM     11  O   UNL d   1     -48.131  13.544  21.356  0.00  0.00    -0.286 OA
BRANCH  10  12
ATOM     12  C   UNL d   1     -47.333  13.578  22.550  0.00  0.00     0.069 A 
ATOM     13  S   UNL d   1     -47.151  13.647  23.357  0.00  0.00    -0.083 SA
ATOM     14  C   UNL d   1     -46.376  13.934  23.412  0.00  0.00     0.035 A 
ATOM     15  C   UNL d   1     -46.054  14.050  22.678  0.00  0.00     0.008 A 
ATOM     16  C   UNL d   1     -46.642  13.832  22.129  0.00  0.00     0.010 A 
ENDBRANCH  10  12
ENDBRANCH   3  10
BRANCH   1  17
ATOM     17  C   UNL d   1     -48.049  11.312  22.754  0.00  0.00     0.469 C 
ATOM     18  F   UNL d   1     -47.757  11.184  23.350  0.00  0.00    -0.162 F 
ATOM     19  F   UNL d   1     -47.688  10.553  22.801  0.00  0.00    -0.162 F 
ATOM     20  F   UNL d   1     -48.057  10.836  22.188  0.00  0.00    -0.162 F 
ENDBRANCH   1  17
BRANCH   6  21
ATOM     21  C   UNL d   1     -49.485  13.964  22.595  0.00  0.00     0.021 A 
ATOM     22  C   UNL d   1     -49.468  14.520  23.195  0.00  0.00     0.043 A 
ATOM     23  C   UNL d   1     -49.640  15.319  23.031  0.00  0.00     0.196 A 
ATOM     24  O   UNL d   1     -49.622  15.869  23.632  0.00  0.00    -0.287 OA
ATOM     25  C   UNL d   1     -49.823  15.542  22.270  0.00  0.00     0.042 A 
ATOM     26  C   UNL d   1     -49.841  14.990  21.666  0.00  0.00     0.003 A 
ATOM     27  C   UNL d   1     -49.672  14.202  21.830  0.00  0.00     0.002 A 
ENDBRANCH   6  21
TORSDOF 4
ENDMDL
