MODEL 1
REMARK VINA RESULT:      11.1      0.000      0.000
REMARK  0 active torsions:
REMARK  status: ('A' for Active; 'I' for Inactive)
ROOT
ATOM      1  C   UNL d   1     -59.304 -98.774 -44.016  0.00  0.00     0.282 A 
ATOM      2  N   UNL d   1     -59.794 -98.770 -44.682  0.00  0.00    -0.189 NA
ATOM      3  N   UNL d   1     -58.639 -98.756 -45.526  0.00  0.00    -0.227 NA
ATOM      4  C   UNL d   1     -58.486 -98.769 -44.106  0.00  0.00     0.076 A 
ATOM      5  C   UNL d   1     -59.462 -98.761 -45.437  0.00  0.00     0.166 A 
ATOM      6  C   UNL d   1     -58.154 -98.760 -44.861  0.00  0.00     0.088 A 
ATOM      7  O   UNL d   1     -59.636 -98.783 -43.261  0.00  0.00    -0.265 OA
ATOM      8  C   UNL d   1     -58.000 -98.773 -43.442  0.00  0.00     0.006 A 
ATOM      9  C   UNL d   1     -59.955 -98.757 -46.106  0.00  0.00     0.042 C 
ATOM     10  C   UNL d   1     -57.335 -98.755 -44.952  0.00  0.00     0.019 A 
ATOM     11  C   UNL d   1     -57.175 -98.768 -43.529  0.00  0.00     0.000 A 
ATOM     12  C   UNL d   1     -56.842 -98.759 -44.284  0.00  0.00     0.002 A 
ENDROOT
TORSDOF 0
ENDMDL
