MODEL 1
REMARK VINA RESULT:     -11.7      0.000      0.000
REMARK  1 active torsions:
REMARK  status: ('A' for Active; 'I' for Inactive)
REMARK    1  A    between atoms: C_10  and  N_2 
ROOT
ATOM      1  C   UNL d   1      52.625  32.716  53.222  0.00  0.00     0.759 A 
ATOM      2  N   UNL d   1      52.318  33.480  53.408  0.00  0.00    -0.103 N 
ATOM      3  N   UNL d   1      53.315  32.457  53.586  0.00  0.00    -0.038 N 
ATOM      4  C   UNL d   1      52.714  33.952  53.949  0.00  0.00     0.280 A 
ATOM      5  N   UNL d   1      52.355  32.124  52.709  0.00  0.00     0.066 NA
ATOM      6  C   UNL d   1      53.405  33.698  54.315  0.00  0.00     0.075 A 
ATOM      7  N   UNL d   1      53.477  31.682  53.288  0.00  0.00    -0.025 NA
ATOM      8  N   UNL d   1      52.893  31.491  52.761  0.00  0.00    -0.007 NA
ATOM      9  C   UNL d   1      53.713  32.933  54.130  0.00  0.00     0.107 A 
ATOM     10  O   UNL d   1      52.408  34.713  54.133  0.00  0.00    -0.266 OA
ATOM     11  C   UNL d   1      53.801  34.169  54.856  0.00  0.00     0.006 A 
ATOM     12  C   UNL d   1      54.403  32.675  54.494  0.00  0.00     0.020 A 
ATOM     13  C   UNL d   1      54.493  33.915  55.224  0.00  0.00     0.000 A 
ATOM     14  C   UNL d   1      54.801  33.150  55.038  0.00  0.00     0.002 A 
ENDROOT
BRANCH   2  15
ATOM     15  C   UNL d   1      51.632  33.736  53.045  0.00  0.00     0.084 A 
ATOM     16  C   UNL d   1      51.653  34.192  52.360  0.00  0.00     0.017 A 
ATOM     17  C   UNL d   1      52.307  34.381  52.058  0.00  0.00     0.002 C 
ATOM     18  C   UNL d   1      50.966  34.449  51.995  0.00  0.00     0.002 A 
ATOM     19  C   UNL d   1      50.221  34.242  52.327  0.00  0.00     0.000 A 
ATOM     20  C   UNL d   1      50.177  33.782  53.018  0.00  0.00     0.002 A 
ATOM     21  C   UNL d   1      50.888  33.529  53.377  0.00  0.00     0.018 A 
ENDBRANCH   2  15
TORSDOF 1
ENDMDL
MODEL 2
REMARK VINA RESULT:     -11.6      1.211      1.937
REMARK  1 active torsions:
REMARK  status: ('A' for Active; 'I' for Inactive)
REMARK    1  A    between atoms: C_10  and  N_2 
ROOT
ATOM      1  C   UNL d   1      52.594  34.746  54.050  0.00  0.00     0.759 A 
ATOM      2  N   UNL d   1      52.310  34.061  53.644  0.00  0.00    -0.103 N 
ATOM      3  N   UNL d   1      53.251  34.683  54.540  0.00  0.00    -0.038 N 
ATOM      4  C   UNL d   1      52.697  33.345  53.746  0.00  0.00     0.280 A 
ATOM      5  N   UNL d   1      52.326  35.530  54.059  0.00  0.00     0.066 NA
ATOM      6  C   UNL d   1      53.355  33.278  54.235  0.00  0.00     0.075 A 
ATOM      7  N   UNL d   1      53.394  35.453  54.861  0.00  0.00    -0.025 NA
ATOM      8  N   UNL d   1      52.832  35.955  54.565  0.00  0.00    -0.007 NA
ATOM      9  C   UNL d   1      53.638  33.963  54.641  0.00  0.00     0.107 A 
ATOM     10  O   UNL d   1      52.415  32.664  53.342  0.00  0.00    -0.266 OA
ATOM     11  C   UNL d   1      53.741  32.562  54.338  0.00  0.00     0.006 A 
ATOM     12  C   UNL d   1      54.295  33.900  55.131  0.00  0.00     0.020 A 
ATOM     13  C   UNL d   1      54.400  32.494  54.827  0.00  0.00     0.000 A 
ATOM     14  C   UNL d   1      54.683  33.179  55.233  0.00  0.00     0.002 A 
ENDROOT
BRANCH   2  15
ATOM     15  C   UNL d   1      51.658  34.125  53.158  0.00  0.00     0.084 A 
ATOM     16  C   UNL d   1      51.736  34.263  52.350  0.00  0.00     0.017 A 
ATOM     17  C   UNL d   1      52.414  34.333  52.048  0.00  0.00     0.002 C 
ATOM     18  C   UNL d   1      51.082  34.327  51.860  0.00  0.00     0.002 A 
ATOM     19  C   UNL d   1      50.312  34.250  52.190  0.00  0.00     0.000 A 
ATOM     20  C   UNL d   1      50.210  34.110  53.003  0.00  0.00     0.002 A 
ATOM     21  C   UNL d   1      50.888  34.047  53.487  0.00  0.00     0.018 A 
ENDBRANCH   2  15
TORSDOF 1
ENDMDL
MODEL 3
REMARK VINA RESULT:     -10.4      1.626      2.481
REMARK  1 active torsions:
REMARK  status: ('A' for Active; 'I' for Inactive)
REMARK    1  A    between atoms: C_10  and  N_2 
ROOT
ATOM      1  C   UNL d   1      53.234  32.690  54.066  0.00  0.00     0.759 A 
ATOM      2  N   UNL d   1      52.752  32.701  53.372  0.00  0.00    -0.103 N 
ATOM      3  N   UNL d   1      53.569  31.983  54.316  0.00  0.00    -0.038 N 
ATOM      4  C   UNL d   1      52.627  32.004  52.960  0.00  0.00     0.280 A 
ATOM      5  N   UNL d   1      53.458  33.293  54.590  0.00  0.00     0.066 NA
ATOM      6  C   UNL d   1      52.960  31.293  53.206  0.00  0.00     0.075 A 
ATOM      7  N   UNL d   1      54.013  32.153  55.015  0.00  0.00    -0.025 NA
ATOM      8  N   UNL d   1      53.940  32.944  55.171  0.00  0.00    -0.007 NA
ATOM      9  C   UNL d   1      53.442  31.282  53.900  0.00  0.00     0.107 A 
ATOM     10  O   UNL d   1      52.147  32.014  52.269  0.00  0.00    -0.266 OA
ATOM     11  C   UNL d   1      52.835  30.596  52.794  0.00  0.00     0.006 A 
ATOM     12  C   UNL d   1      53.777  30.575  54.150  0.00  0.00     0.020 A 
ATOM     13  C   UNL d   1      53.168  29.884  53.040  0.00  0.00     0.000 A 
ATOM     14  C   UNL d   1      53.650  29.873  53.734  0.00  0.00     0.002 A 
ENDROOT
BRANCH   2  15
ATOM     15  C   UNL d   1      52.420  33.405  53.125  0.00  0.00     0.084 A 
ATOM     16  C   UNL d   1      51.627  33.577  53.263  0.00  0.00     0.017 A 
ATOM     17  C   UNL d   1      51.196  33.085  53.621  0.00  0.00     0.002 C 
ATOM     18  C   UNL d   1      51.291  34.283  53.016  0.00  0.00     0.002 A 
ATOM     19  C   UNL d   1      51.768  34.845  52.612  0.00  0.00     0.000 A 
ATOM     20  C   UNL d   1      52.572  34.692  52.462  0.00  0.00     0.002 A 
ATOM     21  C   UNL d   1      52.897  33.967  52.721  0.00  0.00     0.018 A 
ENDBRANCH   2  15
TORSDOF 1
ENDMDL
MODEL 4
REMARK VINA RESULT:     -10.4      0.764      3.248
REMARK  1 active torsions:
REMARK  status: ('A' for Active; 'I' for Inactive)
REMARK    1  A    between atoms: C_10  and  N_2 
ROOT
ATOM      1  C   UNL d   1      53.181  32.614  53.446  0.00  0.00     0.759 A 
ATOM      2  N   UNL d   1      53.393  33.369  53.760  0.00  0.00    -0.103 N 
ATOM      3  N   UNL d   1      52.468  32.527  53.046  0.00  0.00    -0.038 N 
ATOM      4  C   UNL d   1      52.882  34.002  53.660  0.00  0.00     0.280 A 
ATOM      5  N   UNL d   1      53.573  31.883  53.457  0.00  0.00     0.066 NA
ATOM      6  C   UNL d   1      52.168  33.920  53.261  0.00  0.00     0.075 A 
ATOM      7  N   UNL d   1      52.419  31.717  52.803  0.00  0.00    -0.025 NA
ATOM      8  N   UNL d   1      53.089  31.340  53.056  0.00  0.00    -0.007 NA
ATOM      9  C   UNL d   1      51.956  33.165  52.947  0.00  0.00     0.107 A 
ATOM     10  O   UNL d   1      53.093  34.754  53.973  0.00  0.00    -0.266 OA
ATOM     11  C   UNL d   1      51.657  34.553  53.161  0.00  0.00     0.006 A 
ATOM     12  C   UNL d   1      51.243  33.078  52.547  0.00  0.00     0.020 A 
ATOM     13  C   UNL d   1      50.942  34.472  52.762  0.00  0.00     0.000 A 
ATOM     14  C   UNL d   1      50.730  33.716  52.448  0.00  0.00     0.002 A 
ENDROOT
BRANCH   2  15
ATOM     15  C   UNL d   1      54.102  33.454  54.157  0.00  0.00     0.084 A 
ATOM     16  C   UNL d   1      54.140  33.420  54.978  0.00  0.00     0.017 A 
ATOM     17  C   UNL d   1      53.520  33.310  55.376  0.00  0.00     0.002 C 
ATOM     18  C   UNL d   1      54.851  33.505  55.378  0.00  0.00     0.002 A 
ATOM     19  C   UNL d   1      55.557  33.630  54.940  0.00  0.00     0.000 A 
ATOM     20  C   UNL d   1      55.541  33.667  54.109  0.00  0.00     0.002 A 
ATOM     21  C   UNL d   1      54.808  33.579  53.718  0.00  0.00     0.018 A 
ENDBRANCH   2  15
TORSDOF 1
ENDMDL
MODEL 5
REMARK VINA RESULT:     -10.3      1.877      3.356
REMARK  1 active torsions:
REMARK  status: ('A' for Active; 'I' for Inactive)
REMARK    1  A    between atoms: C_10  and  N_2 
ROOT
ATOM      1  C   UNL d   1      53.082  32.579  53.348  0.00  0.00     0.759 A 
ATOM      2  N   UNL d   1      53.609  32.382  53.978  0.00  0.00    -0.103 N 
ATOM      3  N   UNL d   1      52.700  31.978  52.937  0.00  0.00    -0.038 N 
ATOM      4  C   UNL d   1      53.730  31.593  54.168  0.00  0.00     0.280 A 
ATOM      5  N   UNL d   1      52.851  33.309  53.032  0.00  0.00     0.066 NA
ATOM      6  C   UNL d   1      53.350  30.989  53.759  0.00  0.00     0.075 A 
ATOM      7  N   UNL d   1      52.218  32.350  52.348  0.00  0.00    -0.025 NA
ATOM      8  N   UNL d   1      52.316  33.151  52.415  0.00  0.00    -0.007 NA
ATOM      9  C   UNL d   1      52.823  31.186  53.129  0.00  0.00     0.107 A 
ATOM     10  O   UNL d   1      54.254  31.397  54.796  0.00  0.00    -0.266 OA
ATOM     11  C   UNL d   1      53.471  30.201  53.949  0.00  0.00     0.006 A 
ATOM     12  C   UNL d   1      52.441  30.586  52.718  0.00  0.00     0.020 A 
ATOM     13  C   UNL d   1      53.091  29.596  53.541  0.00  0.00     0.000 A 
ATOM     14  C   UNL d   1      52.564  29.793  52.910  0.00  0.00     0.002 A 
ENDROOT
BRANCH   2  15
ATOM     15  C   UNL d   1      53.987  32.979  54.386  0.00  0.00     0.084 A 
ATOM     16  C   UNL d   1      54.747  33.223  54.182  0.00  0.00     0.017 A 
ATOM     17  C   UNL d   1      55.103  32.898  53.614  0.00  0.00     0.002 C 
ATOM     18  C   UNL d   1      55.128  33.823  54.590  0.00  0.00     0.002 A 
ATOM     19  C   UNL d   1      54.736  34.198  55.233  0.00  0.00     0.000 A 
ATOM     20  C   UNL d   1      53.969  33.966  55.455  0.00  0.00     0.002 A 
ATOM     21  C   UNL d   1      53.595  33.354  55.028  0.00  0.00     0.018 A 
ENDBRANCH   2  15
TORSDOF 1
ENDMDL
MODEL 6
REMARK VINA RESULT:      -9.8      1.780      3.207
REMARK  1 active torsions:
REMARK  status: ('A' for Active; 'I' for Inactive)
REMARK    1  A    between atoms: C_10  and  N_2 
ROOT
ATOM      1  C   UNL d   1      53.555  32.559  54.381  0.00  0.00     0.759 A 
ATOM      2  N   UNL d   1      53.171  32.156  53.745  0.00  0.00    -0.103 N 
ATOM      3  N   UNL d   1      53.466  33.372  54.457  0.00  0.00    -0.038 N 
ATOM      4  C   UNL d   1      52.715  32.585  53.216  0.00  0.00     0.280 A 
ATOM      5  N   UNL d   1      54.043  32.284  54.992  0.00  0.00     0.066 NA
ATOM      6  C   UNL d   1      52.622  33.399  53.289  0.00  0.00     0.075 A 
ATOM      7  N   UNL d   1      53.912  33.607  55.137  0.00  0.00    -0.025 NA
ATOM      8  N   UNL d   1      54.255  32.944  55.451  0.00  0.00    -0.007 NA
ATOM      9  C   UNL d   1      53.007  33.802  53.924  0.00  0.00     0.107 A 
ATOM     10  O   UNL d   1      52.332  32.184  52.583  0.00  0.00    -0.266 OA
ATOM     11  C   UNL d   1      52.166  33.828  52.760  0.00  0.00     0.006 A 
ATOM     12  C   UNL d   1      52.918  34.615  54.001  0.00  0.00     0.020 A 
ATOM     13  C   UNL d   1      52.074  34.643  52.832  0.00  0.00     0.000 A 
ATOM     14  C   UNL d   1      52.458  35.046  53.468  0.00  0.00     0.002 A 
ENDROOT
BRANCH   2  15
ATOM     15  C   UNL d   1      53.260  31.348  53.670  0.00  0.00     0.084 A 
ATOM     16  C   UNL d   1      53.878  31.024  53.232  0.00  0.00     0.017 A 
ATOM     17  C   UNL d   1      54.369  31.470  52.894  0.00  0.00     0.002 C 
ATOM     18  C   UNL d   1      53.969  30.213  53.155  0.00  0.00     0.002 A 
ATOM     19  C   UNL d   1      53.420  29.699  53.532  0.00  0.00     0.000 A 
ATOM     20  C   UNL d   1      52.789  30.006  53.980  0.00  0.00     0.002 A 
ATOM     21  C   UNL d   1      52.711  30.835  54.047  0.00  0.00     0.018 A 
ENDBRANCH   2  15
TORSDOF 1
ENDMDL
MODEL 7
REMARK VINA RESULT:      -9.0      1.286      3.629
REMARK  1 active torsions:
REMARK  status: ('A' for Active; 'I' for Inactive)
REMARK    1  A    between atoms: C_10  and  N_2 
ROOT
ATOM      1  C   UNL d   1      52.802  34.602  54.111  0.00  0.00     0.759 A 
ATOM      2  N   UNL d   1      52.949  33.777  54.005  0.00  0.00    -0.103 N 
ATOM      3  N   UNL d   1      52.105  34.930  53.825  0.00  0.00    -0.038 N 
ATOM      4  C   UNL d   1      52.391  33.317  53.618  0.00  0.00     0.280 A 
ATOM      5  N   UNL d   1      53.251  35.198  54.472  0.00  0.00     0.066 NA
ATOM      6  C   UNL d   1      51.692  33.641  53.330  0.00  0.00     0.075 A 
ATOM      7  N   UNL d   1      52.124  35.754  54.015  0.00  0.00    -0.025 NA
ATOM      8  N   UNL d   1      52.817  35.905  54.404  0.00  0.00    -0.007 NA
ATOM      9  C   UNL d   1      51.546  34.466  53.436  0.00  0.00     0.107 A 
ATOM     10  O   UNL d   1      52.537  32.496  53.512  0.00  0.00    -0.266 OA
ATOM     11  C   UNL d   1      51.135  33.181  52.942  0.00  0.00     0.006 A 
ATOM     12  C   UNL d   1      50.849  34.794  53.149  0.00  0.00     0.020 A 
ATOM     13  C   UNL d   1      50.435  33.505  52.654  0.00  0.00     0.000 A 
ATOM     14  C   UNL d   1      50.288  34.330  52.760  0.00  0.00     0.002 A 
ENDROOT
BRANCH   2  15
ATOM     15  C   UNL d   1      53.642  33.452  54.290  0.00  0.00     0.084 A 
ATOM     16  C   UNL d   1      54.279  33.296  53.792  0.00  0.00     0.017 A 
ATOM     17  C   UNL d   1      54.230  33.451  53.065  0.00  0.00     0.002 C 
ATOM     18  C   UNL d   1      54.975  32.971  54.077  0.00  0.00     0.002 A 
ATOM     19  C   UNL d   1      55.041  32.791  54.896  0.00  0.00     0.000 A 
ATOM     20  C   UNL d   1      54.410  32.941  55.416  0.00  0.00     0.002 A 
ATOM     21  C   UNL d   1      53.708  33.273  55.109  0.00  0.00     0.018 A 
ENDBRANCH   2  15
TORSDOF 1
ENDMDL
