MODEL 1
REMARK VINA RESULT:      -4.4      0.000      0.000
REMARK  7 active torsions:
REMARK  status: ('A' for Active; 'I' for Inactive)
REMARK    1  A    between atoms: N_4  and  C_2 
REMARK    2  A    between atoms: C_8  and  C_3 
REMARK       I    between atoms: C_7  and  N_4 
REMARK    3  A    between atoms: C_13  and  C_7 
REMARK    4  A    between atoms: S_11  and  C_16 
REMARK    5  A    between atoms: C_12  and  S_11 
REMARK    6  A    between atoms: C_19  and  C_13 
REMARK    7  A    between atoms: C_16  and  C_19 
ROOT
ATOM      1  N   UNL d   1     -41.153-122.405 -52.131  0.00  0.00    -0.183 NA
ATOM      2  C   UNL d   1     -41.400-122.911 -51.521  0.00  0.00     0.281 C 
ATOM      3  O   UNL d   1     -41.782-123.613 -51.686  0.00  0.00    -0.265 OA
ENDROOT
BRANCH   1   4
ATOM      4  C   UNL d   1     -41.300-122.621 -52.915  0.00  0.00     0.197 A 
ATOM      5  N   UNL d   1     -41.649-122.141 -53.492  0.00  0.00    -0.219 NA
ATOM      6  C   UNL d   1     -41.687-122.582 -54.191  0.00  0.00     0.108 A 
ATOM      7  C   UNL d   1     -41.364-123.327 -54.042  0.00  0.00     0.059 A 
ATOM      8  S   UNL d   1     -41.124-123.355 -53.255  0.00  0.00    -0.046 SA
BRANCH   6   9
ATOM      9  C   UNL d   1     -41.991-122.324 -54.900  0.00  0.00     0.100 A 
ATOM     10  N   UNL d   1     -41.488-121.978 -55.467  0.00  0.00    -0.242 NA
ATOM     11  C   UNL d   1     -41.804-121.719 -56.185  0.00  0.00     0.099 A 
ATOM     12  C   UNL d   1     -42.611-121.802 -56.338  0.00  0.00     0.021 A 
ATOM     13  C   UNL d   1     -43.105-122.145 -55.773  0.00  0.00     0.003 A 
ATOM     14  C   UNL d   1     -42.793-122.407 -55.052  0.00  0.00     0.021 A 
ENDBRANCH   6   9
ENDBRANCH   1   4
BRANCH   2  15
ATOM     15  C   UNL d   1     -41.250-122.691 -50.735  0.00  0.00     0.063 C 
BRANCH  15  16
ATOM     16  C   UNL d   1     -41.888-122.569 -50.218  0.00  0.00     0.012 C 
BRANCH  16  17
ATOM     17  C   UNL d   1     -41.923-122.973 -49.502  0.00  0.00     0.036 C 
BRANCH  17  18
ATOM     18  S   UNL d   1     -42.105-122.575 -48.810  0.00  0.00    -0.086 SA
BRANCH  18  19
ATOM     19  C   UNL d   1     -42.168-122.987 -48.099  0.00  0.00     0.029 A 
ATOM     20  C   UNL d   1     -42.891-123.322 -47.881  0.00  0.00     0.005 A 
ATOM     21  C   UNL d   1     -42.957-123.735 -47.172  0.00  0.00    -0.012 A 
ATOM     22  C   UNL d   1     -42.302-123.815 -46.678  0.00  0.00     0.026 A 
ATOM     23  C   UNL d   1     -41.580-123.482 -46.894  0.00  0.00    -0.012 A 
ATOM     24  C   UNL d   1     -41.512-123.068 -47.605  0.00  0.00     0.005 A 
ENDBRANCH  18  19
ENDBRANCH  17  18
ENDBRANCH  16  17
ENDBRANCH  15  16
ENDBRANCH   2  15
TORSDOF 7
ENDMDL
