MODEL 1
REMARK VINA RESULT:      20.6      0.000      0.000
REMARK  1 active torsions:
REMARK  status: ('A' for Active; 'I' for Inactive)
REMARK    1  A    between atoms: C_9  and  C_1 
ROOT
ATOM      1  C   UNL d   1      46.143 -18.225  43.722  0.00  0.00     0.064 A 
ATOM      2  C   UNL d   1      46.043 -17.515  43.300  0.00  0.00     0.199 A 
ATOM      3  C   UNL d   1      45.875 -16.819  43.722  0.00  0.00     0.062 A 
ATOM      4  C   UNL d   1      46.077 -18.238  44.541  0.00  0.00     0.126 A 
ATOM      5  C   UNL d   1      45.808 -16.831  44.541  0.00  0.00     0.106 A 
ATOM      6  O   UNL d   1      45.909 -17.541  44.955  0.00  0.00    -0.305 OA
ATOM      7  C   UNL d   1      45.776 -16.116  43.300  0.00  0.00     0.009 A 
ATOM      8  C   UNL d   1      45.642 -16.141  44.955  0.00  0.00     0.067 A 
ATOM      9  O   UNL d   1      46.110 -17.503  42.485  0.00  0.00    -0.286 OA
ATOM     10  C   UNL d   1      45.541 -15.432  44.541  0.00  0.00     0.198 A 
ATOM     11  C   UNL d   1      45.608 -15.419  43.722  0.00  0.00     0.042 A 
ATOM     12  O   UNL d   1      45.369 -14.715  44.954  0.00  0.00    -0.286 OA
ENDROOT
BRANCH   1  13
ATOM     13  C   UNL d   1      46.311 -18.918  43.300  0.00  0.00     0.005 A 
ATOM     14  C   UNL d   1      46.313 -18.919  42.482  0.00  0.00     0.000 A 
ATOM     15  C   UNL d   1      46.482 -19.617  42.061  0.00  0.00     0.000 A 
ATOM     16  C   UNL d   1      46.647 -20.305  42.485  0.00  0.00     0.000 A 
ATOM     17  C   UNL d   1      46.645 -20.303  43.303  0.00  0.00     0.000 A 
ATOM     18  C   UNL d   1      46.478 -19.614  43.725  0.00  0.00     0.000 A 
ENDBRANCH   1  13
TORSDOF 1
ENDMDL
MODEL 2
REMARK VINA RESULT:      21.0      1.441      2.528
REMARK  1 active torsions:
REMARK  status: ('A' for Active; 'I' for Inactive)
REMARK    1  A    between atoms: C_9  and  C_1 
ROOT
ATOM      1  C   UNL d   1      45.509 -15.938  44.413  0.00  0.00     0.064 A 
ATOM      2  C   UNL d   1      45.968 -15.324  44.092  0.00  0.00     0.199 A 
ATOM      3  C   UNL d   1      45.725 -14.537  44.211  0.00  0.00     0.062 A 
ATOM      4  C   UNL d   1      44.826 -15.772  44.840  0.00  0.00     0.126 A 
ATOM      5  C   UNL d   1      45.043 -14.370  44.638  0.00  0.00     0.106 A 
ATOM      6  O   UNL d   1      44.590 -14.987  44.955  0.00  0.00    -0.305 OA
ATOM      7  C   UNL d   1      46.183 -13.929  43.892  0.00  0.00     0.009 A 
ATOM      8  C   UNL d   1      44.805 -13.592  44.754  0.00  0.00     0.067 A 
ATOM      9  O   UNL d   1      46.647 -15.490  43.668  0.00  0.00    -0.286 OA
ATOM     10  C   UNL d   1      45.258 -12.976  44.438  0.00  0.00     0.198 A 
ATOM     11  C   UNL d   1      45.941 -13.143  44.011  0.00  0.00     0.042 A 
ATOM     12  O   UNL d   1      45.025 -12.172  44.550  0.00  0.00    -0.286 OA
ENDROOT
BRANCH   1  13
ATOM     13  C   UNL d   1      45.752 -16.721  44.293  0.00  0.00     0.005 A 
ATOM     14  C   UNL d   1      45.787 -17.037  43.540  0.00  0.00     0.000 A 
ATOM     15  C   UNL d   1      46.032 -17.824  43.422  0.00  0.00     0.000 A 
ATOM     16  C   UNL d   1      46.238 -18.276  44.080  0.00  0.00     0.000 A 
ATOM     17  C   UNL d   1      46.203 -17.960  44.834  0.00  0.00     0.000 A 
ATOM     18  C   UNL d   1      45.961 -17.181  44.955  0.00  0.00     0.000 A 
ENDBRANCH   1  13
TORSDOF 1
ENDMDL
