MODEL 1
REMARK VINA RESULT:      40.3      0.000      0.000
REMARK  3 active torsions:
REMARK  status: ('A' for Active; 'I' for Inactive)
REMARK    1  A    between atoms: C_10  and  C_4 
REMARK    2  A    between atoms: C_11  and  C_6 
REMARK    3  A    between atoms: C_12  and  C_9 
ROOT
ATOM      1  N   UNL d   1      14.457  14.180  -1.905  0.00  0.00    -0.212 N 
ATOM      2  C   UNL d   1      14.243  14.572  -2.608  0.00  0.00     0.166 A 
ATOM      3  N   UNL d   1      14.777  14.735  -1.386  0.00  0.00    -0.158 NA
ATOM      4  C   UNL d   1      14.760  15.476  -1.771  0.00  0.00     0.169 A 
ATOM      5  C   UNL d   1      14.433  15.363  -2.511  0.00  0.00     0.066 A 
ATOM      6  C   UNL d   1      14.330  13.365  -1.836  0.00  0.00     0.086 A 
ATOM      7  N   UNL d   1      13.902  14.147  -3.238  0.00  0.00    -0.227 NA
ATOM      8  C   UNL d   1      13.990  12.932  -2.459  0.00  0.00     0.038 A 
ATOM      9  C   UNL d   1      13.776  13.324  -3.162  0.00  0.00     0.085 A 
ENDROOT
BRANCH   6  10
ATOM     10  C   UNL d   1      14.481  12.830  -1.220  0.00  0.00     0.018 A 
ATOM     11  C   UNL d   1      15.201  12.433  -1.200  0.00  0.00     0.002 A 
ATOM     12  C   UNL d   1      15.351  11.933  -0.632  0.00  0.00     0.000 A 
ATOM     13  C   UNL d   1      14.778  11.780  -0.015  0.00  0.00     0.000 A 
ATOM     14  C   UNL d   1      14.070  12.155  -0.014  0.00  0.00     0.000 A 
ATOM     15  C   UNL d   1      13.921  12.688  -0.627  0.00  0.00     0.002 A 
ENDBRANCH   6  10
BRANCH   9  16
ATOM     16  C   UNL d   1      13.443  12.918  -3.783  0.00  0.00     0.018 A 
ATOM     17  C   UNL d   1      13.130  12.168  -3.679  0.00  0.00     0.002 A 
ATOM     18  C   UNL d   1      12.803  11.779  -4.306  0.00  0.00     0.000 A 
ATOM     19  C   UNL d   1      12.771  12.122  -5.079  0.00  0.00     0.000 A 
ATOM     20  C   UNL d   1      13.083  12.873  -5.184  0.00  0.00     0.000 A 
ATOM     21  C   UNL d   1      13.423  13.279  -4.538  0.00  0.00     0.002 A 
ENDBRANCH   9  16
BRANCH   4  22
ATOM     22  C   UNL d   1      15.024  16.184  -1.456  0.00  0.00     0.231 C 
ATOM     23  O   UNL d   1      15.333  16.193  -0.693  0.00  0.00    -0.643 OA
ATOM     24  O   UNL d   1      14.974  16.870  -1.916  0.00  0.00    -0.643 OA
ENDBRANCH   4  22
TORSDOF 3
ENDMDL
