MODEL 1
REMARK VINA RESULT:      -3.8      0.000      0.000
REMARK  3 active torsions:
REMARK  status: ('A' for Active; 'I' for Inactive)
REMARK    1  A    between atoms: C_6  and  C_1 
REMARK    2  A    between atoms: C_4  and  C_8 
REMARK       I    between atoms: N_11  and  C_6 
REMARK       I    between atoms: C_8  and  N_12 
REMARK    3  A    between atoms: N_12  and  N_11 
ROOT
ATOM      1  C   UNL d   1      57.947  -0.225  30.876  0.00  0.00     0.302 C 
ATOM      2  N   UNL d   1      57.333  -0.641  31.235  0.00  0.00    -0.102 NA
ATOM      3  O   UNL d   1      58.134   0.542  31.120  0.00  0.00    -0.263 OA
ENDROOT
BRANCH   1   4
ATOM      4  C   UNL d   1      58.387  -0.572  30.264  0.00  0.00     0.123 A 
ATOM      5  C   UNL d   1      58.527  -0.158  29.576  0.00  0.00     0.305 A 
ATOM      6  O   UNL d   1      58.970  -0.516  28.967  0.00  0.00    -0.273 OA
ATOM      7  O   UNL d   1      58.234   0.604  29.482  0.00  0.00    -0.259 OA
ATOM      8  C   UNL d   1      59.263  -1.278  29.061  0.00  0.00     0.103 A 
ATOM      9  C   UNL d   1      59.119  -1.694  29.762  0.00  0.00     0.024 A 
ATOM     10  C   UNL d   1      59.699  -1.625  28.457  0.00  0.00     0.025 A 
ATOM     11  C   UNL d   1      58.679  -1.338  30.364  0.00  0.00     0.012 A 
ATOM     12  C   UNL d   1      59.412  -2.456  29.855  0.00  0.00     0.009 A 
ATOM     13  C   UNL d   1      59.849  -2.811  29.257  0.00  0.00     0.035 A 
ATOM     14  C   UNL d   1      59.994  -2.393  28.553  0.00  0.00     0.009 A 
ATOM     15 BR   UNL d   1      60.142  -3.573  29.351  0.00  0.00    -0.049 Br
ENDBRANCH   1   4
BRANCH   2  16
ATOM     16  N   UNL d   1      56.905  -0.282  31.842  0.00  0.00    -0.102 NA
ATOM     17  C   UNL d   1      56.340  -0.722  32.251  0.00  0.00     0.300 C 
ATOM     18  O   UNL d   1      56.203  -1.513  32.057  0.00  0.00    -0.264 OA
BRANCH  17  19
ATOM     19  C   UNL d   1      55.907  -0.372  32.860  0.00  0.00     0.098 A 
ATOM     20  C   UNL d   1      55.877  -0.733  33.600  0.00  0.00     0.203 A 
ATOM     21  C   UNL d   1      55.449  -0.391  34.207  0.00  0.00     0.084 A 
ATOM     22  O   UNL d   1      56.278  -1.441  33.730  0.00  0.00    -0.286 OA
ATOM     23  C   UNL d   1      55.047   0.317  34.081  0.00  0.00     0.199 A 
ATOM     24  C   UNL d   1      55.075   0.682  33.341  0.00  0.00     0.042 A 
ATOM     25  O   UNL d   1      54.615   0.663  34.692  0.00  0.00    -0.286 OA
ATOM     26  C   UNL d   1      55.510   0.332  32.727  0.00  0.00     0.011 A 
ENDBRANCH  17  19
ENDBRANCH   2  16
TORSDOF 3
ENDMDL
MODEL 2
REMARK VINA RESULT:      -3.6      1.354      1.695
REMARK  3 active torsions:
REMARK  status: ('A' for Active; 'I' for Inactive)
REMARK    1  A    between atoms: C_6  and  C_1 
REMARK    2  A    between atoms: C_4  and  C_8 
REMARK       I    between atoms: N_11  and  C_6 
REMARK       I    between atoms: C_8  and  N_12 
REMARK    3  A    between atoms: N_12  and  N_11 
ROOT
ATOM      1  C   UNL d   1      57.294   0.037  31.103  0.00  0.00     0.302 C 
ATOM      2  N   UNL d   1      57.178  -0.320  31.836  0.00  0.00    -0.102 NA
ATOM      3  O   UNL d   1      56.809   0.659  30.857  0.00  0.00    -0.263 OA
ENDROOT
BRANCH   1   4
ATOM      4  C   UNL d   1      57.900  -0.224  30.600  0.00  0.00     0.123 A 
ATOM      5  C   UNL d   1      57.829  -0.936  30.209  0.00  0.00     0.305 A 
ATOM      6  O   UNL d   1      58.444  -1.188  29.706  0.00  0.00    -0.273 OA
ATOM      7  O   UNL d   1      57.159  -1.400  30.309  0.00  0.00    -0.259 OA
ATOM      8  C   UNL d   1      59.114  -0.723  29.606  0.00  0.00     0.103 A 
ATOM      9  C   UNL d   1      59.182  -0.001  30.005  0.00  0.00     0.024 A 
ATOM     10  C   UNL d   1      59.717  -0.978  29.109  0.00  0.00     0.025 A 
ATOM     11  C   UNL d   1      58.571   0.248  30.504  0.00  0.00     0.012 A 
ATOM     12  C   UNL d   1      59.852   0.463  29.904  0.00  0.00     0.009 A 
ATOM     13  C   UNL d   1      60.460   0.217  29.410  0.00  0.00     0.035 A 
ATOM     14  C   UNL d   1      60.392  -0.509  29.009  0.00  0.00     0.009 A 
ATOM     15 BR   UNL d   1      61.131   0.682  29.309  0.00  0.00    -0.049 Br
ENDBRANCH   1   4
BRANCH   2  16
ATOM     16  N   UNL d   1      56.570  -0.049  32.325  0.00  0.00    -0.102 NA
ATOM     17  C   UNL d   1      56.478  -0.381  33.073  0.00  0.00     0.300 C 
ATOM     18  O   UNL d   1      56.985  -0.978  33.334  0.00  0.00    -0.264 OA
BRANCH  17  19
ATOM     19  C   UNL d   1      55.873  -0.116  33.569  0.00  0.00     0.098 A 
ATOM     20  C   UNL d   1      56.060   0.312  34.249  0.00  0.00     0.203 A 
ATOM     21  C   UNL d   1      55.465   0.577  34.743  0.00  0.00     0.084 A 
ATOM     22  O   UNL d   1      56.847   0.475  34.431  0.00  0.00    -0.286 OA
ATOM     23  C   UNL d   1      54.677   0.416  34.564  0.00  0.00     0.199 A 
ATOM     24  C   UNL d   1      54.487  -0.013  33.885  0.00  0.00     0.042 A 
ATOM     25  O   UNL d   1      54.076   0.682  35.062  0.00  0.00    -0.286 OA
ATOM     26  C   UNL d   1      55.092  -0.280  33.385  0.00  0.00     0.011 A 
ENDBRANCH  17  19
ENDBRANCH   2  16
TORSDOF 3
ENDMDL
