MODEL 1
REMARK VINA RESULT:      14.0      0.000      0.000
REMARK  7 active torsions:
REMARK  status: ('A' for Active; 'I' for Inactive)
REMARK    1  A    between atoms: C_2  and  N_1 
REMARK    2  A    between atoms: C_4  and  C_2 
REMARK    3  A    between atoms: O_3  and  C_9 
REMARK    4  A    between atoms: C_7  and  O_3 
REMARK    5  A    between atoms: C_9  and  C_4 
REMARK    6  A    between atoms: C_10  and  C_12 
REMARK    7  A    between atoms: C_17  and  C_10 
ROOT
ATOM      1  N   UNL d   1      45.355 -16.029  44.770  0.00  0.00    -0.300 N 
ATOM      2  C   UNL d   1      44.619 -15.925  44.490  0.00  0.00     0.080 A 
ATOM      3  C   UNL d   1      45.846 -15.363  44.954  0.00  0.00     0.080 A 
ATOM      4  C   UNL d   1      44.779 -14.509  44.545  0.00  0.00     0.003 A 
ATOM      5  C   UNL d   1      44.323 -15.160  44.374  0.00  0.00     0.019 A 
ATOM      6  C   UNL d   1      45.544 -14.604  44.837  0.00  0.00     0.019 A 
ENDROOT
BRANCH   1   7
ATOM      7  C   UNL d   1      45.624 -16.828  44.876  0.00  0.00     0.125 C 
BRANCH   7   8
ATOM      8  C   UNL d   1      46.104 -17.209  44.282  0.00  0.00     0.238 C 
ATOM      9  O   UNL d   1      46.647 -16.775  43.841  0.00  0.00    -0.283 OA
BRANCH   8  10
ATOM     10  C   UNL d   1      46.014 -18.018  44.160  0.00  0.00     0.166 C 
BRANCH  10  11
ATOM     11  O   UNL d   1      46.647 -18.476  43.901  0.00  0.00    -0.302 OA
BRANCH  11  12
ATOM     12  C   UNL d   1      46.580 -18.898  43.176  0.00  0.00     0.100 A 
ATOM     13  C   UNL d   1      46.579 -18.479  42.436  0.00  0.00     0.026 A 
ATOM     14  C   UNL d   1      46.514 -18.889  41.722  0.00  0.00     0.013 A 
ATOM     15  C   UNL d   1      46.449 -19.705  41.722  0.00  0.00     0.058 A 
ATOM     16  C   UNL d   1      46.448 -20.129  42.438  0.00  0.00     0.013 A 
ATOM     17 CL   UNL d   1      46.382 -20.128  40.985  0.00  0.00    -0.082 Cl
ATOM     18  C   UNL d   1      46.513 -19.724  43.152  0.00  0.00     0.026 A 
ENDBRANCH  11  12
ENDBRANCH  10  11
ENDBRANCH   8  10
ENDBRANCH   7   8
ENDBRANCH   1   7
BRANCH   4  19
ATOM     19  C   UNL d   1      44.449 -13.707  44.416  0.00  0.00     0.000 C 
BRANCH  19  20
ATOM     20  C   UNL d   1      44.833 -13.183  43.895  0.00  0.00     0.000 A 
ATOM     21  C   UNL d   1      45.556 -12.860  44.082  0.00  0.00     0.000 A 
ATOM     22  C   UNL d   1      45.933 -12.335  43.552  0.00  0.00     0.000 A 
ATOM     23  C   UNL d   1      45.561 -12.153  42.842  0.00  0.00     0.000 A 
ATOM     24  C   UNL d   1      44.838 -12.475  42.656  0.00  0.00     0.000 A 
ATOM     25  C   UNL d   1      44.468 -12.989  43.173  0.00  0.00     0.000 A 
ENDBRANCH  19  20
ENDBRANCH   4  19
TORSDOF 7
ENDMDL
