MODEL 1
REMARK VINA RESULT:      35.7      0.000      0.000
REMARK  5 active torsions:
REMARK  status: ('A' for Active; 'I' for Inactive)
REMARK    1  A    between atoms: C_5  and  S_1 
REMARK    2  A    between atoms: C_12  and  S_1 
REMARK    3  A    between atoms: C_2  and  N_6 
REMARK    4  A    between atoms: C_13  and  C_4 
REMARK    5  A    between atoms: C_7  and  C_5 
REMARK       I    between atoms: N_6  and  C_7 
ROOT
ATOM      1  N   UNL d   1      44.892 -17.778  40.040  0.00  0.00    -0.182 NA
ATOM      2  C   UNL d   1      45.112 -17.395  39.344  0.00  0.00     0.293 C 
ATOM      3  O   UNL d   1      45.896 -17.358  39.108  0.00  0.00    -0.264 OA
ENDROOT
BRANCH   1   4
ATOM      4  C   UNL d   1      45.468 -18.130  40.509  0.00  0.00     0.197 A 
ATOM      5  N   UNL d   1      45.353 -18.421  41.283  0.00  0.00    -0.221 NA
ATOM      6  C   UNL d   1      46.080 -18.731  41.554  0.00  0.00     0.090 A 
ATOM      7  C   UNL d   1      46.642 -18.626  40.935  0.00  0.00     0.058 A 
ATOM      8  S   UNL d   1      46.256 -18.256  40.299  0.00  0.00    -0.046 SA
BRANCH   6   9
ATOM      9  C   UNL d   1      46.221 -19.076  42.291  0.00  0.00     0.018 A 
ATOM     10  C   UNL d   1      46.329 -19.881  42.344  0.00  0.00     0.004 A 
ATOM     11  C   UNL d   1      46.469 -20.231  43.069  0.00  0.00     0.030 A 
ATOM     12  C   UNL d   1      46.500 -19.767  43.751  0.00  0.00     0.140 A 
ATOM     13  C   UNL d   1      46.391 -18.949  43.700  0.00  0.00     0.030 A 
ATOM     14  F   UNL d   1      46.642 -20.115  44.488  0.00  0.00    -0.204 F 
ATOM     15  C   UNL d   1      46.250 -18.604  42.963  0.00  0.00     0.004 A 
ENDBRANCH   6   9
ENDBRANCH   1   4
BRANCH   2  16
ATOM     16  C   UNL d   1      44.531 -17.041  38.871  0.00  0.00     0.161 C 
BRANCH  16  17
ATOM     17  S   UNL d   1      44.752 -16.545  38.244  0.00  0.00     0.215 S 
ATOM     18  O   UNL d   1      44.094 -16.051  38.412  0.00  0.00    -0.217 OA
ATOM     19  O   UNL d   1      45.399 -17.036  38.084  0.00  0.00    -0.217 OA
BRANCH  17  20
ATOM     20  C   UNL d   1      44.972 -16.050  37.618  0.00  0.00     0.088 A 
ATOM     21  C   UNL d   1      44.495 -15.988  36.957  0.00  0.00     0.011 A 
ATOM     22  C   UNL d   1      44.715 -15.492  36.331  0.00  0.00     0.001 A 
ATOM     23  C   UNL d   1      45.414 -15.065  36.379  0.00  0.00     0.000 A 
ATOM     24  C   UNL d   1      45.892 -15.127  37.040  0.00  0.00     0.001 A 
ATOM     25  C   UNL d   1      45.677 -15.617  37.663  0.00  0.00     0.011 A 
ENDBRANCH  17  20
ENDBRANCH  16  17
ENDBRANCH   2  16
TORSDOF 5
ENDMDL
MODEL 2
REMARK VINA RESULT:      37.0      2.428      5.929
REMARK  5 active torsions:
REMARK  status: ('A' for Active; 'I' for Inactive)
REMARK    1  A    between atoms: C_5  and  S_1 
REMARK    2  A    between atoms: C_12  and  S_1 
REMARK    3  A    between atoms: C_2  and  N_6 
REMARK    4  A    between atoms: C_13  and  C_4 
REMARK    5  A    between atoms: C_7  and  C_5 
REMARK       I    between atoms: N_6  and  C_7 
ROOT
ATOM      1  N   UNL d   1      46.169 -18.254  40.061  0.00  0.00    -0.182 NA
ATOM      2  C   UNL d   1      46.028 -18.459  40.848  0.00  0.00     0.293 C 
ATOM      3  O   UNL d   1      45.325 -18.262  41.219  0.00  0.00    -0.264 OA
ENDROOT
BRANCH   1   4
ATOM      4  C   UNL d   1      45.595 -17.845  39.639  0.00  0.00     0.197 A 
ATOM      5  N   UNL d   1      45.740 -17.302  39.022  0.00  0.00    -0.221 NA
ATOM      6  C   UNL d   1      45.004 -17.017  38.750  0.00  0.00     0.090 A 
ATOM      7  C   UNL d   1      44.405 -17.393  39.208  0.00  0.00     0.058 A 
ATOM      8  S   UNL d   1      44.779 -17.899  39.751  0.00  0.00    -0.046 SA
BRANCH   6   9
ATOM      9  C   UNL d   1      44.886 -16.469  38.143  0.00  0.00     0.018 A 
ATOM     10  C   UNL d   1      44.169 -16.444  37.758  0.00  0.00     0.004 A 
ATOM     11  C   UNL d   1      44.042 -15.905  37.156  0.00  0.00     0.030 A 
ATOM     12  C   UNL d   1      44.644 -15.384  36.939  0.00  0.00     0.140 A 
ATOM     13  C   UNL d   1      45.373 -15.407  37.328  0.00  0.00     0.030 A 
ATOM     14  F   UNL d   1      44.523 -14.835  36.330  0.00  0.00    -0.204 F 
ATOM     15  C   UNL d   1      45.492 -15.955  37.935  0.00  0.00     0.004 A 
ENDBRANCH   6   9
ENDBRANCH   1   4
BRANCH   2  16
ATOM     16  C   UNL d   1      46.608 -18.872  41.273  0.00  0.00     0.161 C 
BRANCH  16  17
ATOM     17  S   UNL d   1      46.507 -19.009  42.084  0.00  0.00     0.215 S 
ATOM     18  O   UNL d   1      46.647 -18.196  42.234  0.00  0.00    -0.217 OA
ATOM     19  O   UNL d   1      46.371 -19.812  41.931  0.00  0.00    -0.217 OA
BRANCH  17  20
ATOM     20  C   UNL d   1      46.407 -19.147  42.895  0.00  0.00     0.088 A 
ATOM     21  C   UNL d   1      46.501 -19.902  43.197  0.00  0.00     0.011 A 
ATOM     22  C   UNL d   1      46.401 -20.040  44.008  0.00  0.00     0.001 A 
ATOM     23  C   UNL d   1      46.207 -19.415  44.504  0.00  0.00     0.000 A 
ATOM     24  C   UNL d   1      46.114 -18.661  44.202  0.00  0.00     0.001 A 
ATOM     25  C   UNL d   1      46.212 -18.520  43.399  0.00  0.00     0.011 A 
ENDBRANCH  17  20
ENDBRANCH  16  17
ENDBRANCH   2  16
TORSDOF 5
ENDMDL
