MODEL 1
REMARK VINA RESULT:       7.6      0.000      0.000
REMARK  5 active torsions:
REMARK  status: ('A' for Active; 'I' for Inactive)
REMARK    1  A    between atoms: S_6  and  C_2 
REMARK    2  A    between atoms: C_16  and  S_6 
REMARK    3  A    between atoms: C_8  and  C_16 
REMARK       I    between atoms: N_13  and  C_8 
REMARK    4  A    between atoms: C_19  and  N_13 
REMARK    5  A    between atoms: C_18  and  C_19 
ROOT
ATOM      1  C   UNL d   1      45.540 -16.436  44.367  0.00  0.00     0.286 C 
ATOM      2  N   UNL d   1      45.231 -15.930  44.931  0.00  0.00    -0.206 NA
ATOM      3  O   UNL d   1      45.404 -16.294  43.567  0.00  0.00    -0.265 OA
ENDROOT
BRANCH   1   4
ATOM      4  C   UNL d   1      45.990 -17.091  44.592  0.00  0.00     0.098 C 
BRANCH   4   5
ATOM      5  S   UNL d   1      46.465 -17.478  44.036  0.00  0.00    -0.080 SA
BRANCH   5   6
ATOM      6  C   UNL d   1      46.510 -18.300  44.045  0.00  0.00     0.049 A 
ATOM      7  C   UNL d   1      46.559 -18.783  44.717  0.00  0.00     0.087 A 
ATOM      8  N   UNL d   1      46.593 -19.570  44.470  0.00  0.00    -0.302 N 
ATOM      9  C   UNL d   1      46.564 -19.574  43.643  0.00  0.00     0.065 A 
ATOM     10  C   UNL d   1      46.645 -20.236  44.951  0.00  0.00     0.100 C 
ATOM     11  C   UNL d   1      46.513 -18.789  43.383  0.00  0.00     0.024 A 
ATOM     12  C   UNL d   1      46.579 -20.196  43.092  0.00  0.00     0.018 A 
ATOM     13  C   UNL d   1      46.476 -18.626  42.573  0.00  0.00     0.002 A 
ATOM     14  C   UNL d   1      46.491 -19.244  42.029  0.00  0.00     0.000 A 
ATOM     15  C   UNL d   1      46.542 -20.029  42.289  0.00  0.00     0.002 A 
ENDBRANCH   5   6
ENDBRANCH   4   5
ENDBRANCH   1   4
BRANCH   2  16
ATOM     16  C   UNL d   1      44.787 -15.284  44.704  0.00  0.00     0.102 C 
BRANCH  16  17
ATOM     17  C   UNL d   1      45.123 -14.556  44.530  0.00  0.00     0.021 A 
ATOM     18  C   UNL d   1      44.775 -14.085  43.946  0.00  0.00     0.028 A 
ATOM     19  C   UNL d   1      45.114 -13.341  43.764  0.00  0.00     0.119 A 
ATOM     20  O   UNL d   1      44.913 -12.762  43.235  0.00  0.00    -0.300 OA
ATOM     21  C   UNL d   1      45.786 -13.098  44.172  0.00  0.00     0.119 A 
ATOM     22  C   UNL d   1      45.450 -12.150  43.301  0.00  0.00     0.304 A 
ATOM     23  O   UNL d   1      45.997 -12.354  43.884  0.00  0.00    -0.300 OA
ATOM     24  C   UNL d   1      46.123 -13.584  44.757  0.00  0.00     0.026 A 
ATOM     25  C   UNL d   1      45.781 -14.310  44.924  0.00  0.00     0.004 A 
ENDBRANCH  16  17
ENDBRANCH   2  16
TORSDOF 5
ENDMDL
