MODEL 1
REMARK VINA RESULT:      26.5      0.000      0.000
REMARK  6 active torsions:
REMARK  status: ('A' for Active; 'I' for Inactive)
REMARK    1  A    between atoms: C_7  and  C_1 
REMARK       I    between atoms: C_2  and  N_4 
REMARK    2  A    between atoms: C_10  and  C_2 
REMARK    3  A    between atoms: N_4  and  C_3 
REMARK    4  A    between atoms: O_20  and  C_5 
REMARK    5  A    between atoms: O_21  and  C_7 
REMARK    6  A    between atoms: C_11  and  C_12 
ROOT
ATOM      1  C   UNL d   1      46.234 -18.655  42.000  0.00  0.00     0.086 A 
ATOM      2  C   UNL d   1      45.668 -17.617  43.164  0.00  0.00     0.148 A 
ATOM      3  C   UNL d   1      45.861 -17.938  41.797  0.00  0.00     0.102 A 
ATOM      4  C   UNL d   1      46.322 -18.850  42.807  0.00  0.00     0.021 A 
ATOM      5  C   UNL d   1      45.582 -17.425  42.374  0.00  0.00     0.057 A 
ATOM      6  C   UNL d   1      46.038 -18.328  43.394  0.00  0.00     0.088 A 
ATOM      7 CL   UNL d   1      46.127 -18.526  44.184  0.00  0.00    -0.080 Cl
ENDROOT
BRANCH   2   8
ATOM      8  N   UNL d   1      45.392 -17.111  43.763  0.00  0.00    -0.364 NA
ATOM      9  C   UNL d   1      45.132 -16.581  44.346  0.00  0.00     0.328 C 
ATOM     10  O   UNL d   1      44.670 -16.870  44.953  0.00  0.00    -0.251 OA
BRANCH   9  11
ATOM     11  C   UNL d   1      45.338 -15.804  44.303  0.00  0.00     0.070 A 
ATOM     12  C   UNL d   1      44.816 -15.229  44.584  0.00  0.00     0.006 A 
ATOM     13  C   UNL d   1      45.011 -14.428  44.547  0.00  0.00    -0.004 A 
ATOM     14  C   UNL d   1      45.743 -14.194  44.224  0.00  0.00    -0.023 A 
ATOM     15  C   UNL d   1      46.266 -14.761  43.943  0.00  0.00    -0.004 A 
ATOM     16  C   UNL d   1      46.056 -15.566  43.986  0.00  0.00     0.006 A 
BRANCH  14  17
ATOM     17  C   UNL d   1      45.929 -13.383  44.192  0.00  0.00     0.019 C 
ATOM     18  C   UNL d   1      46.388 -13.042  44.773  0.00  0.00     0.004 C 
ATOM     19  C   UNL d   1      45.636 -12.937  43.557  0.00  0.00     0.004 C 
ATOM     20  C   UNL d   1      46.300 -13.651  44.878  0.00  0.00     0.004 C 
ENDBRANCH  14  17
ENDBRANCH   9  11
ENDBRANCH   2   8
BRANCH   3  21
ATOM     21  O   UNL d   1      45.770 -17.738  41.011  0.00  0.00    -0.328 OA
ATOM     22  C   UNL d   1      44.997 -17.661  40.687  0.00  0.00     0.181 C 
ENDBRANCH   3  21
BRANCH   1  23
ATOM     23  C   UNL d   1      46.508 -19.156  41.419  0.00  0.00     0.298 C 
ATOM     24  O   UNL d   1      46.646 -18.866  40.652  0.00  0.00    -0.259 OA
BRANCH  23  25
ATOM     25  O   UNL d   1      46.646 -19.946  41.592  0.00  0.00    -0.296 OA
ATOM     26  C   UNL d   1      46.336 -20.295  42.277  0.00  0.00     0.185 C 
ENDBRANCH  23  25
ENDBRANCH   1  23
TORSDOF 6
ENDMDL
MODEL 2
REMARK VINA RESULT:      28.4      0.991      1.360
REMARK  6 active torsions:
REMARK  status: ('A' for Active; 'I' for Inactive)
REMARK    1  A    between atoms: C_7  and  C_1 
REMARK       I    between atoms: C_2  and  N_4 
REMARK    2  A    between atoms: C_10  and  C_2 
REMARK    3  A    between atoms: N_4  and  C_3 
REMARK    4  A    between atoms: O_20  and  C_5 
REMARK    5  A    between atoms: O_21  and  C_7 
REMARK    6  A    between atoms: C_11  and  C_12 
ROOT
ATOM      1  C   UNL d   1      46.233 -18.464  42.471  0.00  0.00     0.086 A 
ATOM      2  C   UNL d   1      46.255 -17.054  43.343  0.00  0.00     0.148 A 
ATOM      3  C   UNL d   1      46.266 -17.722  42.095  0.00  0.00     0.102 A 
ATOM      4  C   UNL d   1      46.210 -18.492  43.306  0.00  0.00     0.021 A 
ATOM      5  C   UNL d   1      46.277 -17.025  42.527  0.00  0.00     0.057 A 
ATOM      6  C   UNL d   1      46.221 -17.783  43.746  0.00  0.00     0.088 A 
ATOM      7 CL   UNL d   1      46.198 -17.818  44.565  0.00  0.00    -0.080 Cl
ENDROOT
BRANCH   2   8
ATOM      8  N   UNL d   1      46.265 -16.358  43.800  0.00  0.00    -0.364 NA
ATOM      9  C   UNL d   1      46.256 -15.649  44.231  0.00  0.00     0.328 C 
ATOM     10  O   UNL d   1      46.646 -15.629  44.948  0.00  0.00    -0.251 OA
BRANCH   9  11
ATOM     11  C   UNL d   1      45.870 -15.006  43.940  0.00  0.00     0.070 A 
ATOM     12  C   UNL d   1      46.279 -14.463  43.472  0.00  0.00     0.006 A 
ATOM     13  C   UNL d   1      45.899 -13.798  43.166  0.00  0.00    -0.004 A 
ATOM     14  C   UNL d   1      45.091 -13.671  43.330  0.00  0.00    -0.023 A 
ATOM     15  C   UNL d   1      44.679 -14.207  43.795  0.00  0.00    -0.004 A 
ATOM     16  C   UNL d   1      45.076 -14.874  44.097  0.00  0.00     0.006 A 
BRANCH  14  17
ATOM     17  C   UNL d   1      44.717 -12.996  43.015  0.00  0.00     0.019 C 
ATOM     18  C   UNL d   1      44.001 -12.745  43.312  0.00  0.00     0.004 C 
ATOM     19  C   UNL d   1      45.094 -12.591  42.397  0.00  0.00     0.004 C 
ATOM     20  C   UNL d   1      44.205 -13.257  43.607  0.00  0.00     0.004 C 
ENDBRANCH  14  17
ENDBRANCH   9  11
ENDBRANCH   2   8
BRANCH   3  21
ATOM     21  O   UNL d   1      46.289 -17.684  41.279  0.00  0.00    -0.328 OA
ATOM     22  C   UNL d   1      45.571 -17.713  40.841  0.00  0.00     0.181 C 
ENDBRANCH   3  21
BRANCH   1  23
ATOM     23  C   UNL d   1      46.223 -19.151  42.033  0.00  0.00     0.298 C 
ATOM     24  O   UNL d   1      46.417 -19.129  41.224  0.00  0.00    -0.259 OA
BRANCH  23  25
ATOM     25  O   UNL d   1      46.022 -19.862  42.388  0.00  0.00    -0.296 OA
ATOM     26  C   UNL d   1      46.574 -20.287  42.838  0.00  0.00     0.185 C 
ENDBRANCH  23  25
ENDBRANCH   1  23
TORSDOF 6
ENDMDL
