MODEL 1
REMARK VINA RESULT:      50.6      0.000      0.000
REMARK  8 active torsions:
REMARK  status: ('A' for Active; 'I' for Inactive)
REMARK    1  A    between atoms: C_6  and  N_1 
REMARK    2  A    between atoms: C_7  and  C_6 
REMARK    3  A    between atoms: C_12  and  C_7 
REMARK    4  A    between atoms: C_8  and  C_19 
REMARK    5  A    between atoms: C_9  and  C_20 
REMARK    6  A    between atoms: N_13  and  C_12 
REMARK    7  A    between atoms: C_19  and  N_13 
REMARK    8  A    between atoms: C_20  and  N_13 
ROOT
ATOM      1  N   UNL d   1      59.097  49.681  51.239  0.00  0.00    -0.303 N 
ATOM      2  C   UNL d   1      59.697  49.688  50.664  0.00  0.00     0.064 A 
ATOM      3  C   UNL d   1      59.462  49.680  51.986  0.00  0.00     0.064 A 
ATOM      4  C   UNL d   1      60.282  49.685  51.876  0.00  0.00     0.018 A 
ATOM      5  C   UNL d   1      60.434  49.690  51.057  0.00  0.00     0.018 A 
ATOM      6  C   UNL d   1      59.149  49.674  52.749  0.00  0.00     0.018 A 
ATOM      7  C   UNL d   1      59.671  49.692  49.839  0.00  0.00     0.018 A 
ATOM      8  C   UNL d   1      60.789  49.685  52.529  0.00  0.00     0.002 A 
ATOM      9  C   UNL d   1      61.129  49.696  50.623  0.00  0.00     0.002 A 
ATOM     10  C   UNL d   1      61.107  49.700  49.803  0.00  0.00     0.000 A 
ATOM     11  C   UNL d   1      60.377  49.698  49.409  0.00  0.00     0.002 A 
ATOM     12  C   UNL d   1      59.660  49.673  53.410  0.00  0.00     0.002 A 
ATOM     13  C   UNL d   1      60.480  49.679  53.292  0.00  0.00     0.000 A 
ENDROOT
BRANCH   1  14
ATOM     14  C   UNL d   1      58.287  49.677  51.098  0.00  0.00     0.124 C 
BRANCH  14  15
ATOM     15  C   UNL d   1      58.109  48.994  50.676  0.00  0.00     0.231 C 
ATOM     16  O   UNL d   1      58.692  48.412  50.769  0.00  0.00    -0.283 OA
BRANCH  15  17
ATOM     17  C   UNL d   1      57.494  48.748  50.184  0.00  0.00     0.124 C 
BRANCH  17  18
ATOM     18  N   UNL d   1      56.729  48.698  50.478  0.00  0.00    -0.300 N 
BRANCH  18  19
ATOM     19  C   UNL d   1      56.166  49.261  50.256  0.00  0.00     0.080 C 
BRANCH  19  20
ATOM     20  C   UNL d   1      56.156  49.556  49.484  0.00  0.00     0.019 C 
ATOM     21  C   UNL d   1      56.663  49.505  48.836  0.00  0.00     0.002 C 
ENDBRANCH  19  20
ENDBRANCH  18  19
BRANCH  18  22
ATOM     22  C   UNL d   1      56.521  48.091  50.989  0.00  0.00     0.080 C 
BRANCH  22  23
ATOM     23  C   UNL d   1      56.123  47.428  50.704  0.00  0.00     0.019 C 
ATOM     24  C   UNL d   1      56.335  46.643  50.563  0.00  0.00     0.002 C 
ENDBRANCH  22  23
ENDBRANCH  18  22
ENDBRANCH  17  18
ENDBRANCH  15  17
ENDBRANCH  14  15
ENDBRANCH   1  14
TORSDOF 8
ENDMDL
