MODEL 1
REMARK VINA RESULT:      -8.1      0.000      0.000
REMARK  2 active torsions:
REMARK  status: ('A' for Active; 'I' for Inactive)
REMARK    1  A    between atoms: C_6  and  C_2 
REMARK    2  A    between atoms: C_7  and  C_3 
ROOT
ATOM      1  N   UNL d   1     -48.354  13.891  23.250  0.00  0.00    -0.238 NA
ATOM      2  C   UNL d   1     -49.044  14.109  22.880  0.00  0.00     0.112 A 
ATOM      3  C   UNL d   1     -47.946  13.379  22.744  0.00  0.00     0.088 A 
ATOM      4  S   UNL d   1     -49.080  13.741  22.144  0.00  0.00    -0.066 SA
ATOM      5  C   UNL d   1     -48.391  13.284  22.061  0.00  0.00     0.056 A 
ENDROOT
BRANCH   3   6
ATOM      6  C   UNL d   1     -47.230  12.993  22.826  0.00  0.00     0.020 A 
ATOM      7  C   UNL d   1     -47.190  12.240  23.185  0.00  0.00     0.028 A 
ATOM      8  C   UNL d   1     -46.442  11.849  23.265  0.00  0.00     0.123 A 
ATOM      9  O   UNL d   1     -46.404  11.112  23.616  0.00  0.00    -0.301 OA
ATOM     10  C   UNL d   1     -45.760  12.213  22.988  0.00  0.00     0.123 A 
ATOM     11  C   UNL d   1     -45.689  10.727  23.698  0.00  0.00     0.149 A 
ATOM     12  C   UNL d   1     -44.997  11.083  23.424  0.00  0.00     0.149 A 
ATOM     13  O   UNL d   1     -45.030  11.826  23.068  0.00  0.00    -0.301 OA
ATOM     14  C   UNL d   1     -45.817  12.964  22.633  0.00  0.00     0.027 A 
ATOM     15  C   UNL d   1     -46.539  13.354  22.550  0.00  0.00     0.004 A 
ENDBRANCH   3   6
BRANCH   2  16
ATOM     16  C   UNL d   1     -49.664  14.610  23.126  0.00  0.00     0.043 A 
ATOM     17  C   UNL d   1     -50.438  14.332  23.160  0.00  0.00     0.101 A 
ATOM     18  N   UNL d   1     -51.052  14.844  23.409  0.00  0.00    -0.242 NA
ATOM     19  C   UNL d   1     -50.879  15.635  23.621  0.00  0.00     0.099 A 
ATOM     20  C   UNL d   1     -50.101  15.902  23.583  0.00  0.00     0.021 A 
ATOM     21  C   UNL d   1     -49.495  15.400  23.339  0.00  0.00     0.005 A 
ENDBRANCH   2  16
TORSDOF 2
ENDMDL
MODEL 2
REMARK VINA RESULT:      -7.0      2.175      4.809
REMARK  2 active torsions:
REMARK  status: ('A' for Active; 'I' for Inactive)
REMARK    1  A    between atoms: C_6  and  C_2 
REMARK    2  A    between atoms: C_7  and  C_3 
ROOT
ATOM      1  N   UNL d   1     -47.348  13.447  22.649  0.00  0.00    -0.238 NA
ATOM      2  C   UNL d   1     -46.828  12.848  22.822  0.00  0.00     0.112 A 
ATOM      3  C   UNL d   1     -48.080  13.252  22.983  0.00  0.00     0.088 A 
ATOM      4  S   UNL d   1     -47.218  12.273  23.264  0.00  0.00    -0.066 SA
ATOM      5  C   UNL d   1     -48.002  12.528  23.364  0.00  0.00     0.056 A 
ENDROOT
BRANCH   3   6
ATOM      6  C   UNL d   1     -48.797  13.644  22.986  0.00  0.00     0.020 A 
ATOM      7  C   UNL d   1     -48.870  14.396  23.342  0.00  0.00     0.028 A 
ATOM      8  C   UNL d   1     -49.619  14.794  23.339  0.00  0.00     0.123 A 
ATOM      9  O   UNL d   1     -49.689  15.530  23.688  0.00  0.00    -0.301 OA
ATOM     10  C   UNL d   1     -50.268  14.438  22.985  0.00  0.00     0.123 A 
ATOM     11  C   UNL d   1     -50.405  15.922  23.690  0.00  0.00     0.149 A 
ATOM     12  C   UNL d   1     -51.064  15.574  23.338  0.00  0.00     0.149 A 
ATOM     13  O   UNL d   1     -50.999  14.831  22.985  0.00  0.00    -0.301 OA
ATOM     14  C   UNL d   1     -50.178  13.688  22.635  0.00  0.00     0.027 A 
ATOM     15  C   UNL d   1     -49.455  13.291  22.632  0.00  0.00     0.004 A 
ENDBRANCH   3   6
BRANCH   2  16
ATOM     16  C   UNL d   1     -46.022  12.749  22.629  0.00  0.00     0.043 A 
ATOM     17  C   UNL d   1     -45.586  12.133  22.958  0.00  0.00     0.101 A 
ATOM     18  N   UNL d   1     -44.778  12.043  22.756  0.00  0.00    -0.242 NA
ATOM     19  C   UNL d   1     -44.416  12.577  22.223  0.00  0.00     0.099 A 
ATOM     20  C   UNL d   1     -44.862  13.189  21.901  0.00  0.00     0.021 A 
ATOM     21  C   UNL d   1     -45.657  13.280  22.097  0.00  0.00     0.005 A 
ENDBRANCH   2  16
TORSDOF 2
ENDMDL
MODEL 3
REMARK VINA RESULT:      -6.0      8.395      9.558
REMARK  2 active torsions:
REMARK  status: ('A' for Active; 'I' for Inactive)
REMARK    1  A    between atoms: C_6  and  C_2 
REMARK    2  A    between atoms: C_7  and  C_3 
ROOT
ATOM      1  N   UNL d   1     -39.448  14.529  20.443  0.00  0.00    -0.238 NA
ATOM      2  C   UNL d   1     -39.724  14.415  21.198  0.00  0.00     0.112 A 
ATOM      3  C   UNL d   1     -40.096  14.506  19.929  0.00  0.00     0.088 A 
ATOM      4  S   UNL d   1     -40.542  14.319  21.172  0.00  0.00    -0.066 SA
ATOM      5  C   UNL d   1     -40.772  14.376  20.376  0.00  0.00     0.056 A 
ENDROOT
BRANCH   3   6
ATOM      6  C   UNL d   1     -40.147  14.586  19.117  0.00  0.00     0.020 A 
ATOM      7  C   UNL d   1     -40.623  15.183  18.777  0.00  0.00     0.028 A 
ATOM      8  C   UNL d   1     -40.669  15.257  17.934  0.00  0.00     0.123 A 
ATOM      9  O   UNL d   1     -41.135  15.841  17.603  0.00  0.00    -0.301 OA
ATOM     10  C   UNL d   1     -40.245  14.742  17.456  0.00  0.00     0.123 A 
ATOM     11  C   UNL d   1     -41.186  15.921  16.792  0.00  0.00     0.149 A 
ATOM     12  C   UNL d   1     -40.765  15.410  16.301  0.00  0.00     0.149 A 
ATOM     13  O   UNL d   1     -40.293  14.819  16.630  0.00  0.00    -0.301 OA
ATOM     14  C   UNL d   1     -39.775  14.153  17.810  0.00  0.00     0.027 A 
ATOM     15  C   UNL d   1     -39.722  14.071  18.630  0.00  0.00     0.004 A 
ENDBRANCH   3   6
BRANCH   2  16
ATOM     16  C   UNL d   1     -39.325  14.385  21.930  0.00  0.00     0.043 A 
ATOM     17  C   UNL d   1     -39.104  15.079  22.314  0.00  0.00     0.101 A 
ATOM     18  N   UNL d   1     -38.703  15.037  23.048  0.00  0.00    -0.242 NA
ATOM     19  C   UNL d   1     -38.529  14.293  23.390  0.00  0.00     0.099 A 
ATOM     20  C   UNL d   1     -38.756  13.606  22.997  0.00  0.00     0.021 A 
ATOM     21  C   UNL d   1     -39.150  13.645  22.274  0.00  0.00     0.005 A 
ENDBRANCH   2  16
TORSDOF 2
ENDMDL
MODEL 4
REMARK VINA RESULT:      -5.9      8.438      9.074
REMARK  2 active torsions:
REMARK  status: ('A' for Active; 'I' for Inactive)
REMARK    1  A    between atoms: C_6  and  C_2 
REMARK    2  A    between atoms: C_7  and  C_3 
ROOT
ATOM      1  N   UNL d   1     -39.829  14.998  19.842  0.00  0.00    -0.238 NA
ATOM      2  C   UNL d   1     -40.429  15.290  19.379  0.00  0.00     0.112 A 
ATOM      3  C   UNL d   1     -39.977  15.229  20.623  0.00  0.00     0.088 A 
ATOM      4  S   UNL d   1     -40.957  15.705  19.854  0.00  0.00    -0.066 SA
ATOM      5  C   UNL d   1     -40.673  15.666  20.633  0.00  0.00     0.056 A 
ENDROOT
BRANCH   3   6
ATOM      6  C   UNL d   1     -39.565  15.095  21.316  0.00  0.00     0.020 A 
ATOM      7  C   UNL d   1     -39.426  14.316  21.584  0.00  0.00     0.028 A 
ATOM      8  C   UNL d   1     -38.996  14.189  22.305  0.00  0.00     0.123 A 
ATOM      9  O   UNL d   1     -38.861  13.426  22.567  0.00  0.00    -0.301 OA
ATOM     10  C   UNL d   1     -38.719  14.831  22.734  0.00  0.00     0.123 A 
ATOM     11  C   UNL d   1     -38.449  13.292  23.258  0.00  0.00     0.149 A 
ATOM     12  C   UNL d   1     -38.166  13.929  23.698  0.00  0.00     0.149 A 
ATOM     13  O   UNL d   1     -38.300  14.701  23.438  0.00  0.00    -0.301 OA
ATOM     14  C   UNL d   1     -38.867  15.601  22.452  0.00  0.00     0.027 A 
ATOM     15  C   UNL d   1     -39.283  15.737  21.753  0.00  0.00     0.004 A 
ENDBRANCH   3   6
BRANCH   2  16
ATOM     16  C   UNL d   1     -40.566  15.230  18.558  0.00  0.00     0.043 A 
ATOM     17  C   UNL d   1     -40.688  14.494  18.207  0.00  0.00     0.101 A 
ATOM     18  N   UNL d   1     -40.825  14.446  17.383  0.00  0.00    -0.242 NA
ATOM     19  C   UNL d   1     -40.838  15.142  16.917  0.00  0.00     0.099 A 
ATOM     20  C   UNL d   1     -40.716  15.871  17.279  0.00  0.00     0.021 A 
ATOM     21  C   UNL d   1     -40.580  15.922  18.090  0.00  0.00     0.005 A 
ENDBRANCH   2  16
TORSDOF 2
ENDMDL
MODEL 5
REMARK VINA RESULT:      -5.5      8.914     10.242
REMARK  2 active torsions:
REMARK  status: ('A' for Active; 'I' for Inactive)
REMARK    1  A    between atoms: C_6  and  C_2 
REMARK    2  A    between atoms: C_7  and  C_3 
ROOT
ATOM      1  N   UNL d   1     -39.046  14.862  18.717  0.00  0.00    -0.238 NA
ATOM      2  C   UNL d   1     -39.346  14.505  18.052  0.00  0.00     0.112 A 
ATOM      3  C   UNL d   1     -39.624  14.826  19.308  0.00  0.00     0.088 A 
ATOM      4  S   UNL d   1     -40.110  14.240  18.212  0.00  0.00    -0.066 SA
ATOM      5  C   UNL d   1     -40.282  14.443  18.999  0.00  0.00     0.056 A 
ENDROOT
BRANCH   3   6
ATOM      6  C   UNL d   1     -39.628  15.093  20.080  0.00  0.00     0.020 A 
ATOM      7  C   UNL d   1     -39.029  14.861  20.614  0.00  0.00     0.028 A 
ATOM      8  C   UNL d   1     -39.043  15.145  21.413  0.00  0.00     0.123 A 
ATOM      9  O   UNL d   1     -38.456  14.918  21.935  0.00  0.00    -0.301 OA
ATOM     10  C   UNL d   1     -39.645  15.647  21.657  0.00  0.00     0.123 A 
ATOM     11  C   UNL d   1     -38.460  15.185  22.706  0.00  0.00     0.149 A 
ATOM     12  C   UNL d   1     -39.060  15.689  22.963  0.00  0.00     0.149 A 
ATOM     13  O   UNL d   1     -39.654  15.922  22.440  0.00  0.00    -0.301 OA
ATOM     14  C   UNL d   1     -40.235  15.868  21.112  0.00  0.00     0.027 A 
ATOM     15  C   UNL d   1     -40.232  15.599  20.332  0.00  0.00     0.004 A 
ENDBRANCH   3   6
BRANCH   2  16
ATOM     16  C   UNL d   1     -39.012  14.381  17.297  0.00  0.00     0.043 A 
ATOM     17  C   UNL d   1     -39.031  14.977  16.730  0.00  0.00     0.101 A 
ATOM     18  N   UNL d   1     -38.693  14.842  15.976  0.00  0.00    -0.242 NA
ATOM     19  C   UNL d   1     -38.338  14.105  15.800  0.00  0.00     0.099 A 
ATOM     20  C   UNL d   1     -38.325  13.517  16.376  0.00  0.00     0.021 A 
ATOM     21  C   UNL d   1     -38.657  13.647  17.119  0.00  0.00     0.005 A 
ENDBRANCH   2  16
TORSDOF 2
ENDMDL
MODEL 6
REMARK VINA RESULT:      -5.4      9.422     10.425
REMARK  2 active torsions:
REMARK  status: ('A' for Active; 'I' for Inactive)
REMARK    1  A    between atoms: C_6  and  C_2 
REMARK    2  A    between atoms: C_7  and  C_3 
ROOT
ATOM      1  N   UNL d   1     -38.862  14.525  19.577  0.00  0.00    -0.238 NA
ATOM      2  C   UNL d   1     -39.415  14.686  20.150  0.00  0.00     0.112 A 
ATOM      3  C   UNL d   1     -39.266  14.337  18.880  0.00  0.00     0.088 A 
ATOM      4  S   UNL d   1     -40.168  14.603  19.825  0.00  0.00    -0.066 SA
ATOM      5  C   UNL d   1     -40.072  14.385  19.030  0.00  0.00     0.056 A 
ENDROOT
BRANCH   3   6
ATOM      6  C   UNL d   1     -38.997  14.132  18.136  0.00  0.00     0.020 A 
ATOM      7  C   UNL d   1     -38.771  14.720  17.587  0.00  0.00     0.028 A 
ATOM      8  C   UNL d   1     -38.493  14.495  16.818  0.00  0.00     0.123 A 
ATOM      9  O   UNL d   1     -38.272  15.071  16.282  0.00  0.00    -0.301 OA
ATOM     10  C   UNL d   1     -38.447  13.701  16.617  0.00  0.00     0.123 A 
ATOM     11  C   UNL d   1     -38.003  14.866  15.539  0.00  0.00     0.149 A 
ATOM     12  C   UNL d   1     -37.953  14.071  15.326  0.00  0.00     0.149 A 
ATOM     13  O   UNL d   1     -38.175  13.486  15.863  0.00  0.00    -0.301 OA
ATOM     14  C   UNL d   1     -38.677  13.127  17.176  0.00  0.00     0.027 A 
ATOM     15  C   UNL d   1     -38.948  13.334  17.927  0.00  0.00     0.004 A 
ENDBRANCH   3   6
BRANCH   2  16
ATOM     16  C   UNL d   1     -39.328  14.904  20.951  0.00  0.00     0.043 A 
ATOM     17  C   UNL d   1     -39.113  14.344  21.515  0.00  0.00     0.101 A 
ATOM     18  N   UNL d   1     -39.029  14.575  22.316  0.00  0.00    -0.242 NA
ATOM     19  C   UNL d   1     -39.163  15.370  22.541  0.00  0.00     0.099 A 
ATOM     20  C   UNL d   1     -39.378  15.920  21.967  0.00  0.00     0.021 A 
ATOM     21  C   UNL d   1     -39.461  15.696  21.178  0.00  0.00     0.005 A 
ENDBRANCH   2  16
TORSDOF 2
ENDMDL
