MODEL 1
REMARK VINA RESULT:      14.1      0.000      0.000
REMARK  1 active torsions:
REMARK  status: ('A' for Active; 'I' for Inactive)
REMARK    1  A    between atoms: C_5  and  C_1 
ROOT
ATOM      1  C   UNL d   1     -51.516  25.501  33.338  0.00  0.00     0.162 A 
ATOM      2  N   UNL d   1     -51.303  24.729  33.334  0.00  0.00    -0.225 NA
ATOM      3  N   UNL d   1     -52.308  25.583  33.342  0.00  0.00    -0.225 NA
ATOM      4  C   UNL d   1     -52.014  24.277  33.336  0.00  0.00     0.101 A 
ATOM      5  C   UNL d   1     -52.639  24.807  33.341  0.00  0.00     0.101 A 
ATOM      6  C   UNL d   1     -52.148  23.461  33.333  0.00  0.00     0.021 A 
ATOM      7  C   UNL d   1     -53.414  24.535  33.344  0.00  0.00     0.021 A 
ATOM      8  C   UNL d   1     -53.561  23.721  33.341  0.00  0.00     0.002 A 
ATOM      9  C   UNL d   1     -52.936  23.191  33.336  0.00  0.00     0.002 A 
ENDROOT
BRANCH   1  10
ATOM     10  C   UNL d   1     -50.988  26.123  33.338  0.00  0.00     0.036 A 
ATOM     11  C   UNL d   1     -50.177  25.983  33.327  0.00  0.00     0.003 A 
ATOM     12  C   UNL d   1     -49.902  25.201  33.316  0.00  0.00     0.000 C 
ATOM     13  C   UNL d   1     -49.642  26.613  33.327  0.00  0.00     0.000 A 
ATOM     14  C   UNL d   1     -49.907  27.397  33.338  0.00  0.00     0.000 A 
ATOM     15  C   UNL d   1     -50.719  27.527  33.349  0.00  0.00     0.000 A 
ATOM     16  C   UNL d   1     -51.254  26.898  33.349  0.00  0.00     0.003 A 
ENDBRANCH   1  10
TORSDOF 1
ENDMDL
