MODEL 1
REMARK VINA RESULT:      -7.6      0.000      0.000
REMARK  5 active torsions:
REMARK  status: ('A' for Active; 'I' for Inactive)
REMARK    1  A    between atoms: S_3  and  C_1 
REMARK    2  A    between atoms: C_7  and  S_3 
REMARK    3  A    between atoms: N_11  and  C_4 
REMARK    4  A    between atoms: C_10  and  C_5 
REMARK    5  A    between atoms: C_24  and  N_11 
ROOT
ATOM      1  C   UNL d   1      50.271  34.193  52.455  0.00  0.00     0.042 A 
ATOM      2  C   UNL d   1      50.070  34.171  51.651  0.00  0.00     0.006 A 
ATOM      3  C   UNL d   1      49.810  34.586  53.000  0.00  0.00     0.006 A 
ATOM      4  C   UNL d   1      48.912  34.961  51.950  0.00  0.00     0.094 A 
ATOM      5  C   UNL d   1      49.381  34.561  51.399  0.00  0.00     0.024 A 
ATOM      6  C   UNL d   1      49.126  34.974  52.750  0.00  0.00     0.024 A 
ATOM      7  O   UNL d   1      48.220  35.348  51.676  0.00  0.00    -0.328 OA
ATOM      8  C   UNL d   1      47.531  35.738  51.423  0.00  0.00     0.181 C 
ENDROOT
BRANCH   1   9
ATOM      9  C   UNL d   1      50.961  33.803  52.715  0.00  0.00     0.186 A 
ATOM     10  N   UNL d   1      51.550  34.183  53.151  0.00  0.00    -0.206 NA
ATOM     11  C   UNL d   1      52.149  33.628  53.312  0.00  0.00     0.224 A 
ATOM     12  C   UNL d   1      51.919  32.917  52.973  0.00  0.00     0.265 A 
ATOM     13  O   UNL d   1      51.193  33.009  52.603  0.00  0.00    -0.260 OA
BRANCH  11  14
ATOM     14  S   UNL d   1      52.861  33.656  53.710  0.00  0.00     0.231 S 
ATOM     15  O   UNL d   1      52.998  33.991  52.887  0.00  0.00    -0.215 OA
ATOM     16  O   UNL d   1      52.763  33.340  54.506  0.00  0.00    -0.215 OA
BRANCH  14  17
ATOM     17  C   UNL d   1      53.593  33.686  54.115  0.00  0.00     0.090 A 
ATOM     18  C   UNL d   1      54.292  33.656  53.701  0.00  0.00     0.012 A 
ATOM     19  C   UNL d   1      55.005  33.686  54.105  0.00  0.00     0.007 A 
ATOM     20  C   UNL d   1      55.006  33.746  54.920  0.00  0.00     0.035 A 
ATOM     21  C   UNL d   1      54.304  33.778  55.348  0.00  0.00     0.007 A 
ATOM     22 BR   UNL d   1      55.736  33.778  55.338  0.00  0.00    -0.049 Br
ATOM     23  C   UNL d   1      53.591  33.748  54.944  0.00  0.00     0.012 A 
ENDBRANCH  14  17
ENDBRANCH  11  14
BRANCH  12  24
ATOM     24  N   UNL d   1      52.384  32.230  53.020  0.00  0.00    -0.373 NA
BRANCH  24  25
ATOM     25  C   UNL d   1      52.688  31.473  52.938  0.00  0.00     0.164 C 
ATOM     26  C   UNL d   1      52.563  30.659  52.884  0.00  0.00     0.037 C 
ENDBRANCH  24  25
ENDBRANCH  12  24
ENDBRANCH   1   9
TORSDOF 5
ENDMDL
MODEL 2
REMARK VINA RESULT:      -7.5      1.581      2.344
REMARK  5 active torsions:
REMARK  status: ('A' for Active; 'I' for Inactive)
REMARK    1  A    between atoms: S_3  and  C_1 
REMARK    2  A    between atoms: C_7  and  S_3 
REMARK    3  A    between atoms: N_11  and  C_4 
REMARK    4  A    between atoms: C_10  and  C_5 
REMARK    5  A    between atoms: C_24  and  N_11 
ROOT
ATOM      1  C   UNL d   1      49.483  34.816  52.390  0.00  0.00     0.042 A 
ATOM      2  C   UNL d   1      49.226  34.615  51.628  0.00  0.00     0.006 A 
ATOM      3  C   UNL d   1      49.029  35.278  52.886  0.00  0.00     0.006 A 
ATOM      4  C   UNL d   1      48.026  35.363  51.869  0.00  0.00     0.094 A 
ATOM      5  C   UNL d   1      48.487  34.894  51.368  0.00  0.00     0.024 A 
ATOM      6  C   UNL d   1      48.297  35.554  52.629  0.00  0.00     0.024 A 
ATOM      7  O   UNL d   1      47.284  35.634  51.589  0.00  0.00    -0.328 OA
ATOM      8  C   UNL d   1      46.545  35.912  51.327  0.00  0.00     0.181 C 
ENDROOT
BRANCH   1   9
ATOM      9  C   UNL d   1      50.223  34.540  52.659  0.00  0.00     0.186 A 
ATOM     10  N   UNL d   1      50.466  33.757  52.570  0.00  0.00    -0.206 NA
ATOM     11  C   UNL d   1      51.226  33.685  52.900  0.00  0.00     0.224 A 
ATOM     12  C   UNL d   1      51.438  34.424  53.187  0.00  0.00     0.265 A 
ATOM     13  O   UNL d   1      50.833  34.958  53.047  0.00  0.00    -0.260 OA
BRANCH  11  14
ATOM     14  S   UNL d   1      51.756  33.070  52.985  0.00  0.00     0.231 S 
ATOM     15  O   UNL d   1      51.163  33.010  53.657  0.00  0.00    -0.215 OA
ATOM     16  O   UNL d   1      52.340  33.098  52.352  0.00  0.00    -0.215 OA
BRANCH  14  17
ATOM     17  C   UNL d   1      52.297  32.437  53.075  0.00  0.00     0.090 A 
ATOM     18  C   UNL d   1      53.093  32.561  52.972  0.00  0.00     0.012 A 
ATOM     19  C   UNL d   1      53.617  31.936  53.062  0.00  0.00     0.007 A 
ATOM     20  C   UNL d   1      53.333  31.195  53.255  0.00  0.00     0.035 A 
ATOM     21  C   UNL d   1      52.528  31.059  53.361  0.00  0.00     0.007 A 
ATOM     22 BR   UNL d   1      53.867  30.551  53.348  0.00  0.00    -0.049 Br
ATOM     23  C   UNL d   1      52.004  31.684  53.271  0.00  0.00     0.012 A 
ENDBRANCH  14  17
ENDBRANCH  11  14
BRANCH  12  24
ATOM     24  N   UNL d   1      52.168  34.566  53.558  0.00  0.00    -0.373 NA
BRANCH  24  25
ATOM     25  C   UNL d   1      52.803  34.903  53.952  0.00  0.00     0.164 C 
ATOM     26  C   UNL d   1      53.131  35.545  54.352  0.00  0.00     0.037 C 
ENDBRANCH  24  25
ENDBRANCH  12  24
ENDBRANCH   1   9
TORSDOF 5
ENDMDL
MODEL 3
REMARK VINA RESULT:      -6.1      1.501      2.514
REMARK  5 active torsions:
REMARK  status: ('A' for Active; 'I' for Inactive)
REMARK    1  A    between atoms: S_3  and  C_1 
REMARK    2  A    between atoms: C_7  and  S_3 
REMARK    3  A    between atoms: N_11  and  C_4 
REMARK    4  A    between atoms: C_10  and  C_5 
REMARK    5  A    between atoms: C_24  and  N_11 
ROOT
ATOM      1  C   UNL d   1      50.686  34.032  52.620  0.00  0.00     0.042 A 
ATOM      2  C   UNL d   1      50.412  34.053  51.838  0.00  0.00     0.006 A 
ATOM      3  C   UNL d   1      50.314  34.447  53.214  0.00  0.00     0.006 A 
ATOM      4  C   UNL d   1      49.361  34.932  52.263  0.00  0.00     0.094 A 
ATOM      5  C   UNL d   1      49.740  34.510  51.661  0.00  0.00     0.024 A 
ATOM      6  C   UNL d   1      49.648  34.900  53.040  0.00  0.00     0.024 A 
ATOM      7  O   UNL d   1      48.686  35.387  52.064  0.00  0.00    -0.328 OA
ATOM      8  C   UNL d   1      48.014  35.844  51.886  0.00  0.00     0.181 C 
ENDROOT
BRANCH   1   9
ATOM      9  C   UNL d   1      51.360  33.575  52.805  0.00  0.00     0.186 A 
ATOM     10  N   UNL d   1      51.326  32.761  52.927  0.00  0.00    -0.206 NA
ATOM     11  C   UNL d   1      52.096  32.494  53.099  0.00  0.00     0.224 A 
ATOM     12  C   UNL d   1      52.589  33.150  53.080  0.00  0.00     0.265 A 
ATOM     13  O   UNL d   1      52.153  33.820  52.902  0.00  0.00    -0.260 OA
BRANCH  11  14
ATOM     14  S   UNL d   1      52.423  31.767  53.268  0.00  0.00     0.231 S 
ATOM     15  O   UNL d   1      52.123  32.113  54.040  0.00  0.00    -0.215 OA
ATOM     16  O   UNL d   1      52.723  31.406  52.544  0.00  0.00    -0.215 OA
BRANCH  14  17
ATOM     17  C   UNL d   1      52.759  31.020  53.445  0.00  0.00     0.090 A 
ATOM     18  C   UNL d   1      52.890  30.478  52.854  0.00  0.00     0.012 A 
ATOM     19  C   UNL d   1      53.219  29.749  53.036  0.00  0.00     0.007 A 
ATOM     20  C   UNL d   1      53.412  29.575  53.810  0.00  0.00     0.035 A 
ATOM     21  C   UNL d   1      53.283  30.116  54.416  0.00  0.00     0.007 A 
ATOM     22 BR   UNL d   1      53.750  28.828  54.001  0.00  0.00    -0.049 Br
ATOM     23  C   UNL d   1      52.954  30.845  54.234  0.00  0.00     0.012 A 
ENDBRANCH  14  17
ENDBRANCH  11  14
BRANCH  12  24
ATOM     24  N   UNL d   1      53.406  33.097  53.227  0.00  0.00    -0.373 NA
BRANCH  24  25
ATOM     25  C   UNL d   1      54.207  33.252  53.305  0.00  0.00     0.164 C 
ATOM     26  C   UNL d   1      54.825  33.603  53.723  0.00  0.00     0.037 C 
ENDBRANCH  24  25
ENDBRANCH  12  24
ENDBRANCH   1   9
TORSDOF 5
ENDMDL
MODEL 4
REMARK VINA RESULT:      -6.0      2.197      5.106
REMARK  5 active torsions:
REMARK  status: ('A' for Active; 'I' for Inactive)
REMARK    1  A    between atoms: S_3  and  C_1 
REMARK    2  A    between atoms: C_7  and  S_3 
REMARK    3  A    between atoms: N_11  and  C_4 
REMARK    4  A    between atoms: C_10  and  C_5 
REMARK    5  A    between atoms: C_24  and  N_11 
ROOT
ATOM      1  C   UNL d   1      52.783  31.422  53.579  0.00  0.00     0.042 A 
ATOM      2  C   UNL d   1      53.319  31.304  54.200  0.00  0.00     0.006 A 
ATOM      3  C   UNL d   1      52.540  30.807  53.102  0.00  0.00     0.006 A 
ATOM      4  C   UNL d   1      53.370  29.914  53.852  0.00  0.00     0.094 A 
ATOM      5  C   UNL d   1      53.614  30.539  54.336  0.00  0.00     0.024 A 
ATOM      6  C   UNL d   1      52.833  30.048  53.235  0.00  0.00     0.024 A 
ATOM      7  O   UNL d   1      53.679  29.150  54.005  0.00  0.00    -0.328 OA
ATOM      8  C   UNL d   1      53.974  28.385  54.141  0.00  0.00     0.181 C 
ENDROOT
BRANCH   1   9
ATOM      9  C   UNL d   1      52.482  32.187  53.437  0.00  0.00     0.186 A 
ATOM     10  N   UNL d   1      51.725  32.320  53.138  0.00  0.00    -0.206 NA
ATOM     11  C   UNL d   1      51.617  33.142  53.069  0.00  0.00     0.224 A 
ATOM     12  C   UNL d   1      52.308  33.501  53.326  0.00  0.00     0.265 A 
ATOM     13  O   UNL d   1      52.848  32.928  53.555  0.00  0.00    -0.260 OA
BRANCH  11  14
ATOM     14  S   UNL d   1      51.004  33.618  52.815  0.00  0.00     0.231 S 
ATOM     15  O   UNL d   1      50.791  33.319  53.635  0.00  0.00    -0.215 OA
ATOM     16  O   UNL d   1      51.178  33.922  52.027  0.00  0.00    -0.215 OA
BRANCH  14  17
ATOM     17  C   UNL d   1      50.374  34.105  52.557  0.00  0.00     0.090 A 
ATOM     18  C   UNL d   1      50.210  34.180  51.765  0.00  0.00     0.012 A 
ATOM     19  C   UNL d   1      49.591  34.660  51.521  0.00  0.00     0.007 A 
ATOM     20  C   UNL d   1      49.145  35.058  52.077  0.00  0.00     0.035 A 
ATOM     21  C   UNL d   1      49.302  34.989  52.882  0.00  0.00     0.007 A 
ATOM     22 BR   UNL d   1      48.509  35.551  51.830  0.00  0.00    -0.049 Br
ATOM     23  C   UNL d   1      49.921  34.509  53.126  0.00  0.00     0.012 A 
ENDBRANCH  14  17
ENDBRANCH  11  14
BRANCH  12  24
ATOM     24  N   UNL d   1      52.405  34.326  53.337  0.00  0.00    -0.373 NA
BRANCH  24  25
ATOM     25  C   UNL d   1      52.688  35.089  53.443  0.00  0.00     0.164 C 
ATOM     26  C   UNL d   1      53.184  35.613  53.842  0.00  0.00     0.037 C 
ENDBRANCH  24  25
ENDBRANCH  12  24
ENDBRANCH   1   9
TORSDOF 5
ENDMDL
