MODEL 1
REMARK VINA RESULT:      -7.8      0.000      0.000
REMARK  1 active torsions:
REMARK  status: ('A' for Active; 'I' for Inactive)
REMARK    1  A    between atoms: C_6  and  N_1 
ROOT
ATOM      1  N   UNL d   1      52.978  32.527  53.590  0.00  0.00    -0.204 N 
ATOM      2  C   UNL d   1      52.789  33.282  53.873  0.00  0.00     0.271 A 
ATOM      3  C   UNL d   1      53.729  32.324  53.873  0.00  0.00     0.270 A 
ATOM      4  C   UNL d   1      53.423  33.545  54.332  0.00  0.00     0.080 A 
ATOM      5  C   UNL d   1      53.997  32.961  54.332  0.00  0.00     0.064 A 
ATOM      6  O   UNL d   1      52.087  33.606  53.675  0.00  0.00    -0.266 OA
ATOM      7  O   UNL d   1      54.133  31.621  53.726  0.00  0.00    -0.266 OA
ATOM      8  N   UNL d   1      54.237  34.358  55.161  0.00  0.00    -0.242 NA
ATOM      9  C   UNL d   1      53.534  34.247  54.743  0.00  0.00     0.104 A 
ATOM     10  C   UNL d   1      54.697  33.075  54.750  0.00  0.00     0.026 A 
ATOM     11  C   UNL d   1      54.820  33.776  55.167  0.00  0.00     0.099 A 
ENDROOT
BRANCH   1  12
ATOM     12  C   UNL d   1      52.502  32.053  53.106  0.00  0.00     0.326 C 
ATOM     13  O   UNL d   1      52.632  32.040  52.291  0.00  0.00    -0.261 OA
ENDBRANCH   1  12
TORSDOF 1
ENDMDL
MODEL 2
REMARK VINA RESULT:      -7.5      1.159      2.406
REMARK  1 active torsions:
REMARK  status: ('A' for Active; 'I' for Inactive)
REMARK    1  A    between atoms: C_6  and  N_1 
ROOT
ATOM      1  N   UNL d   1      53.565  33.773  54.293  0.00  0.00    -0.204 N 
ATOM      2  C   UNL d   1      53.030  33.675  53.669  0.00  0.00     0.271 A 
ATOM      3  C   UNL d   1      53.903  33.037  54.464  0.00  0.00     0.270 A 
ATOM      4  C   UNL d   1      53.038  32.877  53.455  0.00  0.00     0.080 A 
ATOM      5  C   UNL d   1      53.570  32.488  53.940  0.00  0.00     0.064 A 
ATOM      6  O   UNL d   1      52.628  34.308  53.398  0.00  0.00    -0.266 OA
ATOM      7  O   UNL d   1      54.465  32.881  55.047  0.00  0.00    -0.266 OA
ATOM      8  N   UNL d   1      52.744  31.661  52.787  0.00  0.00    -0.242 NA
ATOM      9  C   UNL d   1      52.619  32.472  52.875  0.00  0.00     0.104 A 
ATOM     10  C   UNL d   1      53.691  31.679  53.849  0.00  0.00     0.026 A 
ATOM     11  C   UNL d   1      53.277  31.262  53.270  0.00  0.00     0.099 A 
ENDROOT
BRANCH   1  12
ATOM     12  C   UNL d   1      53.737  34.483  54.683  0.00  0.00     0.326 C 
ATOM     13  O   UNL d   1      53.302  34.700  55.350  0.00  0.00    -0.261 OA
ENDBRANCH   1  12
TORSDOF 1
ENDMDL
MODEL 3
REMARK VINA RESULT:      -7.5      1.310      2.709
REMARK  1 active torsions:
REMARK  status: ('A' for Active; 'I' for Inactive)
REMARK    1  A    between atoms: C_6  and  N_1 
ROOT
ATOM      1  N   UNL d   1      53.879  33.408  54.686  0.00  0.00    -0.204 N 
ATOM      2  C   UNL d   1      53.623  32.848  54.133  0.00  0.00     0.271 A 
ATOM      3  C   UNL d   1      53.445  34.104  54.571  0.00  0.00     0.270 A 
ATOM      4  C   UNL d   1      53.030  33.197  53.677  0.00  0.00     0.080 A 
ATOM      5  C   UNL d   1      52.921  33.964  53.944  0.00  0.00     0.064 A 
ATOM      6  O   UNL d   1      53.959  32.124  54.129  0.00  0.00    -0.266 OA
ATOM      7  O   UNL d   1      53.520  34.803  55.001  0.00  0.00    -0.266 OA
ATOM      8  N   UNL d   1      52.021  33.386  52.698  0.00  0.00    -0.242 NA
ATOM      9  C   UNL d   1      52.585  32.900  53.054  0.00  0.00     0.104 A 
ATOM     10  C   UNL d   1      52.359  34.446  53.586  0.00  0.00     0.026 A 
ATOM     11  C   UNL d   1      51.905  34.158  52.960  0.00  0.00     0.099 A 
ENDROOT
BRANCH   1  12
ATOM     12  C   UNL d   1      54.468  33.298  55.257  0.00  0.00     0.326 C 
ATOM     13  O   UNL d   1      55.230  33.583  55.121  0.00  0.00    -0.261 OA
ENDBRANCH   1  12
TORSDOF 1
ENDMDL
MODEL 4
REMARK VINA RESULT:      -7.1      0.912      1.720
REMARK  1 active torsions:
REMARK  status: ('A' for Active; 'I' for Inactive)
REMARK    1  A    between atoms: C_6  and  N_1 
ROOT
ATOM      1  N   UNL d   1      53.115  31.578  53.261  0.00  0.00    -0.204 N 
ATOM      2  C   UNL d   1      53.559  31.555  53.960  0.00  0.00     0.271 A 
ATOM      3  C   UNL d   1      52.937  32.368  53.092  0.00  0.00     0.270 A 
ATOM      4  C   UNL d   1      53.654  32.332  54.222  0.00  0.00     0.080 A 
ATOM      5  C   UNL d   1      53.275  32.829  53.692  0.00  0.00     0.064 A 
ATOM      6  O   UNL d   1      53.802  30.850  54.243  0.00  0.00    -0.266 OA
ATOM      7  O   UNL d   1      52.504  32.644  52.446  0.00  0.00    -0.266 OA
ATOM      8  N   UNL d   1      54.046  33.450  55.002  0.00  0.00    -0.242 NA
ATOM      9  C   UNL d   1      54.043  32.634  54.880  0.00  0.00     0.104 A 
ATOM     10  C   UNL d   1      53.281  33.642  53.818  0.00  0.00     0.026 A 
ATOM     11  C   UNL d   1      53.668  33.957  54.475  0.00  0.00     0.099 A 
ENDROOT
BRANCH   1  12
ATOM     12  C   UNL d   1      52.887  30.925  52.805  0.00  0.00     0.326 C 
ATOM     13  O   UNL d   1      52.390  30.352  53.131  0.00  0.00    -0.261 OA
ENDBRANCH   1  12
TORSDOF 1
ENDMDL
MODEL 5
REMARK VINA RESULT:      -6.6      1.284      1.956
REMARK  1 active torsions:
REMARK  status: ('A' for Active; 'I' for Inactive)
REMARK    1  A    between atoms: C_6  and  N_1 
ROOT
ATOM      1  N   UNL d   1      53.287  32.188  53.757  0.00  0.00    -0.204 N 
ATOM      2  C   UNL d   1      52.596  32.335  53.325  0.00  0.00     0.271 A 
ATOM      3  C   UNL d   1      53.636  32.916  53.944  0.00  0.00     0.270 A 
ATOM      4  C   UNL d   1      52.518  33.154  53.246  0.00  0.00     0.080 A 
ATOM      5  C   UNL d   1      53.153  33.508  53.624  0.00  0.00     0.064 A 
ATOM      6  O   UNL d   1      52.155  31.719  53.077  0.00  0.00    -0.266 OA
ATOM      7  O   UNL d   1      54.333  33.028  54.370  0.00  0.00    -0.266 OA
ATOM      8  N   UNL d   1      52.011  34.428  52.885  0.00  0.00    -0.242 NA
ATOM      9  C   UNL d   1      51.942  33.605  52.874  0.00  0.00     0.104 A 
ATOM     10  C   UNL d   1      53.218  34.328  53.633  0.00  0.00     0.026 A 
ATOM     11  C   UNL d   1      52.645  34.793  53.262  0.00  0.00     0.099 A 
ENDROOT
BRANCH   1  12
ATOM     12  C   UNL d   1      53.583  31.444  53.968  0.00  0.00     0.326 C 
ATOM     13  O   UNL d   1      54.131  31.067  53.478  0.00  0.00    -0.261 OA
ENDBRANCH   1  12
TORSDOF 1
ENDMDL
