MODEL 1
REMARK VINA RESULT:      27.8      0.000      0.000
REMARK  0 active torsions:
REMARK  status: ('A' for Active; 'I' for Inactive)
ROOT
ATOM      1  N   UNL d   1      46.187 -18.302  43.522  0.00  0.00    -0.176 N 
ATOM      2  C   UNL d   1      46.217 -17.908  42.797  0.00  0.00     0.167 A 
ATOM      3  N   UNL d   1      46.296 -19.093  43.559  0.00  0.00    -0.150 NA
ATOM      4  C   UNL d   1      46.041 -17.855  44.222  0.00  0.00     0.283 A 
ATOM      5  N   UNL d   1      46.099 -17.070  42.779  0.00  0.00    -0.227 NA
ATOM      6  C   UNL d   1      46.441 -19.534  42.861  0.00  0.00     0.159 A 
ATOM      7  C   UNL d   1      45.926 -17.034  44.200  0.00  0.00     0.076 A 
ATOM      8  C   UNL d   1      46.354 -18.308  42.116  0.00  0.00     0.038 A 
ATOM      9  C   UNL d   1      45.956 -16.640  43.476  0.00  0.00     0.088 A 
ATOM     10  C   UNL d   1      46.470 -19.140  42.137  0.00  0.00     0.033 A 
ATOM     11  O   UNL d   1      46.011 -18.252  44.952  0.00  0.00    -0.265 OA
ATOM     12 CL   UNL d   1      46.550 -20.329  42.897  0.00  0.00    -0.060 Cl
ATOM     13  C   UNL d   1      45.785 -16.613  44.888  0.00  0.00     0.006 A 
ATOM     14  C   UNL d   1      46.383 -17.914  41.392  0.00  0.00     0.003 A 
ATOM     15  C   UNL d   1      46.609 -19.544  41.453  0.00  0.00     0.003 A 
ATOM     16  C   UNL d   1      45.843 -15.828  43.444  0.00  0.00     0.019 A 
ATOM     17  C   UNL d   1      45.672 -15.798  44.863  0.00  0.00     0.000 A 
ATOM     18  C   UNL d   1      46.529 -18.352  40.689  0.00  0.00     0.000 A 
ATOM     19  C   UNL d   1      46.638 -19.150  40.729  0.00  0.00     0.000 A 
ATOM     20  C   UNL d   1      45.701 -15.404  44.139  0.00  0.00     0.002 A 
ENDROOT
TORSDOF 0
ENDMDL
MODEL 2
REMARK VINA RESULT:      28.7      1.244      2.105
REMARK  0 active torsions:
REMARK  status: ('A' for Active; 'I' for Inactive)
ROOT
ATOM      1  N   UNL d   1      46.264 -17.680  43.079  0.00  0.00    -0.176 N 
ATOM      2  C   UNL d   1      46.257 -17.955  43.857  0.00  0.00     0.167 A 
ATOM      3  N   UNL d   1      46.391 -18.183  42.471  0.00  0.00    -0.150 NA
ATOM      4  C   UNL d   1      46.135 -16.859  42.937  0.00  0.00     0.283 A 
ATOM      5  N   UNL d   1      46.121 -17.407  44.487  0.00  0.00    -0.227 NA
ATOM      6  C   UNL d   1      46.519 -18.999  42.615  0.00  0.00     0.159 A 
ATOM      7  C   UNL d   1      46.003 -16.324  43.556  0.00  0.00     0.076 A 
ATOM      8  C   UNL d   1      46.377 -18.731  44.020  0.00  0.00     0.038 A 
ATOM      9  C   UNL d   1      45.996 -16.600  44.334  0.00  0.00     0.088 A 
ATOM     10  C   UNL d   1      46.512 -19.274  43.393  0.00  0.00     0.033 A 
ATOM     11  O   UNL d   1      46.142 -16.582  42.153  0.00  0.00    -0.265 OA
ATOM     12 CL   UNL d   1      46.646 -19.506  42.005  0.00  0.00    -0.060 Cl
ATOM     13  C   UNL d   1      45.879 -15.530  43.405  0.00  0.00     0.006 A 
ATOM     14  C   UNL d   1      46.370 -19.006  44.798  0.00  0.00     0.003 A 
ATOM     15  C   UNL d   1      46.632 -20.055  43.555  0.00  0.00     0.003 A 
ATOM     16  C   UNL d   1      45.865 -16.078  44.954  0.00  0.00     0.019 A 
ATOM     17  C   UNL d   1      45.747 -15.001  44.022  0.00  0.00     0.000 A 
ATOM     18  C   UNL d   1      46.498 -19.824  44.948  0.00  0.00     0.000 A 
ATOM     19  C   UNL d   1      46.625 -20.330  44.332  0.00  0.00     0.000 A 
ATOM     20  C   UNL d   1      45.740 -15.276  44.800  0.00  0.00     0.002 A 
ENDROOT
TORSDOF 0
ENDMDL
MODEL 3
REMARK VINA RESULT:      28.9      6.851      7.542
REMARK  0 active torsions:
REMARK  status: ('A' for Active; 'I' for Inactive)
ROOT
ATOM      1  N   UNL d   1      44.523 -15.888  36.646  0.00  0.00    -0.176 N 
ATOM      2  C   UNL d   1      44.475 -15.079  36.802  0.00  0.00     0.167 A 
ATOM      3  N   UNL d   1      45.230 -16.260  36.644  0.00  0.00    -0.150 NA
ATOM      4  C   UNL d   1      43.813 -16.315  36.488  0.00  0.00     0.283 A 
ATOM      5  N   UNL d   1      43.716 -14.704  36.800  0.00  0.00    -0.227 NA
ATOM      6  C   UNL d   1      45.934 -15.833  36.801  0.00  0.00     0.159 A 
ATOM      7  C   UNL d   1      43.072 -15.944  36.486  0.00  0.00     0.076 A 
ATOM      8  C   UNL d   1      45.134 -14.649  36.956  0.00  0.00     0.038 A 
ATOM      9  C   UNL d   1      43.023 -15.135  36.643  0.00  0.00     0.088 A 
ATOM     10  C   UNL d   1      45.886 -15.025  36.957  0.00  0.00     0.033 A 
ATOM     11  O   UNL d   1      43.862 -17.129  36.330  0.00  0.00    -0.265 OA
ATOM     12 CL   UNL d   1      46.647 -16.206  36.799  0.00  0.00    -0.060 Cl
ATOM     13  C   UNL d   1      42.390 -16.370  36.332  0.00  0.00     0.006 A 
ATOM     14  C   UNL d   1      45.085 -13.841  37.112  0.00  0.00     0.003 A 
ATOM     15  C   UNL d   1      46.550 -14.595  37.111  0.00  0.00     0.003 A 
ATOM     16  C   UNL d   1      42.294 -14.759  36.644  0.00  0.00     0.019 A 
ATOM     17  C   UNL d   1      41.655 -15.998  36.331  0.00  0.00     0.000 A 
ATOM     18  C   UNL d   1      45.789 -13.408  37.271  0.00  0.00     0.000 A 
ATOM     19  C   UNL d   1      46.502 -13.786  37.268  0.00  0.00     0.000 A 
ATOM     20  C   UNL d   1      41.607 -15.190  36.487  0.00  0.00     0.002 A 
ENDROOT
TORSDOF 0
ENDMDL
