MODEL 1
REMARK VINA RESULT:      43.2      0.000      0.000
REMARK  4 active torsions:
REMARK  status: ('A' for Active; 'I' for Inactive)
REMARK    1  A    between atoms: N_3  and  C_2 
REMARK       I    between atoms: C_6  and  N_3 
REMARK    2  A    between atoms: C_8  and  C_4 
REMARK    3  A    between atoms: C_9  and  C_6 
REMARK    4  A    between atoms: C_12  and  C_8 
ROOT
ATOM      1  N   UNL d   1     -50.677  26.667  33.859  0.00  0.00    -0.181 NA
ATOM      2  C   UNL d   1     -50.593  25.907  33.545  0.00  0.00     0.281 C 
ATOM      3  O   UNL d   1     -49.855  25.635  33.314  0.00  0.00    -0.265 OA
ENDROOT
BRANCH   1   4
ATOM      4  C   UNL d   1     -50.022  27.157  33.941  0.00  0.00     0.216 A 
ATOM      5  N   UNL d   1     -49.570  27.255  34.624  0.00  0.00    -0.200 NA
ATOM      6  C   UNL d   1     -48.967  27.798  34.457  0.00  0.00     0.175 A 
ATOM      7  N   UNL d   1     -49.053  28.032  33.661  0.00  0.00    -0.187 NA
ATOM      8  S   UNL d   1     -49.698  27.637  33.354  0.00  0.00     0.054 SA
BRANCH   6   9
ATOM      9  C   UNL d   1     -48.391  28.056  34.982  0.00  0.00     0.082 C 
BRANCH   9  10
ATOM     10  C   UNL d   1     -48.340  28.857  35.182  0.00  0.00     0.199 C 
ATOM     11  O   UNL d   1     -48.977  29.357  35.021  0.00  0.00    -0.286 OA
ATOM     12  C   UNL d   1     -47.656  29.156  35.540  0.00  0.00     0.045 C 
ENDBRANCH   9  10
ENDBRANCH   6   9
ENDBRANCH   1   4
BRANCH   2  13
ATOM     13  C   UNL d   1     -51.255  25.422  33.465  0.00  0.00     0.060 A 
ATOM     14  C   UNL d   1     -51.163  24.600  33.425  0.00  0.00     0.034 A 
ATOM     15  C   UNL d   1     -51.821  24.111  33.345  0.00  0.00     0.140 A 
ATOM     16  F   UNL d   1     -51.719  23.293  33.306  0.00  0.00    -0.204 F 
ATOM     17  C   UNL d   1     -52.570  24.444  33.306  0.00  0.00     0.030 A 
ATOM     18  C   UNL d   1     -52.666  25.262  33.345  0.00  0.00     0.003 A 
ATOM     19  C   UNL d   1     -52.007  25.751  33.425  0.00  0.00     0.005 A 
ENDBRANCH   2  13
TORSDOF 4
ENDMDL
