MODEL 1
REMARK VINA RESULT:      59.5      0.000      0.000
REMARK  4 active torsions:
REMARK  status: ('A' for Active; 'I' for Inactive)
REMARK    1  A    between atoms: C_4  and  C_1 
REMARK    2  A    between atoms: N_7  and  C_2 
REMARK       I    between atoms: N_8  and  C_4 
REMARK       I    between atoms: C_11  and  N_7 
REMARK    3  A    between atoms: C_13  and  N_8 
REMARK    4  A    between atoms: C_22  and  C_11 
ROOT
ATOM      1  C   UNL d   1     -57.056 -98.976 -44.671  0.00  0.00     0.175 A 
ATOM      2  C   UNL d   1     -57.830 -98.936 -44.677  0.00  0.00     0.114 A 
ATOM      3  O   UNL d   1     -56.822 -98.938 -43.937  0.00  0.00    -0.301 OA
ATOM      4  C   UNL d   1     -58.074 -98.872 -43.946  0.00  0.00     0.043 A 
ATOM      5  C   UNL d   1     -57.450 -98.873 -43.486  0.00  0.00     0.102 A 
ATOM      6  C   UNL d   1     -58.775 -98.813 -43.640  0.00  0.00     0.004 A 
ATOM      7  C   UNL d   1     -57.530 -98.816 -42.726  0.00  0.00     0.025 A 
ATOM      8  C   UNL d   1     -58.857 -98.756 -42.872  0.00  0.00     0.000 A 
ATOM      9  C   UNL d   1     -58.235 -98.757 -42.418  0.00  0.00     0.002 A 
ENDROOT
BRANCH   1  10
ATOM     10  C   UNL d   1     -56.604 -99.043 -45.283  0.00  0.00     0.303 C 
ATOM     11  N   UNL d   1     -55.348 -99.828 -45.063  0.00  0.00    -0.206 NA
ATOM     12  O   UNL d   1     -56.719 -98.757 -45.987  0.00  0.00    -0.263 OA
BRANCH  11  13
ATOM     13  C   UNL d   1     -55.190-100.153 -44.315  0.00  0.00     0.087 A 
ATOM     14  C   UNL d   1     -55.350-100.955 -44.169  0.00  0.00     0.046 A 
ATOM     15  C   UNL d   1     -55.193-101.277 -43.425  0.00  0.00     0.124 A 
ATOM     16  O   UNL d   1     -55.351-102.082 -43.272  0.00  0.00    -0.301 OA
ATOM     17  C   UNL d   1     -54.873-100.807 -42.809  0.00  0.00     0.123 A 
ATOM     18  C   UNL d   1     -55.194-102.405 -42.527  0.00  0.00     0.149 A 
ATOM     19  C   UNL d   1     -54.878-101.934 -41.924  0.00  0.00     0.149 A 
ATOM     20  O   UNL d   1     -54.716-101.118 -42.073  0.00  0.00    -0.301 OA
ATOM     21  C   UNL d   1     -54.715-100.002 -42.963  0.00  0.00     0.028 A 
ATOM     22  C   UNL d   1     -54.875 -99.673 -43.721  0.00  0.00     0.021 A 
ENDBRANCH  11  13
ENDBRANCH   1  10
BRANCH   2  23
ATOM     23  N   UNL d   1     -58.276 -98.956 -45.307  0.00  0.00    -0.206 NA
ATOM     24  C   UNL d   1     -59.103 -98.914 -45.235  0.00  0.00     0.279 C 
ATOM     25  O   UNL d   1     -59.455 -98.848 -44.479  0.00  0.00    -0.265 OA
BRANCH  24  26
ATOM     26  C   UNL d   1     -59.582 -98.936 -45.920  0.00  0.00     0.062 C 
ATOM     27  C   UNL d   1     -59.231 -98.913 -46.667  0.00  0.00     0.005 C 
ENDBRANCH  24  26
ENDBRANCH   2  23
TORSDOF 4
ENDMDL
