MODEL 1
REMARK VINA RESULT:     142.8      0.000      0.000
REMARK  3 active torsions:
REMARK  status: ('A' for Active; 'I' for Inactive)
REMARK    1  A    between atoms: C_8  and  N_1 
REMARK    2  A    between atoms: C_9  and  C_14 
REMARK       I    between atoms: N_10  and  C_9 
REMARK    3  A    between atoms: C_16  and  N_12 
ROOT
ATOM      1  C   UNL d   1      60.308  48.880  50.728  0.00  0.00     0.066 A 
ATOM      2  C   UNL d   1      61.558  48.270  50.397  0.00  0.00     0.058 A 
ATOM      3  C   UNL d   1      60.772  48.443  50.211  0.00  0.00     0.022 A 
ATOM      4  C   UNL d   1      60.627  49.153  51.444  0.00  0.00     0.017 A 
ATOM      5  C   UNL d   1      61.877  48.544  51.114  0.00  0.00     0.005 A 
ATOM      6  C   UNL d   1      61.409  48.982  51.632  0.00  0.00     0.002 A 
ENDROOT
BRANCH   1   7
ATOM      7  N   UNL d   1      59.526  49.050  50.541  0.00  0.00    -0.261 N 
ATOM      8  C   UNL d   1      59.009  48.891  51.163  0.00  0.00     0.174 A 
ATOM      9  O   UNL d   1      58.188  48.958  51.271  0.00  0.00    -0.316 OA
ATOM     10  C   UNL d   1      58.793  49.338  50.012  0.00  0.00     0.079 A 
ATOM     11  C   UNL d   1      59.238  48.594  51.894  0.00  0.00     0.055 C 
ATOM     12  C   UNL d   1      57.554  49.209  50.809  0.00  0.00     0.094 A 
ATOM     13  C   UNL d   1      56.877  49.123  51.285  0.00  0.00     0.024 A 
ATOM     14  C   UNL d   1      57.472  49.500  50.039  0.00  0.00     0.022 A 
ATOM     15  C   UNL d   1      56.135  49.327  50.991  0.00  0.00     0.002 A 
ATOM     16  C   UNL d   1      56.060  49.618  50.220  0.00  0.00    -0.000 A 
ATOM     17  C   UNL d   1      56.729  49.704  49.745  0.00  0.00    -0.001 A 
ATOM     18  C   UNL d   1      57.988  49.659  49.418  0.00  0.00     0.137 A 
ATOM     19  N   UNL d   1      58.813  49.595  49.301  0.00  0.00    -0.216 NA
ATOM     20  C   UNL d   1      59.447  49.344  49.763  0.00  0.00     0.348 A 
ATOM     21  O   UNL d   1      60.164  49.396  49.364  0.00  0.00    -0.245 OA
ENDBRANCH   1   7
BRANCH   2  22
ATOM     22  C   UNL d   1      62.020  47.830  49.873  0.00  0.00     0.265 C 
ATOM     23  N   UNL d   1      61.997  47.008  49.896  0.00  0.00    -0.269 N 
ATOM     24  C   UNL d   1      61.516  46.614  50.439  0.00  0.00     0.102 A 
ATOM     25  C   UNL d   1      62.462  46.567  49.368  0.00  0.00     0.102 A 
ATOM     26  C   UNL d   1      61.499  45.792  50.456  0.00  0.00     0.100 A 
ATOM     27  N   UNL d   1      61.963  45.352  49.928  0.00  0.00    -0.299 N 
ATOM     28  C   UNL d   1      62.444  45.746  49.385  0.00  0.00     0.100 A 
ATOM     29  O   UNL d   1      62.504  48.220  49.326  0.00  0.00    -0.267 OA
BRANCH  27  30
ATOM     30  C   UNL d   1      61.943  44.530  49.948  0.00  0.00     0.092 A 
ATOM     31  C   UNL d   1      61.760  44.144  50.653  0.00  0.00     0.156 A 
ATOM     32  F   UNL d   1      61.599  44.584  51.333  0.00  0.00    -0.203 F 
ATOM     33  C   UNL d   1      61.738  43.315  50.679  0.00  0.00     0.031 A 
ATOM     34  C   UNL d   1      61.902  42.882  49.989  0.00  0.00     0.002 A 
ATOM     35  C   UNL d   1      62.085  43.276  49.283  0.00  0.00     0.002 A 
ATOM     36  C   UNL d   1      62.104  44.099  49.267  0.00  0.00     0.020 A 
ENDBRANCH  27  30
ENDBRANCH   2  22
TORSDOF 3
ENDMDL
