MODEL 1
REMARK VINA RESULT:      16.0      0.000      0.000
REMARK  3 active torsions:
REMARK  status: ('A' for Active; 'I' for Inactive)
REMARK    1  A    between atoms: S_6  and  C_1 
REMARK    2  A    between atoms: C_8  and  S_6 
REMARK    3  A    between atoms: C_7  and  C_8 
ROOT
ATOM      1  C   UNL d   1      13.847  12.052  -2.264  0.00  0.00     0.194 A 
ATOM      2  N   UNL d   1      14.617  11.785  -2.115  0.00  0.00    -0.220 NA
ATOM      3  N   UNL d   1      13.631  12.580  -1.648  0.00  0.00    -0.220 NA
ATOM      4  C   UNL d   1      14.878  12.144  -1.413  0.00  0.00     0.101 A 
ATOM      5  C   UNL d   1      14.269  12.635  -1.125  0.00  0.00     0.101 A 
ATOM      6  C   UNL d   1      15.595  12.085  -0.998  0.00  0.00     0.021 A 
ATOM      7  C   UNL d   1      14.394  13.059  -0.423  0.00  0.00     0.021 A 
ATOM      8  C   UNL d   1      15.106  12.997  -0.015  0.00  0.00     0.002 A 
ATOM      9  C   UNL d   1      15.707  12.511  -0.303  0.00  0.00     0.002 A 
ENDROOT
BRANCH   1  10
ATOM     10  S   UNL d   1      13.370  11.841  -2.903  0.00  0.00    -0.048 SA
BRANCH  10  11
ATOM     11  C   UNL d   1      12.948  12.417  -3.322  0.00  0.00     0.041 C 
BRANCH  11  12
ATOM     12  C   UNL d   1      13.021  12.460  -4.143  0.00  0.00     0.034 A 
ATOM     13  C   UNL d   1      12.983  13.197  -4.515  0.00  0.00     0.141 A 
ATOM     14  F   UNL d   1      12.874  13.875  -4.062  0.00  0.00    -0.204 F 
ATOM     15  C   UNL d   1      13.055  13.248  -5.335  0.00  0.00     0.030 A 
ATOM     16  C   UNL d   1      13.164  12.560  -5.775  0.00  0.00     0.002 A 
ATOM     17  C   UNL d   1      13.202  11.824  -5.407  0.00  0.00     0.000 A 
ATOM     18  C   UNL d   1      13.130  11.781  -4.586  0.00  0.00     0.003 A 
ENDBRANCH  11  12
ENDBRANCH  10  11
ENDBRANCH   1  10
TORSDOF 3
ENDMDL
MODEL 2
REMARK VINA RESULT:      18.0      1.254      4.174
REMARK  3 active torsions:
REMARK  status: ('A' for Active; 'I' for Inactive)
REMARK    1  A    between atoms: S_6  and  C_1 
REMARK    2  A    between atoms: C_8  and  S_6 
REMARK    3  A    between atoms: C_7  and  C_8 
ROOT
ATOM      1  C   UNL d   1      13.341  12.283  -3.288  0.00  0.00     0.194 A 
ATOM      2  N   UNL d   1      12.951  11.788  -3.825  0.00  0.00    -0.220 NA
ATOM      3  N   UNL d   1      13.763  12.862  -3.726  0.00  0.00    -0.220 NA
ATOM      4  C   UNL d   1      13.128  12.057  -4.591  0.00  0.00     0.101 A 
ATOM      5  C   UNL d   1      13.629  12.720  -4.529  0.00  0.00     0.101 A 
ATOM      6  C   UNL d   1      12.895  11.780  -5.339  0.00  0.00     0.021 A 
ATOM      7  C   UNL d   1      13.888  13.094  -5.224  0.00  0.00     0.021 A 
ATOM      8  C   UNL d   1      13.654  12.816  -5.963  0.00  0.00     0.002 A 
ATOM      9  C   UNL d   1      13.158  12.159  -6.020  0.00  0.00     0.002 A 
ENDROOT
BRANCH   1  10
ATOM     10  S   UNL d   1      13.324  12.224  -2.465  0.00  0.00    -0.048 SA
BRANCH  10  11
ATOM     11  C   UNL d   1      13.895  11.780  -2.063  0.00  0.00     0.041 C 
BRANCH  11  12
ATOM     12  C   UNL d   1      14.244  12.086  -1.381  0.00  0.00     0.034 A 
ATOM     13  C   UNL d   1      15.044  12.292  -1.392  0.00  0.00     0.141 A 
ATOM     14  F   UNL d   1      15.480  12.190  -2.082  0.00  0.00    -0.204 F 
ATOM     15  C   UNL d   1      15.400  12.599  -0.713  0.00  0.00     0.030 A 
ATOM     16  C   UNL d   1      14.951  12.696  -0.030  0.00  0.00     0.002 A 
ATOM     17  C   UNL d   1      14.153  12.491  -0.015  0.00  0.00     0.000 A 
ATOM     18  C   UNL d   1      13.804  12.185  -0.698  0.00  0.00     0.003 A 
ENDBRANCH  11  12
ENDBRANCH  10  11
ENDBRANCH   1  10
TORSDOF 3
ENDMDL
