MODEL 1
REMARK VINA RESULT:      95.1      0.000      0.000
REMARK  7 active torsions:
REMARK  status: ('A' for Active; 'I' for Inactive)
REMARK    1  A    between atoms: C_13  and  C_4 
REMARK    2  A    between atoms: N_16  and  C_6 
REMARK    3  A    between atoms: C_17  and  C_9 
REMARK    4  A    between atoms: N_11  and  C_19 
REMARK    5  A    between atoms: C_21  and  N_16 
REMARK    6  A    between atoms: C_19  and  C_20 
REMARK    7  A    between atoms: C_20  and  C_21 
ROOT
ATOM      1  C   UNL d   1     -57.464 -98.964 -43.897  0.00  0.00     0.168 A 
ATOM      2  N   UNL d   1     -58.019 -99.026 -44.510  0.00  0.00    -0.184 N 
ATOM      3  N   UNL d   1     -56.964 -99.074 -45.459  0.00  0.00    -0.162 NA
ATOM      4  C   UNL d   1     -56.677 -98.959 -44.068  0.00  0.00     0.055 A 
ATOM      5  N   UNL d   1     -57.725 -98.910 -43.124  0.00  0.00    -0.227 NA
ATOM      6  C   UNL d   1     -58.813 -99.030 -44.327  0.00  0.00     0.218 A 
ATOM      7  C   UNL d   1     -56.409 -99.013 -44.847  0.00  0.00     0.104 A 
ATOM      8  C   UNL d   1     -59.072 -98.974 -43.527  0.00  0.00     0.071 A 
ATOM      9  C   UNL d   1     -58.516 -98.916 -42.950  0.00  0.00     0.087 A 
ATOM     10  C   UNL d   1     -55.625 -99.007 -45.015  0.00  0.00     0.023 C 
ENDROOT
BRANCH   6  11
ATOM     11  N   UNL d   1     -59.385 -99.093 -44.953  0.00  0.00    -0.380 NA
BRANCH  11  12
ATOM     12  C   UNL d   1     -59.919 -99.214 -45.602  0.00  0.00     0.164 C 
BRANCH  12  13
ATOM     13  C   UNL d   1     -59.828 -98.755 -46.300  0.00  0.00     0.054 C 
BRANCH  13  14
ATOM     14  C   UNL d   1     -59.285 -99.007 -46.897  0.00  0.00     0.084 C 
BRANCH  14  15
ATOM     15  N   UNL d   1     -59.534 -99.567 -47.489  0.00  0.00    -0.285 N 
ATOM     16  C   UNL d   1     -59.748-100.371 -47.357  0.00  0.00     0.183 A 
ATOM     17  N   UNL d   1     -59.958-100.717 -48.105  0.00  0.00    -0.222 NA
ATOM     18  C   UNL d   1     -59.871-100.119 -48.699  0.00  0.00     0.120 A 
ATOM     19  C   UNL d   1     -59.610 -99.412 -48.321  0.00  0.00     0.102 A 
ENDBRANCH  14  15
ENDBRANCH  13  14
ENDBRANCH  12  13
ENDBRANCH  11  12
ENDBRANCH   6  11
BRANCH   9  20
ATOM     20  C   UNL d   1     -58.784 -98.858 -42.135  0.00  0.00     0.018 C 
ATOM     21  C   UNL d   1     -58.203 -98.877 -41.498  0.00  0.00     0.002 C 
ATOM     22  C   UNL d   1     -59.619 -98.784 -41.959  0.00  0.00     0.002 C 
ENDBRANCH   9  20
BRANCH   4  23
ATOM     23  C   UNL d   1     -56.116 -98.897 -43.449  0.00  0.00     0.004 A 
ATOM     24  C   UNL d   1     -55.319 -98.909 -43.621  0.00  0.00     0.000 A 
ATOM     25  C   UNL d   1     -54.767 -98.847 -43.011  0.00  0.00     0.000 A 
ATOM     26  C   UNL d   1     -55.024 -98.776 -42.242  0.00  0.00     0.000 A 
ATOM     27  C   UNL d   1     -55.830 -98.764 -42.074  0.00  0.00     0.000 A 
ATOM     28  C   UNL d   1     -56.367 -98.825 -42.680  0.00  0.00     0.000 A 
ENDBRANCH   4  23
TORSDOF 7
ENDMDL
