MODEL 1
REMARK VINA RESULT:      90.9      0.000      0.000
REMARK  4 active torsions:
REMARK  status: ('A' for Active; 'I' for Inactive)
REMARK    1  A    between atoms: C_13  and  N_3 
REMARK    2  A    between atoms: C_11  and  C_6 
REMARK    3  A    between atoms: O_22  and  C_11 
REMARK    4  A    between atoms: C_21  and  C_13 
ROOT
ATOM      1  C   UNL d   1     -51.571  26.195  35.490  0.00  0.00     0.155 A 
ATOM      2  C   UNL d   1     -50.916  26.662  35.660  0.00  0.00     0.091 A 
ATOM      3  N   UNL d   1     -51.766  26.027  34.709  0.00  0.00    -0.274 N 
ATOM      4  N   UNL d   1     -52.034  25.894  36.103  0.00  0.00    -0.210 NA
ATOM      5  N   UNL d   1     -51.180  26.532  37.055  0.00  0.00    -0.258 N 
ATOM      6  C   UNL d   1     -50.654  26.791  34.260  0.00  0.00     0.100 A 
ATOM      7  C   UNL d   1     -51.840  26.061  36.892  0.00  0.00     0.152 A 
ATOM      8  C   UNL d   1     -51.311  26.322  34.098  0.00  0.00     0.175 A 
ATOM      9  C   UNL d   1     -50.711  26.837  36.443  0.00  0.00     0.269 A 
ATOM     10  C   UNL d   1     -50.449  26.965  35.043  0.00  0.00     0.016 A 
ATOM     11  C   UNL d   1     -52.299  25.763  37.503  0.00  0.00     0.035 A 
ATOM     12  C   UNL d   1     -50.980  26.703  37.845  0.00  0.00     0.084 A 
ATOM     13  N   UNL d   1     -51.507  26.153  33.308  0.00  0.00    -0.128 N 
ATOM     14  O   UNL d   1     -50.056  27.304  36.613  0.00  0.00    -0.266 OA
ATOM     15  C   UNL d   1     -51.449  26.399  38.453  0.00  0.00     0.019 A 
ATOM     16  C   UNL d   1     -52.107  25.929  38.282  0.00  0.00     0.005 A 
ATOM     17  C   UNL d   1     -52.956  25.295  37.324  0.00  0.00     0.003 C 
ENDROOT
BRANCH   3  18
ATOM     18  C   UNL d   1     -52.422  25.559  34.543  0.00  0.00     0.084 C 
BRANCH  18  19
ATOM     19  C   UNL d   1     -52.329  24.844  34.135  0.00  0.00     0.037 A 
ATOM     20  C   UNL d   1     -52.925  24.286  34.157  0.00  0.00     0.100 A 
ATOM     21  N   UNL d   1     -52.838  23.572  33.754  0.00  0.00    -0.242 NA
ATOM     22  C   UNL d   1     -52.147  23.430  33.331  0.00  0.00     0.099 A 
ATOM     23  C   UNL d   1     -51.544  23.994  33.309  0.00  0.00     0.021 A 
ATOM     24  C   UNL d   1     -51.641  24.703  33.715  0.00  0.00     0.005 A 
ENDBRANCH  18  19
ENDBRANCH   3  18
BRANCH   6  25
ATOM     25  C   UNL d   1     -50.192  27.091  33.646  0.00  0.00     0.299 C 
ATOM     26  O   UNL d   1     -49.535  26.664  33.365  0.00  0.00    -0.259 OA
BRANCH  25  27
ATOM     27  O   UNL d   1     -50.378  27.815  33.307  0.00  0.00    -0.296 OA
ATOM     28  C   UNL d   1     -49.828  28.431  33.307  0.00  0.00     0.185 C 
ENDBRANCH  25  27
ENDBRANCH   6  25
TORSDOF 4
ENDMDL
