MODEL 1
REMARK VINA RESULT:      64.4      0.000      0.000
REMARK  5 active torsions:
REMARK  status: ('A' for Active; 'I' for Inactive)
REMARK       I    between atoms: C_3  and  N_1 
REMARK    1  A    between atoms: C_8  and  C_3 
REMARK    2  A    between atoms: S_4  and  N_9 
REMARK    3  A    between atoms: C_10  and  C_5 
REMARK    4  A    between atoms: C_11  and  C_6 
REMARK    5  A    between atoms: N_9  and  C_23 
ROOT
ATOM      1  N   UNL d   1      13.937  13.153  -3.580  0.00  0.00    -0.193 N 
ATOM      2  N   UNL d   1      13.971  13.767  -4.139  0.00  0.00    -0.163 NA
ATOM      3  C   UNL d   1      13.719  12.368  -3.737  0.00  0.00     0.303 C 
ATOM      4  C   UNL d   1      14.160  13.470  -2.843  0.00  0.00     0.088 A 
ATOM      5  C   UNL d   1      14.212  14.457  -3.753  0.00  0.00     0.103 A 
ATOM      6  C   UNL d   1      14.327  14.270  -2.953  0.00  0.00     0.040 A 
ATOM      7  O   UNL d   1      13.713  11.818  -3.115  0.00  0.00    -0.263 OA
ENDROOT
BRANCH   5   8
ATOM      8  C   UNL d   1      14.318  15.198  -4.099  0.00  0.00     0.019 A 
ATOM      9  C   UNL d   1      14.700  15.805  -3.673  0.00  0.00     0.003 A 
ATOM     10  C   UNL d   1      14.805  16.542  -4.020  0.00  0.00     0.020 A 
ATOM     11  C   UNL d   1      14.535  16.688  -4.790  0.00  0.00     0.093 A 
ATOM     12  C   UNL d   1      14.154  16.079  -5.213  0.00  0.00     0.020 A 
ATOM     13  C   UNL d   1      14.048  15.333  -4.863  0.00  0.00     0.003 A 
BRANCH  11  14
ATOM     14  N   UNL d   1      14.637  17.428  -5.146  0.00  0.00    -0.162 NA
BRANCH  14  15
ATOM     15  S   UNL d   1      14.090  17.717  -5.684  0.00  0.00     0.266 S 
ATOM     16  O   UNL d   1      14.240  16.984  -6.046  0.00  0.00    -0.203 OA
ATOM     17  O   UNL d   1      13.609  17.708  -6.362  0.00  0.00    -0.203 OA
ATOM     18  C   UNL d   1      13.922  18.451  -5.345  0.00  0.00     0.165 C 
ENDBRANCH  14  15
ENDBRANCH  11  14
ENDBRANCH   5   8
BRANCH   4  19
ATOM     19  C   UNL d   1      14.202  13.053  -2.138  0.00  0.00     0.018 A 
ATOM     20  C   UNL d   1      13.519  12.698  -1.838  0.00  0.00     0.004 A 
ATOM     21  C   UNL d   1      13.555  12.275  -1.128  0.00  0.00     0.030 A 
ATOM     22  C   UNL d   1      14.268  12.214  -0.731  0.00  0.00     0.140 A 
ATOM     23  C   UNL d   1      14.941  12.564  -1.027  0.00  0.00     0.030 A 
ATOM     24  F   UNL d   1      14.302  11.786  -0.014  0.00  0.00    -0.204 F 
ATOM     25  C   UNL d   1      14.915  12.985  -1.731  0.00  0.00     0.004 A 
ENDBRANCH   4  19
BRANCH   3  26
ATOM     26  C   UNL d   1      13.514  12.143  -4.494  0.00  0.00     0.158 A 
ATOM     27  O   UNL d   1      14.048  12.024  -5.138  0.00  0.00    -0.300 OA
ATOM     28  C   UNL d   1      13.597  11.800  -5.795  0.00  0.00     0.123 A 
ATOM     29  C   UNL d   1      12.806  11.779  -5.571  0.00  0.00     0.029 A 
ATOM     30  C   UNL d   1      12.769  11.992  -4.767  0.00  0.00     0.032 A 
ENDBRANCH   3  26
TORSDOF 5
ENDMDL
