MODEL 1
REMARK VINA RESULT:      50.3      0.000      0.000
REMARK  7 active torsions:
REMARK  status: ('A' for Active; 'I' for Inactive)
REMARK    1  A    between atoms: N_2  and  C_1 
REMARK    2  A    between atoms: N_4  and  C_3 
REMARK       I    between atoms: C_6  and  N_4 
REMARK    3  A    between atoms: C_7  and  C_6 
REMARK    4  A    between atoms: C_10  and  C_7 
REMARK    5  A    between atoms: C_14  and  C_10 
REMARK    6  A    between atoms: O_16  and  C_13 
REMARK    7  A    between atoms: C_17  and  O_16 
ROOT
ATOM      1  C   UNL d   1     -55.516-101.102 -44.115  0.00  0.00     0.146 A 
ATOM      2  C   UNL d   1     -55.105-100.915 -43.462  0.00  0.00     0.107 A 
ATOM      3  C   UNL d   1     -55.559-100.577 -44.747  0.00  0.00     0.050 A 
ATOM      4  C   UNL d   1     -54.713-100.177 -43.419  0.00  0.00     0.023 A 
ATOM      5  C   UNL d   1     -55.186 -99.853 -44.727  0.00  0.00     0.102 A 
ATOM      6  C   UNL d   1     -54.754 -99.655 -44.042  0.00  0.00     0.026 A 
ENDROOT
BRANCH   2   7
ATOM      7  N   UNL d   1     -55.040-101.432 -42.794  0.00  0.00    -0.206 NA
ATOM      8  C   UNL d   1     -54.836-102.174 -42.943  0.00  0.00     0.279 C 
ATOM      9  O   UNL d   1     -54.711-102.450 -43.484  0.00  0.00    -0.265 OA
BRANCH   8  10
ATOM     10  C   UNL d   1     -54.773-102.684 -42.279  0.00  0.00     0.062 C 
BRANCH  10  11
ATOM     11  C   UNL d   1     -55.434-102.880 -41.824  0.00  0.00     0.005 C 
BRANCH  11  12
ATOM     12  C   UNL d   1     -55.392-102.811 -40.995  0.00  0.00     0.000 A 
ATOM     13  C   UNL d   1     -54.716-102.878 -40.625  0.00  0.00     0.000 A 
ATOM     14  C   UNL d   1     -54.720-102.802 -39.795  0.00  0.00     0.000 A 
ATOM     15  C   UNL d   1     -55.418-102.665 -39.404  0.00  0.00     0.000 A 
ATOM     16  C   UNL d   1     -56.097-102.598 -39.780  0.00  0.00     0.000 A 
ATOM     17  C   UNL d   1     -56.105-102.671 -40.599  0.00  0.00     0.000 A 
ENDBRANCH  11  12
ENDBRANCH  10  11
ENDBRANCH   8  10
ENDBRANCH   2   7
BRANCH   1  18
ATOM     18  N   UNL d   1     -55.898-101.851 -44.128  0.00  0.00    -0.112 N 
ATOM     19  O   UNL d   1     -56.652-101.953 -43.833  0.00  0.00    -0.532 OA
ATOM     20  O   UNL d   1     -55.489-102.527 -44.459  0.00  0.00    -0.532 OA
ENDBRANCH   1  18
BRANCH   5  21
ATOM     21  O   UNL d   1     -55.239 -99.331 -45.378  0.00  0.00    -0.305 OA
BRANCH  21  22
ATOM     22  C   UNL d   1     -55.821 -98.793 -45.442  0.00  0.00     0.123 C 
ATOM     23  C   UNL d   1     -56.440 -98.757 -44.854  0.00  0.00     0.029 C 
ENDBRANCH  21  22
ENDBRANCH   5  21
TORSDOF 7
ENDMDL
MODEL 2
REMARK VINA RESULT:      51.1      1.983      4.981
REMARK  7 active torsions:
REMARK  status: ('A' for Active; 'I' for Inactive)
REMARK    1  A    between atoms: N_2  and  C_1 
REMARK    2  A    between atoms: N_4  and  C_3 
REMARK       I    between atoms: C_6  and  N_4 
REMARK    3  A    between atoms: C_7  and  C_6 
REMARK    4  A    between atoms: C_10  and  C_7 
REMARK    5  A    between atoms: C_14  and  C_10 
REMARK    6  A    between atoms: O_16  and  C_13 
REMARK    7  A    between atoms: C_17  and  O_16 
ROOT
ATOM      1  C   UNL d   1     -56.321-102.177 -40.015  0.00  0.00     0.146 A 
ATOM      2  C   UNL d   1     -55.764-102.318 -40.562  0.00  0.00     0.107 A 
ATOM      3  C   UNL d   1     -56.187-102.361 -39.224  0.00  0.00     0.050 A 
ATOM      4  C   UNL d   1     -55.035-102.657 -40.330  0.00  0.00     0.023 A 
ATOM      5  C   UNL d   1     -55.486-102.692 -38.975  0.00  0.00     0.102 A 
ATOM      6  C   UNL d   1     -54.899-102.841 -39.549  0.00  0.00     0.026 A 
ENDROOT
BRANCH   2   7
ATOM      7  N   UNL d   1     -55.869-102.140 -41.384  0.00  0.00    -0.206 NA
ATOM      8  C   UNL d   1     -55.277-102.326 -41.862  0.00  0.00     0.279 C 
ATOM      9  O   UNL d   1     -54.730-102.588 -41.732  0.00  0.00    -0.265 OA
BRANCH   8  10
ATOM     10  C   UNL d   1     -55.384-102.148 -42.675  0.00  0.00     0.062 C 
BRANCH  10  11
ATOM     11  C   UNL d   1     -54.751-102.176 -43.207  0.00  0.00     0.005 C 
BRANCH  11  12
ATOM     12  C   UNL d   1     -54.813-101.773 -43.933  0.00  0.00     0.000 A 
ATOM     13  C   UNL d   1     -54.757-101.002 -43.966  0.00  0.00     0.000 A 
ATOM     14  C   UNL d   1     -54.825-100.641 -44.714  0.00  0.00     0.000 A 
ATOM     15  C   UNL d   1     -54.945-101.097 -45.375  0.00  0.00     0.000 A 
ATOM     16  C   UNL d   1     -55.000-101.873 -45.338  0.00  0.00     0.000 A 
ATOM     17  C   UNL d   1     -54.935-102.241 -44.605  0.00  0.00     0.000 A 
ENDBRANCH  11  12
ENDBRANCH  10  11
ENDBRANCH   8  10
ENDBRANCH   2   7
BRANCH   1  18
ATOM     18  N   UNL d   1     -57.043-101.835 -40.279  0.00  0.00    -0.112 N 
ATOM     19  O   UNL d   1     -57.714-101.838 -39.815  0.00  0.00    -0.532 OA
ATOM     20  O   UNL d   1     -57.078-101.474 -41.055  0.00  0.00    -0.532 OA
ENDBRANCH   1  18
BRANCH   5  21
ATOM     21  O   UNL d   1     -55.366-102.874 -38.167  0.00  0.00    -0.305 OA
BRANCH  21  22
ATOM     22  C   UNL d   1     -55.587-102.381 -37.585  0.00  0.00     0.123 C 
ATOM     23  C   UNL d   1     -55.130-102.333 -36.864  0.00  0.00     0.029 C 
ENDBRANCH  21  22
ENDBRANCH   5  21
TORSDOF 7
ENDMDL
MODEL 3
REMARK VINA RESULT:      51.8      1.391      4.663
REMARK  7 active torsions:
REMARK  status: ('A' for Active; 'I' for Inactive)
REMARK    1  A    between atoms: N_2  and  C_1 
REMARK    2  A    between atoms: N_4  and  C_3 
REMARK       I    between atoms: C_6  and  N_4 
REMARK    3  A    between atoms: C_7  and  C_6 
REMARK    4  A    between atoms: C_10  and  C_7 
REMARK    5  A    between atoms: C_14  and  C_10 
REMARK    6  A    between atoms: O_16  and  C_13 
REMARK    7  A    between atoms: C_17  and  O_16 
ROOT
ATOM      1  C   UNL d   1     -55.689-102.381 -41.506  0.00  0.00     0.146 A 
ATOM      2  C   UNL d   1     -55.073-101.881 -41.495  0.00  0.00     0.107 A 
ATOM      3  C   UNL d   1     -55.973-102.709 -40.806  0.00  0.00     0.050 A 
ATOM      4  C   UNL d   1     -54.712-101.686 -40.766  0.00  0.00     0.023 A 
ATOM      5  C   UNL d   1     -55.638-102.534 -40.085  0.00  0.00     0.102 A 
ATOM      6  C   UNL d   1     -54.990-102.009 -40.072  0.00  0.00     0.026 A 
ENDROOT
BRANCH   2   7
ATOM      7  N   UNL d   1     -54.756-101.526 -42.196  0.00  0.00    -0.206 NA
ATOM      8  C   UNL d   1     -55.030-100.817 -42.386  0.00  0.00     0.279 C 
ATOM      9  O   UNL d   1     -55.452-100.465 -42.098  0.00  0.00    -0.265 OA
BRANCH   8  10
ATOM     10  C   UNL d   1     -54.714-100.468 -43.081  0.00  0.00     0.062 C 
BRANCH  10  11
ATOM     11  C   UNL d   1     -54.760 -99.652 -43.210  0.00  0.00     0.005 C 
BRANCH  11  12
ATOM     12  C   UNL d   1     -55.193 -99.368 -43.862  0.00  0.00     0.000 A 
ATOM     13  C   UNL d   1     -54.837 -99.025 -44.457  0.00  0.00     0.000 A 
ATOM     14  C   UNL d   1     -55.311 -98.756 -45.088  0.00  0.00     0.000 A 
ATOM     15  C   UNL d   1     -56.116 -98.859 -45.062  0.00  0.00     0.000 A 
ATOM     16  C   UNL d   1     -56.471 -99.205 -44.462  0.00  0.00     0.000 A 
ATOM     17  C   UNL d   1     -56.014 -99.474 -43.833  0.00  0.00     0.000 A 
ENDBRANCH  11  12
ENDBRANCH  10  11
ENDBRANCH   8  10
ENDBRANCH   2   7
BRANCH   1  18
ATOM     18  N   UNL d   1     -56.030-102.557 -42.253  0.00  0.00    -0.112 N 
ATOM     19  O   UNL d   1     -55.574-102.635 -42.925  0.00  0.00    -0.532 OA
ATOM     20  O   UNL d   1     -56.879-102.657 -42.315  0.00  0.00    -0.532 OA
ENDBRANCH   1  18
BRANCH   5  21
ATOM     21  O   UNL d   1     -55.939-102.876 -39.383  0.00  0.00    -0.305 OA
BRANCH  21  22
ATOM     22  C   UNL d   1     -55.729-102.616 -38.662  0.00  0.00     0.123 C 
ATOM     23  C   UNL d   1     -56.303-102.591 -38.029  0.00  0.00     0.029 C 
ENDBRANCH  21  22
ENDBRANCH   5  21
TORSDOF 7
ENDMDL
MODEL 4
REMARK VINA RESULT:      52.1      2.493      4.396
REMARK  7 active torsions:
REMARK  status: ('A' for Active; 'I' for Inactive)
REMARK    1  A    between atoms: N_2  and  C_1 
REMARK    2  A    between atoms: N_4  and  C_3 
REMARK       I    between atoms: C_6  and  N_4 
REMARK    3  A    between atoms: C_7  and  C_6 
REMARK    4  A    between atoms: C_10  and  C_7 
REMARK    5  A    between atoms: C_14  and  C_10 
REMARK    6  A    between atoms: O_16  and  C_13 
REMARK    7  A    between atoms: C_17  and  O_16 
ROOT
ATOM      1  C   UNL d   1     -55.319-101.012 -43.902  0.00  0.00     0.146 A 
ATOM      2  C   UNL d   1     -55.973-100.675 -44.200  0.00  0.00     0.107 A 
ATOM      3  C   UNL d   1     -54.908-101.579 -44.335  0.00  0.00     0.050 A 
ATOM      4  C   UNL d   1     -56.244-100.898 -44.959  0.00  0.00     0.023 A 
ATOM      5  C   UNL d   1     -55.153-101.813 -45.075  0.00  0.00     0.102 A 
ATOM      6  C   UNL d   1     -55.840-101.459 -45.389  0.00  0.00     0.026 A 
ENDROOT
BRANCH   2   7
ATOM      7  N   UNL d   1     -56.420-100.088 -43.782  0.00  0.00    -0.206 NA
ATOM      8  C   UNL d   1     -56.484 -99.386 -44.124  0.00  0.00     0.279 C 
ATOM      9  O   UNL d   1     -56.255 -99.186 -44.664  0.00  0.00    -0.265 OA
BRANCH   8  10
ATOM     10  C   UNL d   1     -56.927 -98.807 -43.708  0.00  0.00     0.062 C 
BRANCH  10  11
ATOM     11  C   UNL d   1     -57.724 -98.926 -43.525  0.00  0.00     0.005 C 
BRANCH  11  12
ATOM     12  C   UNL d   1     -58.285 -98.935 -44.140  0.00  0.00     0.000 A 
ATOM     13  C   UNL d   1     -58.083 -98.755 -44.865  0.00  0.00     0.000 A 
ATOM     14  C   UNL d   1     -58.677 -98.777 -45.449  0.00  0.00     0.000 A 
ATOM     15  C   UNL d   1     -59.436 -98.982 -45.247  0.00  0.00     0.000 A 
ATOM     16  C   UNL d   1     -59.636 -99.162 -44.516  0.00  0.00     0.000 A 
ATOM     17  C   UNL d   1     -59.058 -99.144 -43.931  0.00  0.00     0.000 A 
ENDBRANCH  11  12
ENDBRANCH  10  11
ENDBRANCH   8  10
ENDBRANCH   2   7
BRANCH   1  18
ATOM     18  N   UNL d   1     -55.072-100.767 -43.138  0.00  0.00    -0.112 N 
ATOM     19  O   UNL d   1     -54.944-101.302 -42.536  0.00  0.00    -0.532 OA
ATOM     20  O   UNL d   1     -54.951 -99.932 -42.983  0.00  0.00    -0.532 OA
ENDBRANCH   1  18
BRANCH   5  21
ATOM     21  O   UNL d   1     -54.724-102.391 -45.502  0.00  0.00    -0.305 OA
BRANCH  21  22
ATOM     22  C   UNL d   1     -54.776-102.459 -46.292  0.00  0.00     0.123 C 
ATOM     23  C   UNL d   1     -55.435-102.874 -46.645  0.00  0.00     0.029 C 
ENDBRANCH  21  22
ENDBRANCH   5  21
TORSDOF 7
ENDMDL
MODEL 5
REMARK VINA RESULT:      53.3      0.971      1.251
REMARK  7 active torsions:
REMARK  status: ('A' for Active; 'I' for Inactive)
REMARK    1  A    between atoms: N_2  and  C_1 
REMARK    2  A    between atoms: N_4  and  C_3 
REMARK       I    between atoms: C_6  and  N_4 
REMARK    3  A    between atoms: C_7  and  C_6 
REMARK    4  A    between atoms: C_10  and  C_7 
REMARK    5  A    between atoms: C_14  and  C_10 
REMARK    6  A    between atoms: O_16  and  C_13 
REMARK    7  A    between atoms: C_17  and  O_16 
ROOT
ATOM      1  C   UNL d   1     -55.386-101.247 -43.558  0.00  0.00     0.146 A 
ATOM      2  C   UNL d   1     -54.951-101.184 -42.897  0.00  0.00     0.107 A 
ATOM      3  C   UNL d   1     -55.600-100.575 -43.982  0.00  0.00     0.050 A 
ATOM      4  C   UNL d   1     -54.711-100.429 -42.630  0.00  0.00     0.023 A 
ATOM      5  C   UNL d   1     -55.378 -99.829 -43.742  0.00  0.00     0.102 A 
ATOM      6  C   UNL d   1     -54.922 -99.762 -43.048  0.00  0.00     0.026 A 
ENDROOT
BRANCH   2   7
ATOM      7  N   UNL d   1     -54.713-101.855 -42.437  0.00  0.00    -0.206 NA
ATOM      8  C   UNL d   1     -55.099-101.976 -41.765  0.00  0.00     0.279 C 
ATOM      9  O   UNL d   1     -55.562-101.651 -41.511  0.00  0.00    -0.265 OA
BRANCH   8  10
ATOM     10  C   UNL d   1     -54.861-102.641 -41.312  0.00  0.00     0.062 C 
BRANCH  10  11
ATOM     11  C   UNL d   1     -55.263-102.856 -40.623  0.00  0.00     0.005 C 
BRANCH  11  12
ATOM     12  C   UNL d   1     -55.212-102.365 -39.953  0.00  0.00     0.000 A 
ATOM     13  C   UNL d   1     -54.888-101.664 -39.998  0.00  0.00     0.000 A 
ATOM     14  C   UNL d   1     -54.859-101.206 -39.301  0.00  0.00     0.000 A 
ATOM     15  C   UNL d   1     -55.164-101.500 -38.610  0.00  0.00     0.000 A 
ATOM     16  C   UNL d   1     -55.490-102.206 -38.568  0.00  0.00     0.000 A 
ATOM     17  C   UNL d   1     -55.524-102.667 -39.248  0.00  0.00     0.000 A 
ENDBRANCH  11  12
ENDBRANCH  10  11
ENDBRANCH   8  10
ENDBRANCH   2   7
BRANCH   1  18
ATOM     18  N   UNL d   1     -55.611-102.020 -43.800  0.00  0.00    -0.112 N 
ATOM     19  O   UNL d   1     -55.172-102.446 -44.339  0.00  0.00    -0.532 OA
ATOM     20  O   UNL d   1     -56.321-102.372 -43.473  0.00  0.00    -0.532 OA
ENDBRANCH   1  18
BRANCH   5  21
ATOM     21  O   UNL d   1     -55.605 -99.156 -44.185  0.00  0.00    -0.305 OA
BRANCH  21  22
ATOM     22  C   UNL d   1     -56.340 -98.856 -44.151  0.00  0.00     0.123 C 
ATOM     23  C   UNL d   1     -56.899 -99.150 -43.575  0.00  0.00     0.029 C 
ENDBRANCH  21  22
ENDBRANCH   5  21
TORSDOF 7
ENDMDL
