MODEL 1
REMARK VINA RESULT:      64.7      0.000      0.000
REMARK  5 active torsions:
REMARK  status: ('A' for Active; 'I' for Inactive)
REMARK    1  A    between atoms: N_5  and  C_1 
REMARK    2  A    between atoms: C_8  and  C_2 
REMARK       I    between atoms: C_7  and  N_5 
REMARK    3  A    between atoms: C_9  and  C_7 
REMARK    4  A    between atoms: O_16  and  C_8 
REMARK    5  A    between atoms: C_20  and  O_16 
ROOT
ATOM      1  C   UNL d   1     -47.363  30.769  35.617  0.00  0.00     0.119 A 
ATOM      2  C   UNL d   1     -47.301  29.941  35.667  0.00  0.00     0.088 A 
ATOM      3  S   UNL d   1     -47.042  31.106  36.291  0.00  0.00    -0.068 SA
ATOM      4  C   UNL d   1     -46.924  29.760  36.408  0.00  0.00     0.013 A 
ATOM      5  C   UNL d   1     -46.773  30.492  36.778  0.00  0.00     0.031 A 
ATOM      6  C   UNL d   1     -46.648  29.169  36.910  0.00  0.00     0.001 A 
ATOM      7  C   UNL d   1     -46.394  30.333  37.525  0.00  0.00     0.006 A 
ATOM      8  C   UNL d   1     -46.330  29.521  37.581  0.00  0.00     0.001 A 
ENDROOT
BRANCH   1   9
ATOM      9  N   UNL d   1     -47.706  31.217  34.967  0.00  0.00    -0.201 NA
ATOM     10  C   UNL d   1     -47.555  32.039  34.905  0.00  0.00     0.286 C 
ATOM     11  O   UNL d   1     -47.090  32.444  35.440  0.00  0.00    -0.265 OA
BRANCH  10  12
ATOM     12  C   UNL d   1     -47.889  32.480  34.271  0.00  0.00     0.087 A 
ATOM     13  S   UNL d   1     -47.425  33.049  33.930  0.00  0.00    -0.082 SA
ATOM     14  C   UNL d   1     -47.886  33.407  33.314  0.00  0.00     0.036 A 
ATOM     15  C   UNL d   1     -48.605  33.046  33.306  0.00  0.00     0.008 A 
ATOM     16  C   UNL d   1     -48.610  32.475  33.893  0.00  0.00     0.012 A 
ENDBRANCH  10  12
ENDBRANCH   1   9
BRANCH   2  17
ATOM     17  C   UNL d   1     -47.552  29.384  35.112  0.00  0.00     0.302 C 
ATOM     18  O   UNL d   1     -47.051  29.143  34.487  0.00  0.00    -0.259 OA
BRANCH  17  19
ATOM     19  O   UNL d   1     -48.324  29.051  35.173  0.00  0.00    -0.271 OA
BRANCH  19  20
ATOM     20  C   UNL d   1     -48.449  28.294  34.864  0.00  0.00     0.126 C 
ATOM     21  C   UNL d   1     -49.176  27.934  34.948  0.00  0.00     0.029 C 
ENDBRANCH  19  20
ENDBRANCH  17  19
ENDBRANCH   2  17
TORSDOF 5
ENDMDL
MODEL 2
REMARK VINA RESULT:      65.3      4.925      7.287
REMARK  5 active torsions:
REMARK  status: ('A' for Active; 'I' for Inactive)
REMARK    1  A    between atoms: N_5  and  C_1 
REMARK    2  A    between atoms: C_8  and  C_2 
REMARK       I    between atoms: C_7  and  N_5 
REMARK    3  A    between atoms: C_9  and  C_7 
REMARK    4  A    between atoms: O_16  and  C_8 
REMARK    5  A    between atoms: C_20  and  O_16 
ROOT
ATOM      1  C   UNL d   1     -51.939  25.332  33.875  0.00  0.00     0.119 A 
ATOM      2  C   UNL d   1     -52.514  25.139  34.445  0.00  0.00     0.088 A 
ATOM      3  S   UNL d   1     -51.893  24.729  33.322  0.00  0.00    -0.068 SA
ATOM      4  C   UNL d   1     -52.836  24.382  34.232  0.00  0.00     0.013 A 
ATOM      5  C   UNL d   1     -52.440  24.146  33.537  0.00  0.00     0.031 A 
ATOM      6  C   UNL d   1     -53.372  23.787  34.424  0.00  0.00     0.001 A 
ATOM      7  C   UNL d   1     -52.750  23.386  33.306  0.00  0.00     0.006 A 
ATOM      8  C   UNL d   1     -53.315  23.190  33.862  0.00  0.00     0.001 A 
ENDROOT
BRANCH   1   9
ATOM      9  N   UNL d   1     -51.460  26.046  33.854  0.00  0.00    -0.201 NA
ATOM     10  C   UNL d   1     -50.639  25.990  33.701  0.00  0.00     0.286 C 
ATOM     11  O   UNL d   1     -50.262  25.278  33.567  0.00  0.00    -0.265 OA
BRANCH  10  12
ATOM     12  C   UNL d   1     -50.166  26.688  33.679  0.00  0.00     0.087 A 
ATOM     13  S   UNL d   1     -49.482  26.686  34.112  0.00  0.00    -0.082 SA
ATOM     14  C   UNL d   1     -49.116  27.442  33.997  0.00  0.00     0.036 A 
ATOM     15  C   UNL d   1     -49.587  27.870  33.504  0.00  0.00     0.008 A 
ATOM     16  C   UNL d   1     -50.235  27.408  33.307  0.00  0.00     0.012 A 
ENDBRANCH  10  12
ENDBRANCH   1   9
BRANCH   2  17
ATOM     17  C   UNL d   1     -52.741  25.587  35.100  0.00  0.00     0.302 C 
ATOM     18  O   UNL d   1     -53.135  26.319  35.006  0.00  0.00    -0.259 OA
BRANCH  17  19
ATOM     19  O   UNL d   1     -52.575  25.306  35.877  0.00  0.00    -0.271 OA
BRANCH  19  20
ATOM     20  C   UNL d   1     -52.384  25.859  36.462  0.00  0.00     0.126 C 
ATOM     21  C   UNL d   1     -52.311  25.625  37.239  0.00  0.00     0.029 C 
ENDBRANCH  19  20
ENDBRANCH  17  19
ENDBRANCH   2  17
TORSDOF 5
ENDMDL
MODEL 3
REMARK VINA RESULT:      66.4      1.189      2.320
REMARK  5 active torsions:
REMARK  status: ('A' for Active; 'I' for Inactive)
REMARK    1  A    between atoms: N_5  and  C_1 
REMARK    2  A    between atoms: C_8  and  C_2 
REMARK       I    between atoms: C_7  and  N_5 
REMARK    3  A    between atoms: C_9  and  C_7 
REMARK    4  A    between atoms: O_16  and  C_8 
REMARK    5  A    between atoms: C_20  and  O_16 
ROOT
ATOM      1  C   UNL d   1     -47.751  30.560  34.963  0.00  0.00     0.119 A 
ATOM      2  C   UNL d   1     -47.526  30.203  35.679  0.00  0.00     0.088 A 
ATOM      3  S   UNL d   1     -48.196  30.031  34.525  0.00  0.00    -0.068 SA
ATOM      4  C   UNL d   1     -47.848  29.416  35.682  0.00  0.00     0.013 A 
ATOM      5  C   UNL d   1     -48.258  29.329  34.962  0.00  0.00     0.031 A 
ATOM      6  C   UNL d   1     -47.924  28.708  36.096  0.00  0.00     0.001 A 
ATOM      7  C   UNL d   1     -48.590  28.544  34.944  0.00  0.00     0.006 A 
ATOM      8  C   UNL d   1     -48.372  28.188  35.645  0.00  0.00     0.001 A 
ENDROOT
BRANCH   1   9
ATOM      9  N   UNL d   1     -47.556  31.358  34.706  0.00  0.00    -0.201 NA
ATOM     10  C   UNL d   1     -47.986  31.708  34.078  0.00  0.00     0.286 C 
ATOM     11  O   UNL d   1     -48.591  31.323  33.689  0.00  0.00    -0.265 OA
BRANCH  10  12
ATOM     12  C   UNL d   1     -47.798  32.489  33.824  0.00  0.00     0.087 A 
ATOM     13  S   UNL d   1     -48.399  32.933  33.515  0.00  0.00    -0.082 SA
ATOM     14  C   UNL d   1     -48.068  33.685  33.306  0.00  0.00     0.036 A 
ATOM     15  C   UNL d   1     -47.285  33.668  33.494  0.00  0.00     0.008 A 
ATOM     16  C   UNL d   1     -47.116  32.933  33.813  0.00  0.00     0.012 A 
ENDBRANCH  10  12
ENDBRANCH   1   9
BRANCH   2  17
ATOM     17  C   UNL d   1     -47.074  30.535  36.286  0.00  0.00     0.302 C 
ATOM     18  O   UNL d   1     -46.958  31.362  36.333  0.00  0.00    -0.259 OA
BRANCH  17  19
ATOM     19  O   UNL d   1     -46.722  30.037  36.867  0.00  0.00    -0.271 OA
BRANCH  19  20
ATOM     20  C   UNL d   1     -46.054  30.313  37.268  0.00  0.00     0.126 C 
ATOM     21  C   UNL d   1     -45.814  29.955  37.960  0.00  0.00     0.029 C 
ENDBRANCH  19  20
ENDBRANCH  17  19
ENDBRANCH   2  17
TORSDOF 5
ENDMDL
MODEL 4
REMARK VINA RESULT:      67.5      4.989      6.821
REMARK  5 active torsions:
REMARK  status: ('A' for Active; 'I' for Inactive)
REMARK    1  A    between atoms: N_5  and  C_1 
REMARK    2  A    between atoms: C_8  and  C_2 
REMARK       I    between atoms: C_7  and  N_5 
REMARK    3  A    between atoms: C_9  and  C_7 
REMARK    4  A    between atoms: O_16  and  C_8 
REMARK    5  A    between atoms: C_20  and  O_16 
ROOT
ATOM      1  C   UNL d   1     -51.127  26.365  35.288  0.00  0.00     0.119 A 
ATOM      2  C   UNL d   1     -51.238  26.185  34.484  0.00  0.00     0.088 A 
ATOM      3  S   UNL d   1     -50.482  26.864  35.367  0.00  0.00    -0.068 SA
ATOM      4  C   UNL d   1     -50.634  26.592  34.047  0.00  0.00     0.013 A 
ATOM      5  C   UNL d   1     -50.177  27.006  34.609  0.00  0.00     0.031 A 
ATOM      6  C   UNL d   1     -50.311  26.749  33.306  0.00  0.00     0.001 A 
ATOM      7  C   UNL d   1     -49.562  27.422  34.191  0.00  0.00     0.006 A 
ATOM      8  C   UNL d   1     -49.666  27.250  33.400  0.00  0.00     0.001 A 
ENDROOT
BRANCH   1   9
ATOM      9  N   UNL d   1     -51.603  26.082  35.946  0.00  0.00    -0.201 NA
ATOM     10  C   UNL d   1     -51.437  26.348  36.723  0.00  0.00     0.286 C 
ATOM     11  O   UNL d   1     -50.834  26.872  36.891  0.00  0.00    -0.265 OA
BRANCH  10  12
ATOM     12  C   UNL d   1     -51.901  26.072  37.370  0.00  0.00     0.087 A 
ATOM     13  S   UNL d   1     -51.564  26.097  38.105  0.00  0.00    -0.082 SA
ATOM     14  C   UNL d   1     -52.139  25.793  38.650  0.00  0.00     0.036 A 
ATOM     15  C   UNL d   1     -52.796  25.598  38.228  0.00  0.00     0.008 A 
ATOM     16  C   UNL d   1     -52.653  25.769  37.440  0.00  0.00     0.012 A 
ENDBRANCH  10  12
ENDBRANCH   1   9
BRANCH   2  17
ATOM     17  C   UNL d   1     -51.822  25.703  34.154  0.00  0.00     0.302 C 
ATOM     18  O   UNL d   1     -52.573  26.013  33.952  0.00  0.00    -0.259 OA
BRANCH  17  19
ATOM     19  O   UNL d   1     -51.663  24.888  34.016  0.00  0.00    -0.271 OA
BRANCH  19  20
ATOM     20  C   UNL d   1     -52.229  24.441  33.610  0.00  0.00     0.126 C 
ATOM     21  C   UNL d   1     -52.032  23.710  33.307  0.00  0.00     0.029 C 
ENDBRANCH  19  20
ENDBRANCH  17  19
ENDBRANCH   2  17
TORSDOF 5
ENDMDL
MODEL 5
REMARK VINA RESULT:      67.6      1.875      3.827
REMARK  5 active torsions:
REMARK  status: ('A' for Active; 'I' for Inactive)
REMARK    1  A    between atoms: N_5  and  C_1 
REMARK    2  A    between atoms: C_8  and  C_2 
REMARK       I    between atoms: C_7  and  N_5 
REMARK    3  A    between atoms: C_9  and  C_7 
REMARK    4  A    between atoms: O_16  and  C_8 
REMARK    5  A    between atoms: C_20  and  O_16 
ROOT
ATOM      1  C   UNL d   1     -48.355  29.283  34.970  0.00  0.00     0.119 A 
ATOM      2  C   UNL d   1     -48.174  30.094  34.986  0.00  0.00     0.088 A 
ATOM      3  S   UNL d   1     -47.902  28.893  35.530  0.00  0.00    -0.068 SA
ATOM      4  C   UNL d   1     -47.581  30.210  35.584  0.00  0.00     0.013 A 
ATOM      5  C   UNL d   1     -47.426  29.457  35.908  0.00  0.00     0.031 A 
ATOM      6  C   UNL d   1     -47.098  30.750  35.976  0.00  0.00     0.001 A 
ATOM      7  C   UNL d   1     -46.832  29.550  36.512  0.00  0.00     0.006 A 
ATOM      8  C   UNL d   1     -46.650  30.346  36.533  0.00  0.00     0.001 A 
ENDROOT
BRANCH   1   9
ATOM      9  N   UNL d   1     -48.925  28.897  34.454  0.00  0.00    -0.201 NA
ATOM     10  C   UNL d   1     -49.123  28.093  34.584  0.00  0.00     0.286 C 
ATOM     11  O   UNL d   1     -48.797  27.649  35.186  0.00  0.00    -0.265 OA
BRANCH  10  12
ATOM     12  C   UNL d   1     -49.681  27.712  34.080  0.00  0.00     0.087 A 
ATOM     13  S   UNL d   1     -49.509  26.959  33.839  0.00  0.00    -0.082 SA
ATOM     14  C   UNL d   1     -50.150  26.705  33.345  0.00  0.00     0.036 A 
ATOM     15  C   UNL d   1     -50.681  27.309  33.306  0.00  0.00     0.008 A 
ATOM     16  C   UNL d   1     -50.396  27.929  33.757  0.00  0.00     0.012 A 
ENDBRANCH  10  12
ENDBRANCH   1   9
BRANCH   2  17
ATOM     17  C   UNL d   1     -48.499  30.691  34.516  0.00  0.00     0.302 C 
ATOM     18  O   UNL d   1     -49.327  30.809  34.482  0.00  0.00    -0.259 OA
BRANCH  17  19
ATOM     19  O   UNL d   1     -47.993  31.190  34.064  0.00  0.00    -0.271 OA
BRANCH  19  20
ATOM     20  C   UNL d   1     -48.301  31.902  33.775  0.00  0.00     0.126 C 
ATOM     21  C   UNL d   1     -47.835  32.569  33.751  0.00  0.00     0.029 C 
ENDBRANCH  19  20
ENDBRANCH  17  19
ENDBRANCH   2  17
TORSDOF 5
ENDMDL
MODEL 6
REMARK VINA RESULT:      67.6      6.341      8.064
REMARK  5 active torsions:
REMARK  status: ('A' for Active; 'I' for Inactive)
REMARK    1  A    between atoms: N_5  and  C_1 
REMARK    2  A    between atoms: C_8  and  C_2 
REMARK       I    between atoms: C_7  and  N_5 
REMARK    3  A    between atoms: C_9  and  C_7 
REMARK    4  A    between atoms: O_16  and  C_8 
REMARK    5  A    between atoms: C_20  and  O_16 
ROOT
ATOM      1  C   UNL d   1     -52.536  24.933  35.154  0.00  0.00     0.119 A 
ATOM      2  C   UNL d   1     -52.429  24.969  34.330  0.00  0.00     0.088 A 
ATOM      3  S   UNL d   1     -52.975  24.268  35.341  0.00  0.00    -0.068 SA
ATOM      4  C   UNL d   1     -52.820  24.294  33.994  0.00  0.00     0.013 A 
ATOM      5  C   UNL d   1     -53.151  23.873  34.634  0.00  0.00     0.031 A 
ATOM      6  C   UNL d   1     -53.009  23.883  33.306  0.00  0.00     0.001 A 
ATOM      7  C   UNL d   1     -53.550  23.190  34.318  0.00  0.00     0.006 A 
ATOM      8  C   UNL d   1     -53.449  23.219  33.509  0.00  0.00     0.001 A 
ENDROOT
BRANCH   1   9
ATOM      9  N   UNL d   1     -52.240  25.496  35.733  0.00  0.00    -0.201 NA
ATOM     10  C   UNL d   1     -52.388  25.370  36.548  0.00  0.00     0.286 C 
ATOM     11  O   UNL d   1     -52.807  24.727  36.826  0.00  0.00    -0.265 OA
BRANCH  10  12
ATOM     12  C   UNL d   1     -52.099  25.920  37.118  0.00  0.00     0.087 A 
ATOM     13  S   UNL d   1     -52.363  25.838  37.879  0.00  0.00    -0.082 SA
ATOM     14  C   UNL d   1     -51.994  26.451  38.334  0.00  0.00     0.036 A 
ATOM     15  C   UNL d   1     -51.526  26.877  37.837  0.00  0.00     0.008 A 
ATOM     16  C   UNL d   1     -51.588  26.553  37.088  0.00  0.00     0.012 A 
ENDBRANCH  10  12
ENDBRANCH   1   9
BRANCH   2  17
ATOM     17  C   UNL d   1     -52.021  25.546  33.902  0.00  0.00     0.302 C 
ATOM     18  O   UNL d   1     -52.402  26.248  33.654  0.00  0.00    -0.259 OA
BRANCH  17  19
ATOM     19  O   UNL d   1     -51.209  25.428  33.709  0.00  0.00    -0.271 OA
BRANCH  19  20
ATOM     20  C   UNL d   1     -50.801  26.044  33.337  0.00  0.00     0.126 C 
ATOM     21  C   UNL d   1     -49.987  26.034  33.306  0.00  0.00     0.029 C 
ENDBRANCH  19  20
ENDBRANCH  17  19
ENDBRANCH   2  17
TORSDOF 5
ENDMDL
