MODEL 1
REMARK VINA RESULT:      -0.8      0.000      0.000
REMARK  5 active torsions:
REMARK  status: ('A' for Active; 'I' for Inactive)
REMARK    1  A    between atoms: S_2  and  C_1 
REMARK    2  A    between atoms: N_3  and  C_1 
REMARK    3  A    between atoms: C_4  and  C_1 
REMARK    4  A    between atoms: C_6  and  S_2 
REMARK       I    between atoms: C_5  and  N_3 
REMARK    5  A    between atoms: C_9  and  C_5 
ROOT
ATOM      1  C   UNL d   1     -41.758-121.793 -51.346  0.00  0.00     0.193 C 
ENDROOT
BRANCH   1   2
ATOM      2  S   UNL d   1     -41.858-122.194 -50.632  0.00  0.00     0.228 S 
ATOM      3  O   UNL d   1     -41.160-121.861 -50.348  0.00  0.00    -0.216 OA
ATOM      4  O   UNL d   1     -42.564-122.533 -50.914  0.00  0.00    -0.216 OA
BRANCH   2   5
ATOM      5  C   UNL d   1     -41.962-122.612 -49.886  0.00  0.00     0.089 A 
ATOM      6  C   UNL d   1     -42.722-122.742 -49.595  0.00  0.00     0.011 A 
ATOM      7  C   UNL d   1     -42.820-123.143 -48.880  0.00  0.00     0.001 A 
ATOM      8  C   UNL d   1     -42.158-123.413 -48.457  0.00  0.00     0.000 A 
ATOM      9  C   UNL d   1     -41.395-123.284 -48.747  0.00  0.00     0.001 A 
ATOM     10  C   UNL d   1     -42.267-123.817 -47.735  0.00  0.00     0.000 C 
ATOM     11  C   UNL d   1     -41.297-122.883 -49.461  0.00  0.00     0.011 A 
ENDBRANCH   2   5
ENDBRANCH   1   2
BRANCH   1  12
ATOM     12  N   UNL d   1     -41.568-122.195 -52.018  0.00  0.00    -0.195 NA
ATOM     13  C   UNL d   1     -42.036-122.124 -52.694  0.00  0.00     0.280 C 
ATOM     14  O   UNL d   1     -42.681-121.655 -52.686  0.00  0.00    -0.265 OA
BRANCH  13  15
ATOM     15  C   UNL d   1     -41.803-122.552 -53.352  0.00  0.00     0.058 A 
ATOM     16  C   UNL d   1     -42.033-122.285 -54.080  0.00  0.00     0.005 A 
ATOM     17  C   UNL d   1     -41.816-122.691 -54.747  0.00  0.00     0.000 A 
ATOM     18  C   UNL d   1     -41.362-123.376 -54.702  0.00  0.00     0.000 A 
ATOM     19  C   UNL d   1     -41.127-123.649 -53.971  0.00  0.00     0.000 A 
ATOM     20  C   UNL d   1     -41.124-123.817 -55.399  0.00  0.00     0.000 C 
ATOM     21  C   UNL d   1     -41.352-123.231 -53.289  0.00  0.00     0.005 A 
ENDBRANCH  13  15
ENDBRANCH   1  12
BRANCH   1  22
ATOM     22  C   UNL d   1     -41.847-120.980 -51.391  0.00  0.00     0.144 C 
ATOM     23 CL   UNL d   1     -42.563-120.723 -51.278  0.00  0.00    -0.068 Cl
ATOM     24 CL   UNL d   1     -41.164-120.463 -51.557  0.00  0.00    -0.068 Cl
ENDBRANCH   1  22
TORSDOF 5
ENDMDL
MODEL 2
REMARK VINA RESULT:       0.7      0.761      4.331
REMARK  5 active torsions:
REMARK  status: ('A' for Active; 'I' for Inactive)
REMARK    1  A    between atoms: S_2  and  C_1 
REMARK    2  A    between atoms: N_3  and  C_1 
REMARK    3  A    between atoms: C_4  and  C_1 
REMARK    4  A    between atoms: C_6  and  S_2 
REMARK       I    between atoms: C_5  and  N_3 
REMARK    5  A    between atoms: C_9  and  C_5 
ROOT
ATOM      1  C   UNL d   1     -41.707-121.737 -51.703  0.00  0.00     0.193 C 
ENDROOT
BRANCH   1   2
ATOM      2  S   UNL d   1     -41.639-122.138 -52.421  0.00  0.00     0.228 S 
ATOM      3  O   UNL d   1     -41.371-122.807 -52.022  0.00  0.00    -0.216 OA
ATOM      4  O   UNL d   1     -41.909-121.465 -52.830  0.00  0.00    -0.216 OA
BRANCH   2   5
ATOM      5  C   UNL d   1     -41.567-122.557 -53.171  0.00  0.00     0.089 A 
ATOM      6  C   UNL d   1     -41.321-123.344 -53.175  0.00  0.00     0.011 A 
ATOM      7  C   UNL d   1     -41.253-123.745 -53.893  0.00  0.00     0.001 A 
ATOM      8  C   UNL d   1     -41.431-123.359 -54.606  0.00  0.00     0.000 A 
ATOM      9  C   UNL d   1     -41.678-122.570 -54.605  0.00  0.00     0.001 A 
ATOM     10  C   UNL d   1     -41.359-123.772 -55.328  0.00  0.00     0.000 C 
ATOM     11  C   UNL d   1     -41.746-122.169 -53.887  0.00  0.00     0.011 A 
ENDBRANCH   2   5
ENDBRANCH   1   2
BRANCH   1  12
ATOM     12  N   UNL d   1     -41.697-122.141 -51.007  0.00  0.00    -0.195 NA
ATOM     13  C   UNL d   1     -42.357-122.139 -50.512  0.00  0.00     0.280 C 
ATOM     14  O   UNL d   1     -43.012-121.734 -50.722  0.00  0.00    -0.265 OA
BRANCH  13  15
ATOM     15  C   UNL d   1     -42.301-122.564 -49.815  0.00  0.00     0.058 A 
ATOM     16  C   UNL d   1     -42.085-122.168 -49.144  0.00  0.00     0.005 A 
ATOM     17  C   UNL d   1     -42.022-122.567 -48.442  0.00  0.00     0.000 A 
ATOM     18  C   UNL d   1     -42.173-123.374 -48.393  0.00  0.00     0.000 A 
ATOM     19  C   UNL d   1     -42.390-123.779 -49.066  0.00  0.00     0.000 A 
ATOM     20  C   UNL d   1     -42.110-123.811 -47.656  0.00  0.00     0.000 C 
ATOM     21  C   UNL d   1     -42.454-123.367 -49.785  0.00  0.00     0.005 A 
ENDBRANCH  13  15
ENDBRANCH   1  12
BRANCH   1  22
ATOM     22  C   UNL d   1     -41.785-120.923 -51.679  0.00  0.00     0.144 C 
ATOM     23 CL   UNL d   1     -41.123-120.530 -51.679  0.00  0.00    -0.068 Cl
ATOM     24 CL   UNL d   1     -42.573-120.549 -51.655  0.00  0.00    -0.068 Cl
ENDBRANCH   1  22
TORSDOF 5
ENDMDL
