MODEL 1
REMARK VINA RESULT:      -6.2      0.000      0.000
REMARK  5 active torsions:
REMARK  status: ('A' for Active; 'I' for Inactive)
REMARK    1  A    between atoms: O_4  and  C_1 
REMARK    2  A    between atoms: C_10  and  C_2 
REMARK    3  A    between atoms: C_5  and  O_4 
REMARK    4  A    between atoms: C_7  and  C_5 
REMARK    5  A    between atoms: N_12  and  C_10 
ROOT
ATOM      1  C   UNL d   1     -48.633  12.961  22.746  0.00  0.00     0.122 A 
ATOM      2  C   UNL d   1     -49.299  13.414  22.559  0.00  0.00     0.043 A 
ATOM      3  C   UNL d   1     -48.727  12.204  23.064  0.00  0.00     0.105 A 
ATOM      4  C   UNL d   1     -49.483  11.901  23.195  0.00  0.00     0.030 A 
ATOM      5  C   UNL d   1     -50.139  12.357  23.006  0.00  0.00     0.059 A 
ATOM      6  C   UNL d   1     -50.055  13.111  22.689  0.00  0.00     0.015 A 
ATOM      7  N   UNL d   1     -48.063  11.757  23.249  0.00  0.00    -0.242 NA
ATOM      8 CL   UNL d   1     -50.896  12.027  23.148  0.00  0.00    -0.082 Cl
ATOM      9  C   UNL d   1     -49.569  11.153  23.509  0.00  0.00     0.004 A 
ATOM     10  C   UNL d   1     -48.157  11.000  23.567  0.00  0.00     0.099 A 
ATOM     11  C   UNL d   1     -48.913  10.696  23.698  0.00  0.00     0.021 A 
ENDROOT
BRANCH   1  12
ATOM     12  O   UNL d   1     -47.943  13.226  22.631  0.00  0.00    -0.271 OA
BRANCH  12  13
ATOM     13  C   UNL d   1     -47.254  13.257  21.955  0.00  0.00     0.306 C 
ATOM     14  O   UNL d   1     -47.577  13.029  21.028  0.00  0.00    -0.258 OA
BRANCH  13  15
ATOM     15  C   UNL d   1     -46.475  13.455  22.142  0.00  0.00     0.093 A 
ATOM     16  S   UNL d   1     -45.806  13.112  21.821  0.00  0.00    -0.081 SA
ATOM     17  C   UNL d   1     -45.134  13.493  22.181  0.00  0.00     0.036 A 
ATOM     18  C   UNL d   1     -45.419  14.054  22.708  0.00  0.00     0.008 A 
ATOM     19  C   UNL d   1     -46.263  14.022  22.676  0.00  0.00     0.012 A 
ENDBRANCH  13  15
ENDBRANCH  12  13
ENDBRANCH   1  12
BRANCH   2  20
ATOM     20  C   UNL d   1     -49.395  14.250  22.208  0.00  0.00     0.082 C 
BRANCH  20  21
ATOM     21  N   UNL d   1     -49.850  14.807  22.608  0.00  0.00    -0.299 N 
ATOM     22  C   UNL d   1     -50.608  14.977  22.362  0.00  0.00     0.107 A 
ATOM     23  C   UNL d   1     -51.064  15.532  22.758  0.00  0.00     0.142 A 
ATOM     24  O   UNL d   1     -50.745  15.922  23.418  0.00  0.00    -0.300 OA
ATOM     25  C   UNL d   1     -49.986  15.757  23.672  0.00  0.00     0.142 A 
ATOM     26  C   UNL d   1     -49.540  15.193  23.259  0.00  0.00     0.107 A 
ENDBRANCH  20  21
ENDBRANCH   2  20
TORSDOF 5
ENDMDL
MODEL 2
REMARK VINA RESULT:      -3.8      1.700      3.748
REMARK  5 active torsions:
REMARK  status: ('A' for Active; 'I' for Inactive)
REMARK    1  A    between atoms: O_4  and  C_1 
REMARK    2  A    between atoms: C_10  and  C_2 
REMARK    3  A    between atoms: C_5  and  O_4 
REMARK    4  A    between atoms: C_7  and  C_5 
REMARK    5  A    between atoms: N_12  and  C_10 
ROOT
ATOM      1  C   UNL d   1     -48.407  12.987  23.278  0.00  0.00     0.122 A 
ATOM      2  C   UNL d   1     -47.592  12.896  23.171  0.00  0.00     0.043 A 
ATOM      3  C   UNL d   1     -48.883  12.322  23.400  0.00  0.00     0.105 A 
ATOM      4  C   UNL d   1     -48.545  11.569  23.415  0.00  0.00     0.030 A 
ATOM      5  C   UNL d   1     -47.735  11.487  23.307  0.00  0.00     0.059 A 
ATOM      6  C   UNL d   1     -47.255  12.143  23.185  0.00  0.00     0.015 A 
ATOM      7  N   UNL d   1     -49.692  12.416  23.507  0.00  0.00    -0.242 NA
ATOM      8 CL   UNL d   1     -47.416  10.713  23.326  0.00  0.00    -0.082 Cl
ATOM      9  C   UNL d   1     -49.019  10.916  23.535  0.00  0.00     0.004 A 
ATOM     10  C   UNL d   1     -50.167  11.751  23.628  0.00  0.00     0.099 A 
ATOM     11  C   UNL d   1     -49.829  10.998  23.643  0.00  0.00     0.021 A 
ENDROOT
BRANCH   1  12
ATOM     12  O   UNL d   1     -48.723  13.665  23.267  0.00  0.00    -0.271 OA
BRANCH  12  13
ATOM     13  C   UNL d   1     -49.183  14.269  22.669  0.00  0.00     0.306 C 
ATOM     14  O   UNL d   1     -49.027  14.077  21.692  0.00  0.00    -0.258 OA
BRANCH  13  15
ATOM     15  C   UNL d   1     -49.657  14.881  22.955  0.00  0.00     0.093 A 
ATOM     16  S   UNL d   1     -50.399  15.079  22.676  0.00  0.00    -0.081 SA
ATOM     17  C   UNL d   1     -50.670  15.741  23.138  0.00  0.00     0.036 A 
ATOM     18  C   UNL d   1     -50.082  15.922  23.682  0.00  0.00     0.008 A 
ATOM     19  C   UNL d   1     -49.449  15.375  23.559  0.00  0.00     0.012 A 
ENDBRANCH  13  15
ENDBRANCH  12  13
ENDBRANCH   1  12
BRANCH   2  20
ATOM     20  C   UNL d   1     -46.921  13.496  23.027  0.00  0.00     0.082 C 
BRANCH  20  21
ATOM     21  N   UNL d   1     -46.202  13.233  22.723  0.00  0.00    -0.299 N 
ATOM     22  C   UNL d   1     -45.647  12.890  23.211  0.00  0.00     0.107 A 
ATOM     23  C   UNL d   1     -44.930  12.628  22.912  0.00  0.00     0.142 A 
ATOM     24  O   UNL d   1     -44.772  12.715  22.101  0.00  0.00    -0.300 OA
ATOM     25  C   UNL d   1     -45.324  13.058  21.605  0.00  0.00     0.142 A 
ATOM     26  C   UNL d   1     -46.043  13.318  21.926  0.00  0.00     0.107 A 
ENDBRANCH  20  21
ENDBRANCH   2  20
TORSDOF 5
ENDMDL
MODEL 3
REMARK VINA RESULT:      -3.5      2.077      4.557
REMARK  5 active torsions:
REMARK  status: ('A' for Active; 'I' for Inactive)
REMARK    1  A    between atoms: O_4  and  C_1 
REMARK    2  A    between atoms: C_10  and  C_2 
REMARK    3  A    between atoms: C_5  and  O_4 
REMARK    4  A    between atoms: C_7  and  C_5 
REMARK    5  A    between atoms: N_12  and  C_10 
ROOT
ATOM      1  C   UNL d   1     -47.870  13.297  22.643  0.00  0.00     0.122 A 
ATOM      2  C   UNL d   1     -47.133  13.028  22.380  0.00  0.00     0.043 A 
ATOM      3  C   UNL d   1     -48.001  14.107  22.740  0.00  0.00     0.105 A 
ATOM      4  C   UNL d   1     -47.399  14.647  22.576  0.00  0.00     0.030 A 
ATOM      5  C   UNL d   1     -46.670  14.372  22.316  0.00  0.00     0.059 A 
ATOM      6  C   UNL d   1     -46.530  13.568  22.216  0.00  0.00     0.015 A 
ATOM      7  N   UNL d   1     -48.735  14.371  23.000  0.00  0.00    -0.242 NA
ATOM      8 CL   UNL d   1     -46.075  14.939  22.156  0.00  0.00    -0.082 Cl
ATOM      9  C   UNL d   1     -47.535  15.446  22.673  0.00  0.00     0.004 A 
ATOM     10  C   UNL d   1     -48.866  15.181  23.097  0.00  0.00     0.099 A 
ATOM     11  C   UNL d   1     -48.263  15.721  22.933  0.00  0.00     0.021 A 
ENDROOT
BRANCH   1  12
ATOM     12  O   UNL d   1     -48.423  12.816  22.794  0.00  0.00    -0.271 OA
BRANCH  12  13
ATOM     13  C   UNL d   1     -49.180  12.387  22.375  0.00  0.00     0.306 C 
ATOM     14  O   UNL d   1     -49.133  12.363  21.369  0.00  0.00    -0.258 OA
BRANCH  13  15
ATOM     15  C   UNL d   1     -49.800  12.075  22.822  0.00  0.00     0.093 A 
ATOM     16  S   UNL d   1     -50.580  12.319  22.789  0.00  0.00    -0.081 SA
ATOM     17  C   UNL d   1     -51.013  11.840  23.345  0.00  0.00     0.036 A 
ATOM     18  C   UNL d   1     -50.481  11.323  23.695  0.00  0.00     0.008 A 
ATOM     19  C   UNL d   1     -49.721  11.478  23.360  0.00  0.00     0.012 A 
ENDBRANCH  13  15
ENDBRANCH  12  13
ENDBRANCH   1  12
BRANCH   2  20
ATOM     20  C   UNL d   1     -46.806  12.193  22.217  0.00  0.00     0.082 C 
BRANCH  20  21
ATOM     21  N   UNL d   1     -46.124  11.943  22.603  0.00  0.00    -0.299 N 
ATOM     22  C   UNL d   1     -46.173  11.540  23.310  0.00  0.00     0.107 A 
ATOM     23  C   UNL d   1     -45.495  11.289  23.698  0.00  0.00     0.142 A 
ATOM     24  O   UNL d   1     -44.752  11.449  23.362  0.00  0.00    -0.300 OA
ATOM     25  C   UNL d   1     -44.695  11.853  22.654  0.00  0.00     0.142 A 
ATOM     26  C   UNL d   1     -45.391  12.099  22.276  0.00  0.00     0.107 A 
ENDBRANCH  20  21
ENDBRANCH   2  20
TORSDOF 5
ENDMDL
MODEL 4
REMARK VINA RESULT:      -3.2      1.928      3.573
REMARK  5 active torsions:
REMARK  status: ('A' for Active; 'I' for Inactive)
REMARK    1  A    between atoms: O_4  and  C_1 
REMARK    2  A    between atoms: C_10  and  C_2 
REMARK    3  A    between atoms: C_5  and  O_4 
REMARK    4  A    between atoms: C_7  and  C_5 
REMARK    5  A    between atoms: N_12  and  C_10 
ROOT
ATOM      1  C   UNL d   1     -47.091  13.030  22.856  0.00  0.00     0.122 A 
ATOM      2  C   UNL d   1     -47.471  12.488  23.353  0.00  0.00     0.043 A 
ATOM      3  C   UNL d   1     -46.305  12.902  22.634  0.00  0.00     0.105 A 
ATOM      4  C   UNL d   1     -45.900  12.237  22.909  0.00  0.00     0.030 A 
ATOM      5  C   UNL d   1     -46.285  11.705  23.402  0.00  0.00     0.059 A 
ATOM      6  C   UNL d   1     -47.067  11.824  23.627  0.00  0.00     0.015 A 
ATOM      7  N   UNL d   1     -45.931  13.441  22.141  0.00  0.00    -0.242 NA
ATOM      8 CL   UNL d   1     -45.853  11.038  23.667  0.00  0.00    -0.082 Cl
ATOM      9  C   UNL d   1     -45.124  12.117  22.687  0.00  0.00     0.004 A 
ATOM     10  C   UNL d   1     -45.144  13.314  21.920  0.00  0.00     0.099 A 
ATOM     11  C   UNL d   1     -44.740  12.649  22.194  0.00  0.00     0.021 A 
ENDROOT
BRANCH   1  12
ATOM     12  O   UNL d   1     -47.449  13.635  22.601  0.00  0.00    -0.271 OA
BRANCH  12  13
ATOM     13  C   UNL d   1     -47.579  14.571  22.806  0.00  0.00     0.306 C 
ATOM     14  O   UNL d   1     -46.823  14.986  23.326  0.00  0.00    -0.258 OA
BRANCH  13  15
ATOM     15  C   UNL d   1     -48.259  14.973  22.566  0.00  0.00     0.093 A 
ATOM     16  S   UNL d   1     -48.766  15.386  23.057  0.00  0.00    -0.081 SA
ATOM     17  C   UNL d   1     -49.383  15.705  22.564  0.00  0.00     0.036 A 
ATOM     18  C   UNL d   1     -49.228  15.475  21.791  0.00  0.00     0.008 A 
ATOM     19  C   UNL d   1     -48.520  15.015  21.803  0.00  0.00     0.012 A 
ENDBRANCH  13  15
ENDBRANCH  12  13
ENDBRANCH   1  12
BRANCH   2  20
ATOM     20  C   UNL d   1     -48.314  12.458  23.698  0.00  0.00     0.082 C 
BRANCH  20  21
ATOM     21  N   UNL d   1     -48.911  12.078  23.277  0.00  0.00    -0.299 N 
ATOM     22  C   UNL d   1     -48.748  11.713  22.567  0.00  0.00     0.107 A 
ATOM     23  C   UNL d   1     -49.340  11.332  22.145  0.00  0.00     0.142 A 
ATOM     24  O   UNL d   1     -50.112  11.322  22.449  0.00  0.00    -0.300 OA
ATOM     25  C   UNL d   1     -50.283  11.685  23.161  0.00  0.00     0.142 A 
ATOM     26  C   UNL d   1     -49.672  12.065  23.574  0.00  0.00     0.107 A 
ENDBRANCH  20  21
ENDBRANCH   2  20
TORSDOF 5
ENDMDL
