MODEL 1
REMARK VINA RESULT:      -5.4      0.000      0.000
REMARK  3 active torsions:
REMARK  status: ('A' for Active; 'I' for Inactive)
REMARK    1  A    between atoms: C_6  and  C_1 
REMARK    2  A    between atoms: C_7  and  C_2 
REMARK    3  A    between atoms: O_14  and  C_12 
ROOT
ATOM      1  C   UNL d   1     -41.694-122.517 -51.565  0.00  0.00     0.084 A 
ATOM      2  C   UNL d   1     -41.614-123.218 -51.136  0.00  0.00     0.105 A 
ATOM      3  C   UNL d   1     -41.528-122.684 -52.352  0.00  0.00     0.031 A 
ATOM      4  O   UNL d   1     -41.398-123.817 -51.661  0.00  0.00    -0.307 OA
ATOM      5  C   UNL d   1     -41.346-123.481 -52.411  0.00  0.00     0.100 A 
ATOM      6  C   UNL d   1     -41.518-122.213 -53.024  0.00  0.00     0.026 A 
ATOM      7  C   UNL d   1     -41.153-123.816 -53.143  0.00  0.00     0.027 A 
ATOM      8  C   UNL d   1     -41.327-122.534 -53.760  0.00  0.00     0.094 A 
ATOM      9  C   UNL d   1     -41.142-123.345 -53.820  0.00  0.00     0.026 A 
ENDROOT
BRANCH   2  10
ATOM     10  C   UNL d   1     -41.732-123.301 -50.320  0.00  0.00     0.023 A 
ATOM     11  C   UNL d   1     -41.123-123.100 -49.801  0.00  0.00     0.002 A 
ATOM     12  C   UNL d   1     -41.234-123.181 -48.999  0.00  0.00     0.000 A 
ATOM     13  C   UNL d   1     -41.955-123.462 -48.714  0.00  0.00     0.000 A 
ATOM     14  C   UNL d   1     -42.559-123.660 -49.247  0.00  0.00     0.000 A 
ATOM     15  C   UNL d   1     -42.449-123.581 -50.034  0.00  0.00     0.002 A 
ENDBRANCH   2  10
BRANCH   1  16
ATOM     16  C   UNL d   1     -41.903-121.779 -51.260  0.00  0.00     0.299 C 
ATOM     17  O   UNL d   1     -42.692-121.590 -51.151  0.00  0.00    -0.264 OA
ATOM     18  N   UNL d   1     -41.329-121.232 -51.064  0.00  0.00    -0.102 N 
ENDBRANCH   1  16
BRANCH   8  19
ATOM     19  O   UNL d   1     -41.316-122.063 -54.432  0.00  0.00    -0.328 OA
ATOM     20  C   UNL d   1     -41.938-122.113 -54.979  0.00  0.00     0.181 C 
ENDBRANCH   8  19
TORSDOF 3
ENDMDL
MODEL 2
REMARK VINA RESULT:      -3.8      1.320      4.268
REMARK  3 active torsions:
REMARK  status: ('A' for Active; 'I' for Inactive)
REMARK    1  A    between atoms: C_6  and  C_1 
REMARK    2  A    between atoms: C_7  and  C_2 
REMARK    3  A    between atoms: O_14  and  C_12 
ROOT
ATOM      1  C   UNL d   1     -41.657-122.690 -53.472  0.00  0.00     0.084 A 
ATOM      2  C   UNL d   1     -41.706-121.970 -53.871  0.00  0.00     0.105 A 
ATOM      3  C   UNL d   1     -41.498-122.528 -52.682  0.00  0.00     0.031 A 
ATOM      4  O   UNL d   1     -41.577-121.363 -53.326  0.00  0.00    -0.307 OA
ATOM      5  C   UNL d   1     -41.449-121.715 -52.592  0.00  0.00     0.100 A 
ATOM      6  C   UNL d   1     -41.391-123.017 -52.032  0.00  0.00     0.026 A 
ATOM      7  C   UNL d   1     -41.292-121.381 -51.852  0.00  0.00     0.027 A 
ATOM      8  C   UNL d   1     -41.235-122.698 -51.287  0.00  0.00     0.094 A 
ATOM      9  C   UNL d   1     -41.185-121.870 -51.196  0.00  0.00     0.026 A 
ENDROOT
BRANCH   2  10
ATOM     10  C   UNL d   1     -41.859-121.875 -54.681  0.00  0.00     0.023 A 
ATOM     11  C   UNL d   1     -41.232-121.903 -55.217  0.00  0.00     0.002 A 
ATOM     12  C   UNL d   1     -41.378-121.811 -56.012  0.00  0.00     0.000 A 
ATOM     13  C   UNL d   1     -42.151-121.691 -56.273  0.00  0.00     0.000 A 
ATOM     14  C   UNL d   1     -42.771-121.665 -55.724  0.00  0.00     0.000 A 
ATOM     15  C   UNL d   1     -42.628-121.756 -54.943  0.00  0.00     0.002 A 
ENDBRANCH   2  10
BRANCH   1  16
ATOM     16  C   UNL d   1     -41.750-123.440 -53.804  0.00  0.00     0.299 C 
ATOM     17  O   UNL d   1     -42.476-123.817 -53.766  0.00  0.00    -0.264 OA
ATOM     18  N   UNL d   1     -41.123-123.813 -54.172  0.00  0.00    -0.102 N 
ENDBRANCH   1  16
BRANCH   8  19
ATOM     19  O   UNL d   1     -41.128-123.186 -50.635  0.00  0.00    -0.328 OA
ATOM     20  C   UNL d   1     -41.762-123.330 -50.121  0.00  0.00     0.181 C 
ENDBRANCH   8  19
TORSDOF 3
ENDMDL
MODEL 3
REMARK VINA RESULT:      -3.4      0.706      1.097
REMARK  3 active torsions:
REMARK  status: ('A' for Active; 'I' for Inactive)
REMARK    1  A    between atoms: C_6  and  C_1 
REMARK    2  A    between atoms: C_7  and  C_2 
REMARK    3  A    between atoms: O_14  and  C_12 
ROOT
ATOM      1  C   UNL d   1     -42.172-122.624 -50.828  0.00  0.00     0.084 A 
ATOM      2  C   UNL d   1     -41.990-123.301 -50.393  0.00  0.00     0.105 A 
ATOM      3  C   UNL d   1     -41.861-122.720 -51.583  0.00  0.00     0.031 A 
ATOM      4  O   UNL d   1     -41.567-123.815 -50.881  0.00  0.00    -0.307 OA
ATOM      5  C   UNL d   1     -41.491-123.451 -51.616  0.00  0.00     0.100 A 
ATOM      6  C   UNL d   1     -41.868-122.237 -52.246  0.00  0.00     0.026 A 
ATOM      7  C   UNL d   1     -41.123-123.705 -52.311  0.00  0.00     0.027 A 
ATOM      8  C   UNL d   1     -41.505-122.478 -52.947  0.00  0.00     0.094 A 
ATOM      9  C   UNL d   1     -41.128-123.221 -52.980  0.00  0.00     0.026 A 
ENDROOT
BRANCH   2  10
ATOM     10  C   UNL d   1     -42.199-123.438 -49.602  0.00  0.00     0.023 A 
ATOM     11  C   UNL d   1     -42.984-123.609 -49.415  0.00  0.00     0.002 A 
ATOM     12  C   UNL d   1     -43.192-123.743 -48.640  0.00  0.00     0.000 A 
ATOM     13  C   UNL d   1     -42.616-123.707 -48.051  0.00  0.00     0.000 A 
ATOM     14  C   UNL d   1     -41.831-123.534 -48.253  0.00  0.00     0.000 A 
ATOM     15  C   UNL d   1     -41.627-123.402 -49.014  0.00  0.00     0.002 A 
ENDBRANCH   2  10
BRANCH   1  16
ATOM     16  C   UNL d   1     -42.590-121.966 -50.557  0.00  0.00     0.299 C 
ATOM     17  O   UNL d   1     -43.409-121.965 -50.575  0.00  0.00    -0.264 OA
ATOM     18  N   UNL d   1     -42.195-121.312 -50.267  0.00  0.00    -0.102 N 
ENDBRANCH   1  16
BRANCH   8  19
ATOM     19  O   UNL d   1     -41.511-121.995 -53.610  0.00  0.00    -0.328 OA
ATOM     20  C   UNL d   1     -41.981-122.199 -54.262  0.00  0.00     0.181 C 
ENDBRANCH   8  19
TORSDOF 3
ENDMDL
MODEL 4
REMARK VINA RESULT:      -2.8      1.418      4.015
REMARK  3 active torsions:
REMARK  status: ('A' for Active; 'I' for Inactive)
REMARK    1  A    between atoms: C_6  and  C_1 
REMARK    2  A    between atoms: C_7  and  C_2 
REMARK    3  A    between atoms: O_14  and  C_12 
ROOT
ATOM      1  C   UNL d   1     -42.257-122.811 -50.147  0.00  0.00     0.084 A 
ATOM      2  C   UNL d   1     -41.626-123.093 -50.597  0.00  0.00     0.105 A 
ATOM      3  C   UNL d   1     -42.144-123.059 -49.372  0.00  0.00     0.031 A 
ATOM      4  O   UNL d   1     -41.123-123.516 -50.098  0.00  0.00    -0.307 OA
ATOM      5  C   UNL d   1     -41.448-123.492 -49.342  0.00  0.00     0.100 A 
ATOM      6  C   UNL d   1     -42.584-122.948 -48.689  0.00  0.00     0.026 A 
ATOM      7  C   UNL d   1     -41.186-123.817 -48.628  0.00  0.00     0.027 A 
ATOM      8  C   UNL d   1     -42.335-123.267 -47.970  0.00  0.00     0.094 A 
ATOM      9  C   UNL d   1     -41.627-123.707 -47.939  0.00  0.00     0.026 A 
ENDROOT
BRANCH   2  10
ATOM     10  C   UNL d   1     -41.518-122.970 -51.410  0.00  0.00     0.023 A 
ATOM     11  C   UNL d   1     -41.238-122.241 -51.676  0.00  0.00     0.002 A 
ATOM     12  C   UNL d   1     -41.132-122.117 -52.473  0.00  0.00     0.000 A 
ATOM     13  C   UNL d   1     -41.305-122.722 -53.006  0.00  0.00     0.000 A 
ATOM     14  C   UNL d   1     -41.586-123.449 -52.726  0.00  0.00     0.000 A 
ATOM     15  C   UNL d   1     -41.691-123.571 -51.943  0.00  0.00     0.002 A 
ENDBRANCH   2  10
BRANCH   1  16
ATOM     16  C   UNL d   1     -42.891-122.359 -50.424  0.00  0.00     0.299 C 
ATOM     17  O   UNL d   1     -43.633-122.696 -50.497  0.00  0.00    -0.264 OA
ATOM     18  N   UNL d   1     -42.785-121.574 -50.627  0.00  0.00    -0.102 N 
ENDBRANCH   1  16
BRANCH   8  19
ATOM     19  O   UNL d   1     -42.775-123.156 -47.287  0.00  0.00    -0.328 OA
ATOM     20  C   UNL d   1     -42.984-123.809 -46.821  0.00  0.00     0.181 C 
ENDBRANCH   8  19
TORSDOF 3
ENDMDL
