MODEL 1
REMARK VINA RESULT:       0.5      0.000      0.000
REMARK  6 active torsions:
REMARK  status: ('A' for Active; 'I' for Inactive)
REMARK    1  A    between atoms: C_11  and  C_4 
REMARK    2  A    between atoms: N_10  and  C_5 
REMARK    3  A    between atoms: C_16  and  C_9 
REMARK    4  A    between atoms: C_13  and  N_10 
REMARK    5  A    between atoms: C_14  and  C_13 
REMARK    6  A    between atoms: C_21  and  C_16 
ROOT
ATOM      1  N   UNL d   1      57.311  -1.523  31.062  0.00  0.00    -0.195 N 
ATOM      2  C   UNL d   1      57.162  -0.934  31.621  0.00  0.00     0.167 A 
ATOM      3  N   UNL d   1      56.354  -2.345  31.673  0.00  0.00    -0.163 NA
ATOM      4  C   UNL d   1      56.617  -1.056  32.193  0.00  0.00     0.055 A 
ATOM      5  C   UNL d   1      57.864  -1.380  30.494  0.00  0.00     0.167 A 
ATOM      6  C   UNL d   1      56.205  -1.756  32.232  0.00  0.00     0.104 A 
ATOM      7  N   UNL d   1      57.574  -0.234  31.583  0.00  0.00    -0.227 NA
ATOM      8  C   UNL d   1      58.272  -0.696  30.448  0.00  0.00     0.058 A 
ATOM      9  C   UNL d   1      58.123  -0.108  31.007  0.00  0.00     0.086 A 
ATOM     10  C   UNL d   1      55.656  -1.885  32.804  0.00  0.00     0.023 C 
ENDROOT
BRANCH   5  11
ATOM     11  N   UNL d   1      58.017  -1.987  29.918  0.00  0.00    -0.224 NA
BRANCH  11  12
ATOM     12  C   UNL d   1      58.351  -2.108  29.151  0.00  0.00     0.120 C 
BRANCH  12  13
ATOM     13  C   UNL d   1      58.676  -2.852  28.931  0.00  0.00     0.101 A 
ATOM     14  N   UNL d   1      58.164  -3.509  28.761  0.00  0.00    -0.242 NA
ATOM     15  C   UNL d   1      58.498  -4.253  28.541  0.00  0.00     0.099 A 
ATOM     16  C   UNL d   1      59.338  -4.346  28.490  0.00  0.00     0.021 A 
ATOM     17  C   UNL d   1      59.846  -3.682  28.663  0.00  0.00     0.003 A 
ATOM     18  C   UNL d   1      59.513  -2.936  28.883  0.00  0.00     0.021 A 
ENDBRANCH  12  13
ENDBRANCH  11  12
ENDBRANCH   5  11
BRANCH   9  19
ATOM     19  C   UNL d   1      58.549   0.624  30.972  0.00  0.00     0.019 C 
BRANCH  19  20
ATOM     20  C   UNL d   1      59.398   0.629  30.877  0.00  0.00     0.002 C 
ATOM     21  C   UNL d   1      59.899   0.677  31.549  0.00  0.00     0.000 C 
ENDBRANCH  19  20
ENDBRANCH   9  19
BRANCH   4  22
ATOM     22  C   UNL d   1      56.471  -0.477  32.743  0.00  0.00     0.004 A 
ATOM     23  C   UNL d   1      56.907  -0.455  33.426  0.00  0.00     0.000 A 
ATOM     24  C   UNL d   1      56.760   0.124  33.976  0.00  0.00     0.000 A 
ATOM     25  C   UNL d   1      56.178   0.681  33.844  0.00  0.00     0.000 A 
ATOM     26  C   UNL d   1      55.739   0.661  33.159  0.00  0.00     0.000 A 
ATOM     27  C   UNL d   1      55.888   0.073  32.600  0.00  0.00     0.000 A 
ENDBRANCH   4  22
TORSDOF 6
ENDMDL
MODEL 2
REMARK VINA RESULT:       1.4      1.140      4.681
REMARK  6 active torsions:
REMARK  status: ('A' for Active; 'I' for Inactive)
REMARK    1  A    between atoms: C_11  and  C_4 
REMARK    2  A    between atoms: N_10  and  C_5 
REMARK    3  A    between atoms: C_16  and  C_9 
REMARK    4  A    between atoms: C_13  and  N_10 
REMARK    5  A    between atoms: C_14  and  C_13 
REMARK    6  A    between atoms: C_21  and  C_16 
ROOT
ATOM      1  N   UNL d   1      58.110  -0.728  30.695  0.00  0.00    -0.195 N 
ATOM      2  C   UNL d   1      58.820  -0.911  30.318  0.00  0.00     0.167 A 
ATOM      3  N   UNL d   1      57.491  -1.812  30.058  0.00  0.00    -0.163 NA
ATOM      4  C   UNL d   1      58.858  -1.535  29.820  0.00  0.00     0.055 A 
ATOM      5  C   UNL d   1      58.093  -0.095  31.193  0.00  0.00     0.167 A 
ATOM      6  C   UNL d   1      58.201  -1.995  29.680  0.00  0.00     0.104 A 
ATOM      7  N   UNL d   1      59.476  -0.451  30.457  0.00  0.00    -0.227 NA
ATOM      8  C   UNL d   1      58.731   0.362  31.336  0.00  0.00     0.058 A 
ATOM      9  C   UNL d   1      59.442   0.179  30.959  0.00  0.00     0.086 A 
ATOM     10  C   UNL d   1      58.232  -2.624  29.181  0.00  0.00     0.023 C 
ENDROOT
BRANCH   5  11
ATOM     11  N   UNL d   1      57.360   0.094  31.583  0.00  0.00    -0.224 NA
BRANCH  11  12
ATOM     12  C   UNL d   1      57.050   0.492  32.261  0.00  0.00     0.120 C 
BRANCH  12  13
ATOM     13  C   UNL d   1      56.391   0.181  32.683  0.00  0.00     0.101 A 
ATOM     14  N   UNL d   1      55.997  -0.519  32.406  0.00  0.00    -0.242 NA
ATOM     15  C   UNL d   1      55.337  -0.825  32.836  0.00  0.00     0.099 A 
ATOM     16  C   UNL d   1      55.069  -0.437  33.539  0.00  0.00     0.021 A 
ATOM     17  C   UNL d   1      55.469   0.266  33.811  0.00  0.00     0.003 A 
ATOM     18  C   UNL d   1      56.130   0.573  33.382  0.00  0.00     0.021 A 
ENDBRANCH  12  13
ENDBRANCH  11  12
ENDBRANCH   5  11
BRANCH   9  19
ATOM     19  C   UNL d   1      60.128   0.654  31.100  0.00  0.00     0.019 C 
BRANCH  19  20
ATOM     20  C   UNL d   1      60.491   0.676  31.873  0.00  0.00     0.002 C 
ATOM     21  C   UNL d   1      61.132   0.166  32.056  0.00  0.00     0.000 C 
ENDBRANCH  19  20
ENDBRANCH   9  19
BRANCH   4  22
ATOM     22  C   UNL d   1      59.557  -1.715  29.448  0.00  0.00     0.004 A 
ATOM     23  C   UNL d   1      59.809  -1.258  28.828  0.00  0.00     0.000 A 
ATOM     24  C   UNL d   1      60.508  -1.438  28.456  0.00  0.00     0.000 A 
ATOM     25  C   UNL d   1      60.955  -2.075  28.704  0.00  0.00     0.000 A 
ATOM     26  C   UNL d   1      60.703  -2.535  29.326  0.00  0.00     0.000 A 
ATOM     27  C   UNL d   1      59.993  -2.352  29.704  0.00  0.00     0.000 A 
ENDBRANCH   4  22
TORSDOF 6
ENDMDL
MODEL 3
REMARK VINA RESULT:       1.6      1.671      4.849
REMARK  6 active torsions:
REMARK  status: ('A' for Active; 'I' for Inactive)
REMARK    1  A    between atoms: C_11  and  C_4 
REMARK    2  A    between atoms: N_10  and  C_5 
REMARK    3  A    between atoms: C_16  and  C_9 
REMARK    4  A    between atoms: C_13  and  N_10 
REMARK    5  A    between atoms: C_14  and  C_13 
REMARK    6  A    between atoms: C_21  and  C_16 
ROOT
ATOM      1  N   UNL d   1      57.995  -0.181  30.780  0.00  0.00    -0.195 N 
ATOM      2  C   UNL d   1      58.718  -0.135  30.385  0.00  0.00     0.167 A 
ATOM      3  N   UNL d   1      57.397  -0.698  29.624  0.00  0.00    -0.163 NA
ATOM      4  C   UNL d   1      58.772  -0.368  29.623  0.00  0.00     0.055 A 
ATOM      5  C   UNL d   1      57.963   0.060  31.549  0.00  0.00     0.167 A 
ATOM      6  C   UNL d   1      58.120  -0.653  29.229  0.00  0.00     0.104 A 
ATOM      7  N   UNL d   1      59.371   0.149  30.780  0.00  0.00    -0.227 NA
ATOM      8  C   UNL d   1      58.597   0.339  31.943  0.00  0.00     0.058 A 
ATOM      9  C   UNL d   1      59.320   0.385  31.548  0.00  0.00     0.086 A 
ATOM     10  C   UNL d   1      58.167  -0.889  28.462  0.00  0.00     0.023 C 
ENDROOT
BRANCH   5  11
ATOM     11  N   UNL d   1      57.217   0.012  31.956  0.00  0.00    -0.224 NA
BRANCH  11  12
ATOM     12  C   UNL d   1      56.781  -0.473  32.492  0.00  0.00     0.120 C 
BRANCH  12  13
ATOM     13  C   UNL d   1      56.242  -0.136  33.044  0.00  0.00     0.101 A 
ATOM     14  N   UNL d   1      55.404  -0.241  32.942  0.00  0.00    -0.242 NA
ATOM     15  C   UNL d   1      54.870   0.101  33.500  0.00  0.00     0.099 A 
ATOM     16  C   UNL d   1      55.165   0.546  34.157  0.00  0.00     0.021 A 
ATOM     17  C   UNL d   1      56.008   0.647  34.252  0.00  0.00     0.003 A 
ATOM     18  C   UNL d   1      56.544   0.305  33.695  0.00  0.00     0.021 A 
ENDBRANCH  12  13
ENDBRANCH  11  12
ENDBRANCH   5  11
BRANCH   9  19
ATOM     19  C   UNL d   1      60.003   0.680  31.953  0.00  0.00     0.019 C 
BRANCH  19  20
ATOM     20  C   UNL d   1      60.588   0.144  32.268  0.00  0.00     0.002 C 
ATOM     21  C   UNL d   1      61.132   0.404  32.851  0.00  0.00     0.000 C 
ENDBRANCH  19  20
ENDBRANCH   9  19
BRANCH   4  22
ATOM     22  C   UNL d   1      59.484  -0.323  29.235  0.00  0.00     0.004 A 
ATOM     23  C   UNL d   1      59.895  -1.003  29.073  0.00  0.00     0.000 A 
ATOM     24  C   UNL d   1      60.607  -0.958  28.684  0.00  0.00     0.000 A 
ATOM     25  C   UNL d   1      60.907  -0.233  28.458  0.00  0.00     0.000 A 
ATOM     26  C   UNL d   1      60.496   0.451  28.619  0.00  0.00     0.000 A 
ATOM     27  C   UNL d   1      59.773   0.405  29.014  0.00  0.00     0.000 A 
ENDBRANCH   4  22
TORSDOF 6
ENDMDL
MODEL 4
REMARK VINA RESULT:       2.5      1.366      5.066
REMARK  6 active torsions:
REMARK  status: ('A' for Active; 'I' for Inactive)
REMARK    1  A    between atoms: C_11  and  C_4 
REMARK    2  A    between atoms: N_10  and  C_5 
REMARK    3  A    between atoms: C_16  and  C_9 
REMARK    4  A    between atoms: C_13  and  N_10 
REMARK    5  A    between atoms: C_14  and  C_13 
REMARK    6  A    between atoms: C_21  and  C_16 
ROOT
ATOM      1  N   UNL d   1      58.407  -0.417  30.952  0.00  0.00    -0.195 N 
ATOM      2  C   UNL d   1      58.917  -0.623  30.338  0.00  0.00     0.167 A 
ATOM      3  N   UNL d   1      59.341   0.519  31.414  0.00  0.00    -0.163 NA
ATOM      4  C   UNL d   1      59.626  -0.261  30.269  0.00  0.00     0.055 A 
ATOM      5  C   UNL d   1      57.696  -0.794  31.003  0.00  0.00     0.167 A 
ATOM      6  C   UNL d   1      59.852   0.312  30.800  0.00  0.00     0.104 A 
ATOM      7  N   UNL d   1      58.691  -1.196  29.806  0.00  0.00    -0.227 NA
ATOM      8  C   UNL d   1      57.466  -1.357  30.487  0.00  0.00     0.058 A 
ATOM      9  C   UNL d   1      57.977  -1.564  29.872  0.00  0.00     0.086 A 
ATOM     10  C   UNL d   1      60.563   0.681  30.737  0.00  0.00     0.023 C 
ENDROOT
BRANCH   5  11
ATOM     11  N   UNL d   1      57.170  -0.581  31.637  0.00  0.00    -0.224 NA
BRANCH  11  12
ATOM     12  C   UNL d   1      56.933  -0.816  32.413  0.00  0.00     0.120 C 
BRANCH  12  13
ATOM     13  C   UNL d   1      56.382  -0.359  32.856  0.00  0.00     0.101 A 
ATOM     14  N   UNL d   1      55.694  -0.034  32.478  0.00  0.00    -0.242 NA
ATOM     15  C   UNL d   1      55.146   0.424  32.930  0.00  0.00     0.099 A 
ATOM     16  C   UNL d   1      55.281   0.560  33.755  0.00  0.00     0.021 A 
ATOM     17  C   UNL d   1      55.975   0.231  34.127  0.00  0.00     0.003 A 
ATOM     18  C   UNL d   1      56.524  -0.228  33.676  0.00  0.00     0.021 A 
ENDBRANCH  12  13
ENDBRANCH  11  12
ENDBRANCH   5  11
BRANCH   9  19
ATOM     19  C   UNL d   1      57.747  -2.160  29.316  0.00  0.00     0.019 C 
BRANCH  19  20
ATOM     20  C   UNL d   1      57.963  -2.977  29.439  0.00  0.00     0.002 C 
ATOM     21  C   UNL d   1      58.267  -3.435  28.806  0.00  0.00     0.000 C 
ENDBRANCH  19  20
ENDBRANCH   9  19
BRANCH   4  22
ATOM     22  C   UNL d   1      60.128  -0.464  29.664  0.00  0.00     0.004 A 
ATOM     23  C   UNL d   1      60.286   0.073  29.078  0.00  0.00     0.000 A 
ATOM     24  C   UNL d   1      60.788  -0.130  28.473  0.00  0.00     0.000 A 
ATOM     25  C   UNL d   1      61.133  -0.870  28.455  0.00  0.00     0.000 A 
ATOM     26  C   UNL d   1      60.977  -1.411  29.043  0.00  0.00     0.000 A 
ATOM     27  C   UNL d   1      60.466  -1.204  29.657  0.00  0.00     0.000 A 
ENDBRANCH   4  22
TORSDOF 6
ENDMDL
