MODEL 1
REMARK VINA RESULT:      -2.9      0.000      0.000
REMARK  6 active torsions:
REMARK  status: ('A' for Active; 'I' for Inactive)
REMARK    1  A    between atoms: C_2  and  C_1 
REMARK       I    between atoms: N_5  and  C_1 
REMARK    2  A    between atoms: C_4  and  C_2 
REMARK    3  A    between atoms: O_13  and  C_3 
REMARK    4  A    between atoms: C_9  and  C_4 
REMARK    5  A    between atoms: C_11  and  N_5 
REMARK    6  A    between atoms: O_14  and  C_6 
ROOT
ATOM      1  C   UNL d   1      33.237  20.095 -22.595  0.00  0.00     0.005 C 
ENDROOT
BRANCH   1   2
ATOM      2  C   UNL d   1      33.113  19.304 -22.388  0.00  0.00     0.062 C 
BRANCH   2   3
ATOM      3  C   UNL d   1      33.001  18.734 -22.975  0.00  0.00     0.279 C 
ATOM      4  N   UNL d   1      32.754  18.026 -22.791  0.00  0.00    -0.208 NA
ATOM      5  O   UNL d   1      33.145  18.911 -23.717  0.00  0.00    -0.265 OA
BRANCH   4   6
ATOM      6  C   UNL d   1      32.649  17.493 -23.340  0.00  0.00     0.085 A 
ATOM      7  C   UNL d   1      33.151  16.896 -23.376  0.00  0.00     0.019 A 
ATOM      8  C   UNL d   1      33.054  16.358 -23.923  0.00  0.00     0.002 A 
ATOM      9  C   UNL d   1      32.449  16.416 -24.439  0.00  0.00     0.000 A 
ATOM     10  C   UNL d   1      31.948  17.020 -24.395  0.00  0.00     0.002 A 
ATOM     11  C   UNL d   1      32.044  17.563 -23.845  0.00  0.00     0.019 A 
ENDBRANCH   4   6
ENDBRANCH   2   3
ENDBRANCH   1   2
BRANCH   1  12
ATOM     12  C   UNL d   1      33.203  20.684 -22.019  0.00  0.00     0.002 A 
ATOM     13  C   UNL d   1      33.235  21.486 -22.240  0.00  0.00     0.026 A 
ATOM     14  C   UNL d   1      33.201  22.076 -21.664  0.00  0.00     0.116 A 
ATOM     15  C   UNL d   1      33.136  21.864 -20.868  0.00  0.00     0.116 A 
ATOM     16  C   UNL d   1      33.104  21.066 -20.645  0.00  0.00     0.026 A 
ATOM     17  C   UNL d   1      33.138  20.478 -21.226  0.00  0.00     0.002 A 
BRANCH  14  18
ATOM     18  O   UNL d   1      33.233  22.860 -21.880  0.00  0.00    -0.326 OA
ATOM     19  C   UNL d   1      33.127  23.073 -22.672  0.00  0.00     0.181 C 
ENDBRANCH  14  18
BRANCH  15  20
ATOM     20  O   UNL d   1      33.102  22.452 -20.284  0.00  0.00    -0.326 OA
ATOM     21  C   UNL d   1      33.240  22.261 -19.491  0.00  0.00     0.181 C 
ENDBRANCH  15  20
ENDBRANCH   1  12
TORSDOF 6
ENDMDL
MODEL 2
REMARK VINA RESULT:      -2.8      1.405      4.993
REMARK  6 active torsions:
REMARK  status: ('A' for Active; 'I' for Inactive)
REMARK    1  A    between atoms: C_2  and  C_1 
REMARK       I    between atoms: N_5  and  C_1 
REMARK    2  A    between atoms: C_4  and  C_2 
REMARK    3  A    between atoms: O_13  and  C_3 
REMARK    4  A    between atoms: C_9  and  C_4 
REMARK    5  A    between atoms: C_11  and  N_5 
REMARK    6  A    between atoms: O_14  and  C_6 
ROOT
ATOM      1  C   UNL d   1      33.228  20.066 -22.211  0.00  0.00     0.005 C 
ENDROOT
BRANCH   1   2
ATOM      2  C   UNL d   1      32.696  20.304 -21.625  0.00  0.00     0.062 C 
BRANCH   2   3
ATOM      3  C   UNL d   1      32.722  21.074 -21.328  0.00  0.00     0.279 C 
ATOM      4  N   UNL d   1      32.234  21.296 -20.773  0.00  0.00    -0.208 NA
ATOM      5  O   UNL d   1      33.241  21.578 -21.609  0.00  0.00    -0.265 OA
BRANCH   4   6
ATOM      6  C   UNL d   1      32.259  22.017 -20.495  0.00  0.00     0.085 A 
ATOM      7  C   UNL d   1      32.828  22.200 -19.993  0.00  0.00     0.019 A 
ATOM      8  C   UNL d   1      32.861  22.919 -19.710  0.00  0.00     0.002 A 
ATOM      9  C   UNL d   1      32.318  23.460 -19.931  0.00  0.00     0.000 A 
ATOM     10  C   UNL d   1      31.749  23.268 -20.437  0.00  0.00     0.002 A 
ATOM     11  C   UNL d   1      31.715  22.544 -20.723  0.00  0.00     0.019 A 
ENDBRANCH   4   6
ENDBRANCH   2   3
ENDBRANCH   1   2
BRANCH   1  12
ATOM     12  C   UNL d   1      33.097  19.369 -22.632  0.00  0.00     0.002 A 
ATOM     13  C   UNL d   1      33.073  19.381 -23.464  0.00  0.00     0.026 A 
ATOM     14  C   UNL d   1      32.942  18.684 -23.885  0.00  0.00     0.116 A 
ATOM     15  C   UNL d   1      32.835  17.975 -23.475  0.00  0.00     0.116 A 
ATOM     16  C   UNL d   1      32.858  17.960 -22.646  0.00  0.00     0.026 A 
ATOM     17  C   UNL d   1      32.990  18.661 -22.228  0.00  0.00     0.002 A 
BRANCH  14  18
ATOM     18  O   UNL d   1      32.919  18.696 -24.698  0.00  0.00    -0.326 OA
ATOM     19  C   UNL d   1      32.847  19.417 -25.097  0.00  0.00     0.181 C 
ENDBRANCH  14  18
BRANCH  15  20
ATOM     20  O   UNL d   1      32.703  17.270 -23.892  0.00  0.00    -0.326 OA
ATOM     21  C   UNL d   1      32.467  16.586 -23.491  0.00  0.00     0.181 C 
ENDBRANCH  15  20
ENDBRANCH   1  12
TORSDOF 6
ENDMDL
MODEL 3
REMARK VINA RESULT:      -2.3      1.030      1.372
REMARK  6 active torsions:
REMARK  status: ('A' for Active; 'I' for Inactive)
REMARK    1  A    between atoms: C_2  and  C_1 
REMARK       I    between atoms: N_5  and  C_1 
REMARK    2  A    between atoms: C_4  and  C_2 
REMARK    3  A    between atoms: O_13  and  C_3 
REMARK    4  A    between atoms: C_9  and  C_4 
REMARK    5  A    between atoms: C_11  and  N_5 
REMARK    6  A    between atoms: O_14  and  C_6 
ROOT
ATOM      1  C   UNL d   1      32.597  20.637 -21.525  0.00  0.00     0.005 C 
ENDROOT
BRANCH   1   2
ATOM      2  C   UNL d   1      33.213  20.339 -21.990  0.00  0.00     0.062 C 
BRANCH   2   3
ATOM      3  C   UNL d   1      33.104  19.650 -22.431  0.00  0.00     0.279 C 
ATOM      4  N   UNL d   1      32.867  19.689 -23.164  0.00  0.00    -0.208 NA
ATOM      5  O   UNL d   1      33.241  18.958 -22.106  0.00  0.00    -0.265 OA
BRANCH   4   6
ATOM      6  C   UNL d   1      32.765  19.043 -23.577  0.00  0.00     0.085 A 
ATOM      7  C   UNL d   1      33.241  18.913 -24.184  0.00  0.00     0.019 A 
ATOM      8  C   UNL d   1      33.146  18.270 -24.602  0.00  0.00     0.002 A 
ATOM      9  C   UNL d   1      32.570  17.751 -24.413  0.00  0.00     0.000 A 
ATOM     10  C   UNL d   1      32.097  17.889 -23.802  0.00  0.00     0.002 A 
ATOM     11  C   UNL d   1      32.191  18.537 -23.379  0.00  0.00     0.019 A 
ENDBRANCH   4   6
ENDBRANCH   2   3
ENDBRANCH   1   2
BRANCH   1  12
ATOM     12  C   UNL d   1      32.728  21.281 -21.026  0.00  0.00     0.002 A 
ATOM     13  C   UNL d   1      32.520  22.048 -21.274  0.00  0.00     0.026 A 
ATOM     14  C   UNL d   1      32.651  22.693 -20.775  0.00  0.00     0.116 A 
ATOM     15  C   UNL d   1      32.989  22.570 -20.031  0.00  0.00     0.116 A 
ATOM     16  C   UNL d   1      33.196  21.807 -19.783  0.00  0.00     0.026 A 
ATOM     17  C   UNL d   1      33.063  21.163 -20.285  0.00  0.00     0.002 A 
BRANCH  14  18
ATOM     18  O   UNL d   1      32.449  23.443 -21.017  0.00  0.00    -0.326 OA
ATOM     19  C   UNL d   1      32.476  23.639 -21.820  0.00  0.00     0.181 C 
ENDBRANCH  14  18
BRANCH  15  20
ATOM     20  O   UNL d   1      33.123  23.214 -19.525  0.00  0.00    -0.326 OA
ATOM     21  C   UNL d   1      33.232  23.091 -18.714  0.00  0.00     0.181 C 
ENDBRANCH  15  20
ENDBRANCH   1  12
TORSDOF 6
ENDMDL
MODEL 4
REMARK VINA RESULT:      -2.2      0.670      1.478
REMARK  6 active torsions:
REMARK  status: ('A' for Active; 'I' for Inactive)
REMARK    1  A    between atoms: C_2  and  C_1 
REMARK       I    between atoms: N_5  and  C_1 
REMARK    2  A    between atoms: C_4  and  C_2 
REMARK    3  A    between atoms: O_13  and  C_3 
REMARK    4  A    between atoms: C_9  and  C_4 
REMARK    5  A    between atoms: C_11  and  N_5 
REMARK    6  A    between atoms: O_14  and  C_6 
ROOT
ATOM      1  C   UNL d   1      32.961  19.663 -22.157  0.00  0.00     0.005 C 
ENDROOT
BRANCH   1   2
ATOM      2  C   UNL d   1      33.210  19.358 -22.884  0.00  0.00     0.062 C 
BRANCH   2   3
ATOM      3  C   UNL d   1      33.075  18.564 -23.069  0.00  0.00     0.279 C 
ATOM      4  N   UNL d   1      32.797  18.366 -23.761  0.00  0.00    -0.208 NA
ATOM      5  O   UNL d   1      33.229  18.014 -22.544  0.00  0.00    -0.265 OA
BRANCH   4   6
ATOM      6  C   UNL d   1      32.671  17.623 -23.935  0.00  0.00     0.085 A 
ATOM      7  C   UNL d   1      32.049  17.271 -23.619  0.00  0.00     0.019 A 
ATOM      8  C   UNL d   1      31.916  16.528 -23.787  0.00  0.00     0.002 A 
ATOM      9  C   UNL d   1      32.408  16.133 -24.274  0.00  0.00     0.000 A 
ATOM     10  C   UNL d   1      33.031  16.495 -24.587  0.00  0.00     0.002 A 
ATOM     11  C   UNL d   1      33.167  17.244 -24.420  0.00  0.00     0.019 A 
ENDBRANCH   4   6
ENDBRANCH   2   3
ENDBRANCH   1   2
BRANCH   1  12
ATOM     12  C   UNL d   1      33.011  20.473 -22.008  0.00  0.00     0.002 A 
ATOM     13  C   UNL d   1      33.020  20.753 -21.224  0.00  0.00     0.026 A 
ATOM     14  C   UNL d   1      33.071  21.563 -21.075  0.00  0.00     0.116 A 
ATOM     15  C   UNL d   1      33.113  22.092 -21.708  0.00  0.00     0.116 A 
ATOM     16  C   UNL d   1      33.104  21.815 -22.489  0.00  0.00     0.026 A 
ATOM     17  C   UNL d   1      33.053  21.002 -22.635  0.00  0.00     0.002 A 
BRANCH  14  18
ATOM     18  O   UNL d   1      33.080  21.836 -20.308  0.00  0.00    -0.326 OA
ATOM     19  C   UNL d   1      33.241  21.315 -19.687  0.00  0.00     0.181 C 
ENDBRANCH  14  18
BRANCH  15  20
ATOM     20  O   UNL d   1      33.164  22.907 -21.565  0.00  0.00    -0.326 OA
ATOM     21  C   UNL d   1      33.204  23.440 -22.196  0.00  0.00     0.181 C 
ENDBRANCH  15  20
ENDBRANCH   1  12
TORSDOF 6
ENDMDL
MODEL 5
REMARK VINA RESULT:      -1.8      1.385      5.241
REMARK  6 active torsions:
REMARK  status: ('A' for Active; 'I' for Inactive)
REMARK    1  A    between atoms: C_2  and  C_1 
REMARK       I    between atoms: N_5  and  C_1 
REMARK    2  A    between atoms: C_4  and  C_2 
REMARK    3  A    between atoms: O_13  and  C_3 
REMARK    4  A    between atoms: C_9  and  C_4 
REMARK    5  A    between atoms: C_11  and  N_5 
REMARK    6  A    between atoms: O_14  and  C_6 
ROOT
ATOM      1  C   UNL d   1      32.980  19.062 -22.853  0.00  0.00     0.005 C 
ENDROOT
BRANCH   1   2
ATOM      2  C   UNL d   1      32.423  19.530 -22.460  0.00  0.00     0.062 C 
BRANCH   2   3
ATOM      3  C   UNL d   1      32.669  20.158 -21.986  0.00  0.00     0.279 C 
ATOM      4  N   UNL d   1      32.336  20.851 -22.051  0.00  0.00    -0.208 NA
ATOM      5  O   UNL d   1      33.240  20.052 -21.471  0.00  0.00    -0.265 OA
BRANCH   4   6
ATOM      6  C   UNL d   1      32.567  21.440 -21.606  0.00  0.00     0.085 A 
ATOM      7  C   UNL d   1      33.005  21.999 -21.932  0.00  0.00     0.019 A 
ATOM      8  C   UNL d   1      33.240  22.592 -21.495  0.00  0.00     0.002 A 
ATOM      9  C   UNL d   1      33.036  22.626 -20.724  0.00  0.00     0.000 A 
ATOM     10  C   UNL d   1      32.596  22.060 -20.405  0.00  0.00     0.002 A 
ATOM     11  C   UNL d   1      32.357  21.462 -20.844  0.00  0.00     0.019 A 
ENDBRANCH   4   6
ENDBRANCH   2   3
ENDBRANCH   1   2
BRANCH   1  12
ATOM     12  C   UNL d   1      32.735  18.417 -23.307  0.00  0.00     0.002 A 
ATOM     13  C   UNL d   1      32.747  17.651 -22.983  0.00  0.00     0.026 A 
ATOM     14  C   UNL d   1      32.502  17.006 -23.436  0.00  0.00     0.116 A 
ATOM     15  C   UNL d   1      32.245  17.128 -24.212  0.00  0.00     0.116 A 
ATOM     16  C   UNL d   1      32.233  17.891 -24.536  0.00  0.00     0.026 A 
ATOM     17  C   UNL d   1      32.479  18.535 -24.079  0.00  0.00     0.002 A 
BRANCH  14  18
ATOM     18  O   UNL d   1      32.514  16.257 -23.119  0.00  0.00    -0.326 OA
ATOM     19  C   UNL d   1      33.233  15.859 -23.031  0.00  0.00     0.181 C 
ENDBRANCH  14  18
BRANCH  15  20
ATOM     20  O   UNL d   1      31.998  16.485 -24.673  0.00  0.00    -0.326 OA
ATOM     21  C   UNL d   1      31.288  16.523 -25.096  0.00  0.00     0.181 C 
ENDBRANCH  15  20
ENDBRANCH   1  12
TORSDOF 6
ENDMDL
