MODEL 1
REMARK VINA RESULT:      -2.7      0.000      0.000
REMARK  4 active torsions:
REMARK  status: ('A' for Active; 'I' for Inactive)
REMARK    1  A    between atoms: N_2  and  S_1 
REMARK    2  A    between atoms: C_8  and  S_1 
REMARK    3  A    between atoms: C_4  and  C_3 
REMARK       I    between atoms: N_5  and  C_4 
REMARK    4  A    between atoms: C_6  and  N_5 
ROOT
ATOM      1  N   UNL d   1      32.674  16.610 -24.439  0.00  0.00    -0.226 N 
ATOM      2  C   UNL d   1      31.936  16.244 -24.519  0.00  0.00     0.133 A 
ATOM      3  C   UNL d   1      33.241  16.132 -24.796  0.00  0.00     0.092 A 
ATOM      4  C   UNL d   1      32.050  15.536 -24.928  0.00  0.00     0.025 A 
ATOM      5  C   UNL d   1      32.855  15.471 -25.096  0.00  0.00     0.021 A 
ENDROOT
BRANCH   1   6
ATOM      6  S   UNL d   1      32.750  17.337 -24.052  0.00  0.00     0.271 S 
ATOM      7  O   UNL d   1      32.802  16.990 -23.305  0.00  0.00    -0.200 OA
ATOM      8  O   UNL d   1      32.698  17.673 -24.803  0.00  0.00    -0.200 OA
BRANCH   6   9
ATOM      9  C   UNL d   1      32.823  18.082 -23.715  0.00  0.00     0.104 A 
ATOM     10  C   UNL d   1      32.932  18.742 -24.198  0.00  0.00     0.013 A 
ATOM     11  C   UNL d   1      33.005  19.492 -23.863  0.00  0.00     0.001 A 
ATOM     12  C   UNL d   1      32.968  19.581 -23.041  0.00  0.00     0.000 A 
ATOM     13  C   UNL d   1      32.859  18.918 -22.559  0.00  0.00     0.001 A 
ATOM     14  C   UNL d   1      33.041  20.332 -22.706  0.00  0.00     0.000 C 
ATOM     15  C   UNL d   1      32.786  18.169 -22.897  0.00  0.00     0.013 A 
ENDBRANCH   6   9
ENDBRANCH   1   6
BRANCH   2  16
ATOM     16  C   UNL d   1      31.212  16.535 -24.240  0.00  0.00     0.298 C 
ATOM     17  N   UNL d   1      30.594  16.666 -24.776  0.00  0.00    -0.181 NA
ATOM     18  O   UNL d   1      31.115  16.689 -23.439  0.00  0.00    -0.264 OA
BRANCH  17  19
ATOM     19  C   UNL d   1      29.873  16.956 -24.496  0.00  0.00     0.197 A 
ATOM     20  N   UNL d   1      29.595  17.727 -24.603  0.00  0.00    -0.219 NA
ATOM     21  C   UNL d   1      28.860  17.777 -24.236  0.00  0.00     0.108 A 
ATOM     22  C   UNL d   1      28.681  17.046 -23.905  0.00  0.00     0.059 A 
ATOM     23  S   UNL d   1      29.313  16.535 -24.066  0.00  0.00    -0.046 SA
ENDBRANCH  17  19
ENDBRANCH   2  16
TORSDOF 4
ENDMDL
MODEL 2
REMARK VINA RESULT:      -1.9      1.101      3.401
REMARK  4 active torsions:
REMARK  status: ('A' for Active; 'I' for Inactive)
REMARK    1  A    between atoms: N_2  and  S_1 
REMARK    2  A    between atoms: C_8  and  S_1 
REMARK    3  A    between atoms: C_4  and  C_3 
REMARK       I    between atoms: N_5  and  C_4 
REMARK    4  A    between atoms: C_6  and  N_5 
ROOT
ATOM      1  N   UNL d   1      31.921  16.135 -24.585  0.00  0.00    -0.226 N 
ATOM      2  C   UNL d   1      32.548  16.670 -24.511  0.00  0.00     0.133 A 
ATOM      3  C   UNL d   1      32.205  15.453 -24.947  0.00  0.00     0.092 A 
ATOM      4  C   UNL d   1      33.222  16.315 -24.830  0.00  0.00     0.025 A 
ATOM      5  C   UNL d   1      33.006  15.565 -25.097  0.00  0.00     0.021 A 
ENDROOT
BRANCH   1   6
ATOM      6  S   UNL d   1      31.163  16.326 -24.316  0.00  0.00     0.271 S 
ATOM      7  O   UNL d   1      31.330  16.108 -23.538  0.00  0.00    -0.200 OA
ATOM      8  O   UNL d   1      31.007  16.541 -25.097  0.00  0.00    -0.200 OA
BRANCH   6   9
ATOM      9  C   UNL d   1      30.398  16.530 -24.099  0.00  0.00     0.104 A 
ATOM     10  C   UNL d   1      30.036  16.148 -23.463  0.00  0.00     0.013 A 
ATOM     11  C   UNL d   1      29.267  16.350 -23.242  0.00  0.00     0.001 A 
ATOM     12  C   UNL d   1      28.860  16.938 -23.660  0.00  0.00     0.000 A 
ATOM     13  C   UNL d   1      29.226  17.320 -24.297  0.00  0.00     0.001 A 
ATOM     14  C   UNL d   1      28.092  17.141 -23.439  0.00  0.00     0.000 C 
ATOM     15  C   UNL d   1      29.995  17.115 -24.515  0.00  0.00     0.013 A 
ENDBRANCH   6   9
ENDBRANCH   1   6
BRANCH   2  16
ATOM     16  C   UNL d   1      32.509  17.429 -24.177  0.00  0.00     0.298 C 
ATOM     17  N   UNL d   1      33.009  17.620 -23.545  0.00  0.00    -0.181 NA
ATOM     18  O   UNL d   1      31.977  17.979 -24.475  0.00  0.00    -0.264 OA
BRANCH  17  19
ATOM     19  C   UNL d   1      32.968  18.375 -23.213  0.00  0.00     0.197 A 
ATOM     20  N   UNL d   1      32.738  18.544 -22.438  0.00  0.00    -0.219 NA
ATOM     21  C   UNL d   1      32.776  19.360 -22.342  0.00  0.00     0.108 A 
ATOM     22  C   UNL d   1      33.026  19.697 -23.049  0.00  0.00     0.059 A 
ATOM     23  S   UNL d   1      33.146  19.083 -23.592  0.00  0.00    -0.046 SA
ENDBRANCH  17  19
ENDBRANCH   2  16
TORSDOF 4
ENDMDL
