MODEL 1
REMARK VINA RESULT:      -4.1      0.000      0.000
REMARK  5 active torsions:
REMARK  status: ('A' for Active; 'I' for Inactive)
REMARK    1  A    between atoms: N_3  and  C_1 
REMARK       I    between atoms: C_9  and  N_3 
REMARK       I    between atoms: N_5  and  C_8 
REMARK    2  A    between atoms: C_8  and  C_16 
REMARK    3  A    between atoms: C_17  and  C_9 
REMARK    4  A    between atoms: S_13  and  C_17 
REMARK    5  A    between atoms: C_16  and  S_13 
ROOT
ATOM      1  N   UNL d   1      57.710  -0.603  30.122  0.00  0.00    -0.183 NA
ATOM      2  C   UNL d   1      57.850   0.096  30.546  0.00  0.00     0.287 C 
ATOM      3  O   UNL d   1      58.595   0.460  30.508  0.00  0.00    -0.265 OA
ENDROOT
BRANCH   2   4
ATOM      4  C   UNL d   1      57.258   0.432  31.003  0.00  0.00     0.098 C 
BRANCH   4   5
ATOM      5  S   UNL d   1      57.329   0.461  31.830  0.00  0.00    -0.076 SA
BRANCH   5   6
ATOM      6  C   UNL d   1      56.663   0.356  32.307  0.00  0.00     0.097 C 
BRANCH   6   7
ATOM      7  C   UNL d   1      56.727   0.395  33.127  0.00  0.00     0.271 C 
ATOM      8  N   UNL d   1      56.052   0.490  33.590  0.00  0.00    -0.272 N 
ATOM      9  C   UNL d   1      56.119   0.529  34.408  0.00  0.00     0.083 A 
ATOM     10  C   UNL d   1      55.306   0.548  33.233  0.00  0.00     0.083 A 
ATOM     11  C   UNL d   1      55.441   0.624  34.868  0.00  0.00     0.018 A 
ATOM     12  C   UNL d   1      55.506   0.663  35.688  0.00  0.00     0.002 C 
ATOM     13  C   UNL d   1      54.701   0.681  34.504  0.00  0.00     0.003 A 
ATOM     14  C   UNL d   1      54.633   0.642  33.681  0.00  0.00     0.019 A 
ATOM     15  O   UNL d   1      57.466   0.338  33.479  0.00  0.00    -0.266 OA
ENDBRANCH   6   7
ENDBRANCH   5   6
ENDBRANCH   4   5
ENDBRANCH   2   4
BRANCH   1  16
ATOM     16  C   UNL d   1      58.423  -0.765  29.737  0.00  0.00     0.182 A 
ATOM     17  N   UNL d   1      58.697  -1.513  29.511  0.00  0.00    -0.283 N 
ATOM     18  C   UNL d   1      59.435  -1.419  29.142  0.00  0.00     0.072 A 
ATOM     19  C   UNL d   1      58.302  -2.219  29.632  0.00  0.00     0.101 C 
ATOM     20  C   UNL d   1      59.962  -1.953  28.810  0.00  0.00     0.017 A 
ATOM     21  C   UNL d   1      59.617  -0.612  29.142  0.00  0.00     0.048 A 
ATOM     22  C   UNL d   1      60.660  -1.697  28.481  0.00  0.00    -0.011 A 
ATOM     23  C   UNL d   1      60.843  -0.890  28.480  0.00  0.00     0.027 A 
ATOM     24  C   UNL d   1      60.327  -0.340  28.809  0.00  0.00    -0.004 A 
ATOM     25  S   UNL d   1      58.993  -0.205  29.509  0.00  0.00    -0.048 SA
ENDBRANCH   1  16
TORSDOF 5
ENDMDL
MODEL 2
REMARK VINA RESULT:      -3.8      1.071      5.992
REMARK  5 active torsions:
REMARK  status: ('A' for Active; 'I' for Inactive)
REMARK    1  A    between atoms: N_3  and  C_1 
REMARK       I    between atoms: C_9  and  N_3 
REMARK       I    between atoms: N_5  and  C_8 
REMARK    2  A    between atoms: C_8  and  C_16 
REMARK    3  A    between atoms: C_17  and  C_9 
REMARK    4  A    between atoms: S_13  and  C_17 
REMARK    5  A    between atoms: C_16  and  S_13 
ROOT
ATOM      1  N   UNL d   1      57.638  -0.127  32.110  0.00  0.00    -0.183 NA
ATOM      2  C   UNL d   1      57.391   0.137  31.362  0.00  0.00     0.287 C 
ATOM      3  O   UNL d   1      56.635   0.464  31.268  0.00  0.00    -0.265 OA
ENDROOT
BRANCH   2   4
ATOM      4  C   UNL d   1      57.890   0.075  30.714  0.00  0.00     0.098 C 
BRANCH   4   5
ATOM      5  S   UNL d   1      57.954  -0.639  30.297  0.00  0.00    -0.076 SA
BRANCH   5   6
ATOM      6  C   UNL d   1      58.503  -0.714  29.685  0.00  0.00     0.097 C 
BRANCH   6   7
ATOM      7  C   UNL d   1      58.837  -1.447  29.512  0.00  0.00     0.271 C 
ATOM      8  N   UNL d   1      59.580  -1.490  29.159  0.00  0.00    -0.272 N 
ATOM      9  C   UNL d   1      59.911  -2.221  28.987  0.00  0.00     0.083 A 
ATOM     10  C   UNL d   1      59.995  -0.795  28.976  0.00  0.00     0.083 A 
ATOM     11  C   UNL d   1      60.655  -2.260  28.634  0.00  0.00     0.018 A 
ATOM     12  C   UNL d   1      60.989  -2.992  28.461  0.00  0.00     0.002 C 
ATOM     13  C   UNL d   1      61.062  -1.563  28.455  0.00  0.00     0.003 A 
ATOM     14  C   UNL d   1      60.730  -0.825  28.628  0.00  0.00     0.019 A 
ATOM     15  O   UNL d   1      58.425  -2.134  29.693  0.00  0.00    -0.266 OA
ENDBRANCH   6   7
ENDBRANCH   5   6
ENDBRANCH   4   5
ENDBRANCH   2   4
BRANCH   1  16
ATOM     16  C   UNL d   1      56.997   0.024  32.610  0.00  0.00     0.182 A 
ATOM     17  N   UNL d   1      57.037   0.353  33.369  0.00  0.00    -0.283 N 
ATOM     18  C   UNL d   1      56.265   0.406  33.670  0.00  0.00     0.072 A 
ATOM     19  C   UNL d   1      57.723   0.584  33.750  0.00  0.00     0.101 C 
ATOM     20  C   UNL d   1      55.965   0.682  34.382  0.00  0.00     0.017 A 
ATOM     21  C   UNL d   1      55.748   0.110  33.097  0.00  0.00     0.048 A 
ATOM     22  C   UNL d   1      55.165   0.666  34.529  0.00  0.00    -0.011 A 
ATOM     23  C   UNL d   1      54.647   0.370  33.955  0.00  0.00     0.027 A 
ATOM     24  C   UNL d   1      54.931   0.089  33.236  0.00  0.00    -0.004 A 
ATOM     25  S   UNL d   1      56.198  -0.127  32.439  0.00  0.00    -0.048 SA
ENDBRANCH   1  16
TORSDOF 5
ENDMDL
MODEL 3
REMARK VINA RESULT:      -2.9      0.998      6.100
REMARK  5 active torsions:
REMARK  status: ('A' for Active; 'I' for Inactive)
REMARK    1  A    between atoms: N_3  and  C_1 
REMARK       I    between atoms: C_9  and  N_3 
REMARK       I    between atoms: N_5  and  C_8 
REMARK    2  A    between atoms: C_8  and  C_16 
REMARK    3  A    between atoms: C_17  and  C_9 
REMARK    4  A    between atoms: S_13  and  C_17 
REMARK    5  A    between atoms: C_16  and  S_13 
ROOT
ATOM      1  N   UNL d   1      56.971   0.634  33.048  0.00  0.00    -0.183 NA
ATOM      2  C   UNL d   1      56.669   0.657  32.276  0.00  0.00     0.287 C 
ATOM      3  O   UNL d   1      55.849   0.680  32.153  0.00  0.00    -0.265 OA
ENDROOT
BRANCH   2   4
ATOM      4  C   UNL d   1      57.176   0.659  31.631  0.00  0.00     0.098 C 
BRANCH   4   5
ATOM      5  S   UNL d   1      57.384  -0.052  31.257  0.00  0.00    -0.076 SA
BRANCH   5   6
ATOM      6  C   UNL d   1      57.949  -0.054  30.655  0.00  0.00     0.097 C 
BRANCH   6   7
ATOM      7  C   UNL d   1      58.126  -0.750  30.250  0.00  0.00     0.271 C 
ATOM      8  N   UNL d   1      58.839  -0.821  29.843  0.00  0.00    -0.272 N 
ATOM      9  C   UNL d   1      59.013  -1.515  29.441  0.00  0.00     0.083 A 
ATOM     10  C   UNL d   1      59.381  -0.194  29.839  0.00  0.00     0.083 A 
ATOM     11  C   UNL d   1      59.727  -1.583  29.035  0.00  0.00     0.018 A 
ATOM     12  C   UNL d   1      59.903  -2.279  28.631  0.00  0.00     0.002 C 
ATOM     13  C   UNL d   1      60.262  -0.953  29.035  0.00  0.00     0.003 A 
ATOM     14  C   UNL d   1      60.088  -0.253  29.440  0.00  0.00     0.019 A 
ATOM     15  O   UNL d   1      57.588  -1.370  30.256  0.00  0.00    -0.266 OA
ENDBRANCH   6   7
ENDBRANCH   5   6
ENDBRANCH   4   5
ENDBRANCH   2   4
BRANCH   1  16
ATOM     16  C   UNL d   1      56.303   0.640  33.537  0.00  0.00     0.182 A 
ATOM     17  N   UNL d   1      56.305   0.641  34.365  0.00  0.00    -0.283 N 
ATOM     18  C   UNL d   1      55.517   0.647  34.626  0.00  0.00     0.072 A 
ATOM     19  C   UNL d   1      56.972   0.637  34.838  0.00  0.00     0.101 C 
ATOM     20  C   UNL d   1      55.180   0.651  35.375  0.00  0.00     0.017 A 
ATOM     21  C   UNL d   1      55.028   0.650  33.959  0.00  0.00     0.048 A 
ATOM     22  C   UNL d   1      54.371   0.657  35.465  0.00  0.00    -0.011 A 
ATOM     23  C   UNL d   1      53.883   0.660  34.798  0.00  0.00     0.027 A 
ATOM     24  C   UNL d   1      54.203   0.656  34.040  0.00  0.00    -0.004 A 
ATOM     25  S   UNL d   1      55.513   0.645  33.283  0.00  0.00    -0.048 SA
ENDBRANCH   1  16
TORSDOF 5
ENDMDL
MODEL 4
REMARK VINA RESULT:      -2.3      1.082      5.760
REMARK  5 active torsions:
REMARK  status: ('A' for Active; 'I' for Inactive)
REMARK    1  A    between atoms: N_3  and  C_1 
REMARK       I    between atoms: C_9  and  N_3 
REMARK       I    between atoms: N_5  and  C_8 
REMARK    2  A    between atoms: C_8  and  C_16 
REMARK    3  A    between atoms: C_17  and  C_9 
REMARK    4  A    between atoms: S_13  and  C_17 
REMARK    5  A    between atoms: C_16  and  S_13 
ROOT
ATOM      1  N   UNL d   1      56.732  -0.515  31.315  0.00  0.00    -0.183 NA
ATOM      2  C   UNL d   1      57.381  -0.079  31.036  0.00  0.00     0.287 C 
ATOM      3  O   UNL d   1      57.793   0.424  31.551  0.00  0.00    -0.265 OA
ENDROOT
BRANCH   2   4
ATOM      4  C   UNL d   1      57.618  -0.141  30.253  0.00  0.00     0.098 C 
BRANCH   4   5
ATOM      5  S   UNL d   1      58.390  -0.380  30.065  0.00  0.00    -0.076 SA
BRANCH   5   6
ATOM      6  C   UNL d   1      58.528  -0.852  29.401  0.00  0.00     0.097 C 
BRANCH   6   7
ATOM      7  C   UNL d   1      59.292  -1.095  29.213  0.00  0.00     0.271 C 
ATOM      8  N   UNL d   1      59.440  -1.883  29.022  0.00  0.00    -0.272 N 
ATOM      9  C   UNL d   1      60.203  -2.122  28.835  0.00  0.00     0.083 A 
ATOM     10  C   UNL d   1      58.821  -2.434  29.018  0.00  0.00     0.083 A 
ATOM     11  C   UNL d   1      60.347  -2.911  28.644  0.00  0.00     0.018 A 
ATOM     12  C   UNL d   1      61.111  -3.154  28.457  0.00  0.00     0.002 C 
ATOM     13  C   UNL d   1      59.724  -3.455  28.642  0.00  0.00     0.003 A 
ATOM     14  C   UNL d   1      58.955  -3.215  28.830  0.00  0.00     0.019 A 
ATOM     15  O   UNL d   1      59.905  -0.548  29.218  0.00  0.00    -0.266 OA
ENDBRANCH   6   7
ENDBRANCH   5   6
ENDBRANCH   4   5
ENDBRANCH   2   4
BRANCH   1  16
ATOM     16  C   UNL d   1      56.666  -0.309  32.113  0.00  0.00     0.182 A 
ATOM     17  N   UNL d   1      56.080  -0.570  32.637  0.00  0.00    -0.283 N 
ATOM     18  C   UNL d   1      56.224  -0.227  33.379  0.00  0.00     0.072 A 
ATOM     19  C   UNL d   1      55.466  -1.077  32.448  0.00  0.00     0.101 C 
ATOM     20  C   UNL d   1      55.835  -0.281  34.100  0.00  0.00     0.017 A 
ATOM     21  C   UNL d   1      56.900   0.245  33.314  0.00  0.00     0.048 A 
ATOM     22  C   UNL d   1      56.109   0.126  34.749  0.00  0.00    -0.011 A 
ATOM     23  C   UNL d   1      56.785   0.598  34.684  0.00  0.00     0.027 A 
ATOM     24  C   UNL d   1      57.187   0.663  33.969  0.00  0.00    -0.004 A 
ATOM     25  S   UNL d   1      57.175   0.196  32.531  0.00  0.00    -0.048 SA
ENDBRANCH   1  16
TORSDOF 5
ENDMDL
