MODEL 1
REMARK VINA RESULT:      -9.2      0.000      0.000
REMARK  6 active torsions:
REMARK  status: ('A' for Active; 'I' for Inactive)
REMARK    1  A    between atoms: C_7  and  S_1 
REMARK    2  A    between atoms: N_9  and  S_1 
REMARK    3  A    between atoms: C_20  and  N_2 
REMARK    4  A    between atoms: C_10  and  N_9 
REMARK    5  A    between atoms: O_24  and  C_13 
REMARK    6  A    between atoms: O_25  and  C_19 
ROOT
ATOM      1  N   UNL d   1      53.799  33.408  54.439  0.00  0.00    -0.273 N 
ATOM      2  C   UNL d   1      53.900  32.391  54.102  0.00  0.00     0.265 A 
ATOM      3  C   UNL d   1      53.129  33.658  54.059  0.00  0.00     0.067 A 
ATOM      4  C   UNL d   1      52.849  33.035  53.606  0.00  0.00     0.021 A 
ATOM      5  C   UNL d   1      53.248  32.309  53.601  0.00  0.00     0.058 A 
ATOM      6  C   UNL d   1      51.754  33.858  53.150  0.00  0.00     0.105 A 
ATOM      7  C   UNL d   1      52.166  33.122  53.151  0.00  0.00     0.014 A 
ATOM      8  C   UNL d   1      52.733  34.382  54.066  0.00  0.00     0.018 A 
ATOM      9  C   UNL d   1      52.034  34.482  53.603  0.00  0.00     0.014 A 
ATOM     10  O   UNL d   1      54.417  31.748  54.215  0.00  0.00    -0.267 OA
ATOM     11  C   UNL d   1      52.969  31.688  53.150  0.00  0.00     0.005 A 
ATOM     12  C   UNL d   1      51.887  32.502  52.700  0.00  0.00     0.001 A 
ATOM     13  C   UNL d   1      52.280  31.772  52.689  0.00  0.00     0.000 A 
ENDROOT
BRANCH   6  14
ATOM     14  S   UNL d   1      51.068  33.948  52.694  0.00  0.00     0.285 S 
ATOM     15  O   UNL d   1      51.495  34.392  52.139  0.00  0.00    -0.198 OA
ATOM     16  O   UNL d   1      50.637  33.502  53.249  0.00  0.00    -0.198 OA
BRANCH  14  17
ATOM     17  N   UNL d   1      50.386  34.035  52.244  0.00  0.00    -0.156 NA
BRANCH  17  18
ATOM     18  C   UNL d   1      49.807  34.561  52.479  0.00  0.00     0.116 A 
ATOM     19  C   UNL d   1      49.226  34.772  51.956  0.00  0.00     0.114 A 
ATOM     20  C   UNL d   1      48.645  35.299  52.187  0.00  0.00     0.050 A 
ATOM     21  C   UNL d   1      48.630  35.621  52.932  0.00  0.00     0.096 A 
ATOM     22  C   UNL d   1      49.243  35.389  53.462  0.00  0.00     0.026 A 
ATOM     23  C   UNL d   1      49.825  34.864  53.236  0.00  0.00     0.024 A 
BRANCH  19  24
ATOM     24  O   UNL d   1      49.223  34.452  51.183  0.00  0.00    -0.327 OA
ATOM     25  C   UNL d   1      48.564  34.571  50.685  0.00  0.00     0.181 C 
ENDBRANCH  19  24
BRANCH  21  26
ATOM     26  O   UNL d   1      48.034  36.165  53.179  0.00  0.00    -0.328 OA
ATOM     27  C   UNL d   1      47.717  36.099  53.956  0.00  0.00     0.181 C 
ENDBRANCH  21  26
ENDBRANCH  17  18
ENDBRANCH  14  17
ENDBRANCH   6  14
BRANCH   1  28
ATOM     28  C   UNL d   1      54.207  33.930  54.943  0.00  0.00     0.083 C 
ATOM     29  C   UNL d   1      54.869  33.679  55.346  0.00  0.00     0.021 C 
ENDBRANCH   1  28
TORSDOF 6
ENDMDL
MODEL 2
REMARK VINA RESULT:      -8.3      1.008      4.919
REMARK  6 active torsions:
REMARK  status: ('A' for Active; 'I' for Inactive)
REMARK    1  A    between atoms: C_7  and  S_1 
REMARK    2  A    between atoms: N_9  and  S_1 
REMARK    3  A    between atoms: C_20  and  N_2 
REMARK    4  A    between atoms: C_10  and  N_9 
REMARK    5  A    between atoms: O_24  and  C_13 
REMARK    6  A    between atoms: O_25  and  C_19 
ROOT
ATOM      1  N   UNL d   1      48.321  35.720  52.931  0.00  0.00    -0.273 N 
ATOM      2  C   UNL d   1      48.000  35.518  51.924  0.00  0.00     0.265 A 
ATOM      3  C   UNL d   1      49.018  35.311  52.984  0.00  0.00     0.067 A 
ATOM      4  C   UNL d   1      49.149  34.943  52.262  0.00  0.00     0.021 A 
ATOM      5  C   UNL d   1      48.606  35.032  51.643  0.00  0.00     0.058 A 
ATOM      6  C   UNL d   1      50.380  34.385  52.771  0.00  0.00     0.105 A 
ATOM      7  C   UNL d   1      49.822  34.481  52.145  0.00  0.00     0.014 A 
ATOM      8  C   UNL d   1      49.557  35.224  53.602  0.00  0.00     0.018 A 
ATOM      9  C   UNL d   1      50.249  34.753  53.492  0.00  0.00     0.014 A 
ATOM     10  O   UNL d   1      47.363  35.713  51.426  0.00  0.00    -0.267 OA
ATOM     11  C   UNL d   1      48.737  34.667  50.925  0.00  0.00     0.005 A 
ATOM     12  C   UNL d   1      49.953  34.116  51.427  0.00  0.00     0.001 A 
ATOM     13  C   UNL d   1      49.415  34.199  50.801  0.00  0.00     0.000 A 
ENDROOT
BRANCH   6  14
ATOM     14  S   UNL d   1      51.057  33.922  52.655  0.00  0.00     0.285 S 
ATOM     15  O   UNL d   1      50.671  33.272  52.995  0.00  0.00    -0.198 OA
ATOM     16  O   UNL d   1      51.447  34.573  52.312  0.00  0.00    -0.198 OA
BRANCH  14  17
ATOM     17  N   UNL d   1      51.730  33.466  52.537  0.00  0.00    -0.156 NA
BRANCH  17  18
ATOM     18  C   UNL d   1      52.273  33.378  53.141  0.00  0.00     0.116 A 
ATOM     19  C   UNL d   1      52.668  32.676  53.222  0.00  0.00     0.114 A 
ATOM     20  C   UNL d   1      53.212  32.583  53.825  0.00  0.00     0.050 A 
ATOM     21  C   UNL d   1      53.372  33.179  54.352  0.00  0.00     0.096 A 
ATOM     22  C   UNL d   1      52.951  33.903  54.252  0.00  0.00     0.026 A 
ATOM     23  C   UNL d   1      52.408  34.000  53.652  0.00  0.00     0.024 A 
BRANCH  19  24
ATOM     24  O   UNL d   1      52.517  32.048  52.689  0.00  0.00    -0.327 OA
ATOM     25  C   UNL d   1      52.899  31.313  52.792  0.00  0.00     0.181 C 
ENDBRANCH  19  24
BRANCH  21  26
ATOM     26  O   UNL d   1      53.933  33.093  54.978  0.00  0.00    -0.328 OA
ATOM     27  C   UNL d   1      54.608  33.596  54.994  0.00  0.00     0.181 C 
ENDBRANCH  21  26
ENDBRANCH  17  18
ENDBRANCH  14  17
ENDBRANCH   6  14
BRANCH   1  28
ATOM     28  C   UNL d   1      48.045  36.151  53.588  0.00  0.00     0.083 C 
ATOM     29  C   UNL d   1      47.432  36.681  53.503  0.00  0.00     0.021 C 
ENDBRANCH   1  28
TORSDOF 6
ENDMDL
MODEL 3
REMARK VINA RESULT:      -8.2      0.820      2.070
REMARK  6 active torsions:
REMARK  status: ('A' for Active; 'I' for Inactive)
REMARK    1  A    between atoms: C_7  and  S_1 
REMARK    2  A    between atoms: N_9  and  S_1 
REMARK    3  A    between atoms: C_20  and  N_2 
REMARK    4  A    between atoms: C_10  and  N_9 
REMARK    5  A    between atoms: O_24  and  C_13 
REMARK    6  A    between atoms: O_25  and  C_19 
ROOT
ATOM      1  N   UNL d   1      53.366  31.835  53.458  0.00  0.00    -0.273 N 
ATOM      2  C   UNL d   1      54.050  32.500  53.957  0.00  0.00     0.265 A 
ATOM      3  C   UNL d   1      52.732  32.315  53.300  0.00  0.00     0.067 A 
ATOM      4  C   UNL d   1      52.904  33.063  53.588  0.00  0.00     0.021 A 
ATOM      5  C   UNL d   1      53.628  33.211  53.962  0.00  0.00     0.058 A 
ATOM      6  C   UNL d   1      51.619  33.535  53.130  0.00  0.00     0.105 A 
ATOM      7  C   UNL d   1      52.359  33.677  53.510  0.00  0.00     0.014 A 
ATOM      8  C   UNL d   1      52.011  32.165  52.927  0.00  0.00     0.018 A 
ATOM      9  C   UNL d   1      51.447  32.787  52.842  0.00  0.00     0.014 A 
ATOM     10  O   UNL d   1      54.809  32.467  54.297  0.00  0.00    -0.267 OA
ATOM     11  C   UNL d   1      53.799  33.955  54.249  0.00  0.00     0.005 A 
ATOM     12  C   UNL d   1      52.530  34.421  53.796  0.00  0.00     0.001 A 
ATOM     13  C   UNL d   1      53.253  34.578  54.172  0.00  0.00     0.000 A 
ENDROOT
BRANCH   6  14
ATOM     14  S   UNL d   1      51.070  34.150  53.050  0.00  0.00     0.285 S 
ATOM     15  O   UNL d   1      50.609  33.819  53.654  0.00  0.00    -0.198 OA
ATOM     16  O   UNL d   1      51.530  34.485  52.443  0.00  0.00    -0.198 OA
BRANCH  14  17
ATOM     17  N   UNL d   1      50.528  34.763  52.967  0.00  0.00    -0.156 NA
BRANCH  17  18
ATOM     18  C   UNL d   1      49.907  34.688  52.442  0.00  0.00     0.116 A 
ATOM     19  C   UNL d   1      49.201  35.048  52.609  0.00  0.00     0.114 A 
ATOM     20  C   UNL d   1      48.575  34.977  52.087  0.00  0.00     0.050 A 
ATOM     21  C   UNL d   1      48.640  34.552  51.398  0.00  0.00     0.096 A 
ATOM     22  C   UNL d   1      49.383  34.185  51.242  0.00  0.00     0.026 A 
ATOM     23  C   UNL d   1      50.009  34.253  51.760  0.00  0.00     0.024 A 
BRANCH  19  24
ATOM     24  O   UNL d   1      49.113  35.491  53.314  0.00  0.00    -0.327 OA
ATOM     25  C   UNL d   1      48.408  35.914  53.456  0.00  0.00     0.181 C 
ENDBRANCH  19  24
BRANCH  21  26
ATOM     26  O   UNL d   1      48.000  34.473  50.853  0.00  0.00    -0.328 OA
ATOM     27  C   UNL d   1      47.531  35.148  50.672  0.00  0.00     0.181 C 
ENDBRANCH  21  26
ENDBRANCH  17  18
ENDBRANCH  14  17
ENDBRANCH   6  14
BRANCH   1  28
ATOM     28  C   UNL d   1      53.346  31.036  53.225  0.00  0.00     0.083 C 
ATOM     29  C   UNL d   1      53.706  30.467  53.684  0.00  0.00     0.021 C 
ENDBRANCH   1  28
TORSDOF 6
ENDMDL
