MODEL 1
REMARK VINA RESULT:       4.8      0.000      0.000
REMARK  5 active torsions:
REMARK  status: ('A' for Active; 'I' for Inactive)
REMARK    1  A    between atoms: N_9  and  S_1 
REMARK    2  A    between atoms: C_11  and  S_1 
REMARK    3  A    between atoms: C_5  and  C_10 
REMARK    4  A    between atoms: C_12  and  N_9 
REMARK    5  A    between atoms: C_10  and  C_12 
ROOT
ATOM      1  C   UNL d   1      14.308  11.781  -1.838  0.00  0.00     0.041 C 
ENDROOT
BRANCH   1   2
ATOM      2  C   UNL d   1      14.431  12.299  -1.207  0.00  0.00     0.090 A 
ATOM      3  N   UNL d   1      14.961  12.935  -1.207  0.00  0.00    -0.238 NA
ATOM      4  C   UNL d   1      14.905  13.302  -0.468  0.00  0.00     0.111 A 
ATOM      5  C   UNL d   1      15.337  13.968  -0.217  0.00  0.00     0.028 C 
ATOM      6  S   UNL d   1      14.347  12.899  -0.015  0.00  0.00    -0.066 SA
ATOM      7  C   UNL d   1      14.052  12.274  -0.476  0.00  0.00     0.056 A 
ENDBRANCH   1   2
BRANCH   1   8
ATOM      8  C   UNL d   1      13.681  11.891  -2.353  0.00  0.00     0.114 C 
BRANCH   8   9
ATOM      9  N   UNL d   1      13.792  12.335  -3.056  0.00  0.00    -0.157 NA
BRANCH   9  10
ATOM     10  S   UNL d   1      13.352  12.146  -3.728  0.00  0.00     0.286 S 
ATOM     11  O   UNL d   1      13.932  12.505  -4.202  0.00  0.00    -0.198 OA
ATOM     12  O   UNL d   1      12.772  11.786  -3.257  0.00  0.00    -0.198 OA
BRANCH  10  13
ATOM     13  C   UNL d   1      12.920  11.960  -4.402  0.00  0.00     0.117 C 
ATOM     14  C   UNL d   1      13.240  12.101  -5.141  0.00  0.00     0.014 C 
ENDBRANCH  10  13
ENDBRANCH   9  10
ENDBRANCH   8   9
ENDBRANCH   1   8
TORSDOF 5
ENDMDL
