MODEL 1
REMARK VINA RESULT:       7.4      0.000      0.000
REMARK  0 active torsions:
REMARK  status: ('A' for Active; 'I' for Inactive)
ROOT
ATOM      1  N   UNL d   1     -51.443  24.033  33.310  0.00  0.00    -0.248 N 
ATOM      2  C   UNL d   1     -52.183  24.374  33.309  0.00  0.00     0.208 A 
ATOM      3  C   UNL d   1     -50.745  24.521  33.311  0.00  0.00     0.268 A 
ATOM      4  C   UNL d   1     -50.822  25.314  33.310  0.00  0.00     0.074 A 
ATOM      5  N   UNL d   1     -52.239  25.210  33.308  0.00  0.00    -0.218 NA
ATOM      6  C   UNL d   1     -51.566  25.657  33.309  0.00  0.00     0.088 A 
ATOM      7  S   UNL d   1     -52.880  23.911  33.308  0.00  0.00    -0.038 SA
ATOM      8  O   UNL d   1     -49.992  24.174  33.312  0.00  0.00    -0.267 OA
ATOM      9  C   UNL d   1     -51.344  23.188  33.311  0.00  0.00     0.104 C 
ATOM     10  C   UNL d   1     -50.141  25.799  33.311  0.00  0.00     0.006 A 
ATOM     11  C   UNL d   1     -51.643  26.503  33.308  0.00  0.00     0.019 A 
ATOM     12  C   UNL d   1     -50.213  26.622  33.310  0.00  0.00     0.000 A 
ATOM     13  C   UNL d   1     -50.962  26.968  33.309  0.00  0.00     0.002 A 
ENDROOT
TORSDOF 0
ENDMDL
MODEL 2
REMARK VINA RESULT:       9.2      1.249      1.956
REMARK  0 active torsions:
REMARK  status: ('A' for Active; 'I' for Inactive)
ROOT
ATOM      1  N   UNL d   1     -52.968  24.574  33.309  0.00  0.00    -0.248 N 
ATOM      2  C   UNL d   1     -52.795  23.777  33.309  0.00  0.00     0.208 A 
ATOM      3  C   UNL d   1     -52.341  25.149  33.310  0.00  0.00     0.268 A 
ATOM      4  C   UNL d   1     -51.584  24.903  33.310  0.00  0.00     0.074 A 
ATOM      5  N   UNL d   1     -51.992  23.541  33.309  0.00  0.00    -0.218 NA
ATOM      6  C   UNL d   1     -51.410  24.102  33.310  0.00  0.00     0.088 A 
ATOM      7  S   UNL d   1     -53.398  23.197  33.308  0.00  0.00    -0.038 SA
ATOM      8  O   UNL d   1     -52.517  25.960  33.310  0.00  0.00    -0.267 OA
ATOM      9  C   UNL d   1     -53.772  24.853  33.308  0.00  0.00     0.104 C 
ATOM     10  C   UNL d   1     -50.962  25.463  33.311  0.00  0.00     0.006 A 
ATOM     11  C   UNL d   1     -50.601  23.843  33.311  0.00  0.00     0.019 A 
ATOM     12  C   UNL d   1     -50.175  25.214  33.312  0.00  0.00     0.000 A 
ATOM     13  C   UNL d   1     -50.000  24.408  33.311  0.00  0.00     0.002 A 
ENDROOT
TORSDOF 0
ENDMDL
