MODEL 1
REMARK VINA RESULT:      64.2      0.000      0.000
REMARK  4 active torsions:
REMARK  status: ('A' for Active; 'I' for Inactive)
REMARK    1  A    between atoms: C_5  and  N_1 
REMARK    2  A    between atoms: C_7  and  C_3 
REMARK    3  A    between atoms: C_8  and  C_4 
REMARK    4  A    between atoms: N_10  and  C_5 
ROOT
ATOM      1  N   UNL d   1     -54.838-100.672 -40.221  0.00  0.00    -0.203 N 
ATOM      2  N   UNL d   1     -54.805-100.644 -41.048  0.00  0.00    -0.163 NA
ATOM      3  C   UNL d   1     -54.818-101.392 -41.349  0.00  0.00     0.103 A 
ATOM      4  C   UNL d   1     -54.875-101.473 -39.990  0.00  0.00     0.087 A 
ATOM      5  C   UNL d   1     -54.863-101.925 -40.683  0.00  0.00     0.040 A 
ENDROOT
BRANCH   3   6
ATOM      6  C   UNL d   1     -54.793-101.583 -42.161  0.00  0.00     0.019 A 
ATOM      7  C   UNL d   1     -54.745-102.367 -42.409  0.00  0.00     0.002 A 
ATOM      8  C   UNL d   1     -54.721-102.538 -43.226  0.00  0.00     0.000 A 
ATOM      9  C   UNL d   1     -54.744-101.932 -43.773  0.00  0.00     0.000 A 
ATOM     10  C   UNL d   1     -54.791-101.152 -43.507  0.00  0.00     0.000 A 
ATOM     11  C   UNL d   1     -54.712-102.186 -44.732  0.00  0.00     0.000 C 
ATOM     12  C   UNL d   1     -54.816-100.979 -42.716  0.00  0.00     0.002 A 
ENDBRANCH   3   6
BRANCH   1  13
ATOM     13  C   UNL d   1     -54.837-100.012 -39.697  0.00  0.00     0.222 C 
ATOM     14  S   UNL d   1     -54.714 -99.237 -40.015  0.00  0.00    -0.037 SA
BRANCH  13  15
ATOM     15  N   UNL d   1     -54.954-100.108 -38.865  0.00  0.00    -0.214 NA
ATOM     16  C   UNL d   1     -54.751 -99.492 -38.343  0.00  0.00     0.122 C 
ENDBRANCH  13  15
ENDBRANCH   1  13
BRANCH   4  17
ATOM     17  C   UNL d   1     -54.915-101.790 -39.227  0.00  0.00     0.018 A 
ATOM     18  C   UNL d   1     -55.159-102.564 -39.103  0.00  0.00     0.002 A 
ATOM     19  C   UNL d   1     -55.199-102.878 -38.343  0.00  0.00     0.007 A 
ATOM     20  C   UNL d   1     -54.992-102.410 -37.700  0.00  0.00     0.035 A 
ATOM     21  C   UNL d   1     -54.752-101.651 -37.807  0.00  0.00     0.007 A 
ATOM     22 BR   UNL d   1     -55.040-102.749 -36.934  0.00  0.00    -0.049 Br
ATOM     23  C   UNL d   1     -54.711-101.335 -38.570  0.00  0.00     0.002 A 
ENDBRANCH   4  17
TORSDOF 4
ENDMDL
