MODEL 1
REMARK VINA RESULT:      -8.1      0.000      0.000
REMARK  3 active torsions:
REMARK  status: ('A' for Active; 'I' for Inactive)
REMARK    1  A    between atoms: C_4  and  C_1 
REMARK       I    between atoms: N_8  and  C_4 
REMARK    2  A    between atoms: C_15  and  C_11 
REMARK    3  A    between atoms: C_12  and  C_15 
ROOT
ATOM      1  C   UNL d   1     -46.886  13.013  22.766  0.00  0.00     0.120 A 
ATOM      2  C   UNL d   1     -46.990  13.740  23.151  0.00  0.00     0.305 A 
ATOM      3  O   UNL d   1     -47.692  14.181  23.028  0.00  0.00    -0.273 OA
ATOM      4  C   UNL d   1     -47.479  12.716  22.254  0.00  0.00     0.012 A 
ATOM      5  C   UNL d   1     -48.275  13.894  22.527  0.00  0.00     0.103 A 
ATOM      6  C   UNL d   1     -48.170  13.159  22.138  0.00  0.00     0.023 A 
ATOM      7  O   UNL d   1     -46.406  14.031  23.655  0.00  0.00    -0.259 OA
ATOM      8  C   UNL d   1     -48.975  14.324  22.398  0.00  0.00     0.023 A 
ATOM      9  C   UNL d   1     -48.761  12.870  21.631  0.00  0.00     0.002 A 
ATOM     10  C   UNL d   1     -49.452  13.310  21.513  0.00  0.00     0.000 A 
ATOM     11  C   UNL d   1     -49.559  14.033  21.894  0.00  0.00     0.002 A 
ENDROOT
BRANCH   1  12
ATOM     12  C   UNL d   1     -46.197  12.580  22.888  0.00  0.00     0.270 C 
ATOM     13  N   UNL d   1     -46.218  11.870  23.303  0.00  0.00    -0.269 N 
ATOM     14  C   UNL d   1     -45.528  11.436  23.425  0.00  0.00     0.102 C 
ATOM     15  C   UNL d   1     -46.937  11.594  23.599  0.00  0.00     0.102 C 
ATOM     16  O   UNL d   1     -45.478  12.855  22.593  0.00  0.00    -0.266 OA
ENDBRANCH   1  12
BRANCH   8  17
ATOM     17  C   UNL d   1     -49.082  15.048  22.779  0.00  0.00     0.002 C 
BRANCH  17  18
ATOM     18  C   UNL d   1     -49.839  15.296  22.989  0.00  0.00     0.000 C 
ATOM     19  C   UNL d   1     -49.937  15.922  23.516  0.00  0.00     0.000 C 
ENDBRANCH  17  18
ENDBRANCH   8  17
TORSDOF 3
ENDMDL
MODEL 2
REMARK VINA RESULT:      -8.0      1.856      3.926
REMARK  3 active torsions:
REMARK  status: ('A' for Active; 'I' for Inactive)
REMARK    1  A    between atoms: C_4  and  C_1 
REMARK       I    between atoms: N_8  and  C_4 
REMARK    2  A    between atoms: C_15  and  C_11 
REMARK    3  A    between atoms: C_12  and  C_15 
ROOT
ATOM      1  C   UNL d   1     -49.170  12.776  22.970  0.00  0.00     0.120 A 
ATOM      2  C   UNL d   1     -48.936  12.010  23.184  0.00  0.00     0.305 A 
ATOM      3  O   UNL d   1     -48.123  11.838  23.299  0.00  0.00    -0.273 OA
ATOM      4  C   UNL d   1     -48.599  13.381  22.868  0.00  0.00     0.012 A 
ATOM      5  C   UNL d   1     -47.561  12.428  23.200  0.00  0.00     0.103 A 
ATOM      6  C   UNL d   1     -47.798  13.202  22.984  0.00  0.00     0.023 A 
ATOM      7  O   UNL d   1     -49.498  11.415  23.284  0.00  0.00    -0.259 OA
ATOM      8  C   UNL d   1     -46.752  12.268  23.312  0.00  0.00     0.023 A 
ATOM      9  C   UNL d   1     -47.228  13.798  22.884  0.00  0.00     0.002 A 
ATOM     10  C   UNL d   1     -46.427  13.623  22.999  0.00  0.00     0.000 A 
ATOM     11  C   UNL d   1     -46.190  12.863  23.212  0.00  0.00     0.002 A 
ENDROOT
BRANCH   1  12
ATOM     12  C   UNL d   1     -49.968  12.944  22.857  0.00  0.00     0.270 C 
ATOM     13  N   UNL d   1     -50.266  13.060  22.099  0.00  0.00    -0.269 N 
ATOM     14  C   UNL d   1     -51.064  13.229  21.985  0.00  0.00     0.102 C 
ATOM     15  C   UNL d   1     -49.758  13.008  21.451  0.00  0.00     0.102 C 
ATOM     16  O   UNL d   1     -50.475  12.996  23.505  0.00  0.00    -0.266 OA
ENDBRANCH   1  12
BRANCH   8  17
ATOM     17  C   UNL d   1     -46.515  11.507  23.525  0.00  0.00     0.002 C 
BRANCH  17  18
ATOM     18  C   UNL d   1     -45.716  11.308  23.526  0.00  0.00     0.000 C 
ATOM     19  C   UNL d   1     -45.482  10.537  23.698  0.00  0.00     0.000 C 
ENDBRANCH  17  18
ENDBRANCH   8  17
TORSDOF 3
ENDMDL
MODEL 3
REMARK VINA RESULT:      -8.0      1.582      3.672
REMARK  3 active torsions:
REMARK  status: ('A' for Active; 'I' for Inactive)
REMARK    1  A    between atoms: C_4  and  C_1 
REMARK       I    between atoms: N_8  and  C_4 
REMARK    2  A    between atoms: C_15  and  C_11 
REMARK    3  A    between atoms: C_12  and  C_15 
ROOT
ATOM      1  C   UNL d   1     -49.023  14.230  22.916  0.00  0.00     0.120 A 
ATOM      2  C   UNL d   1     -48.360  14.589  22.571  0.00  0.00     0.305 A 
ATOM      3  O   UNL d   1     -47.624  14.189  22.566  0.00  0.00    -0.273 OA
ATOM      4  C   UNL d   1     -48.962  13.468  23.261  0.00  0.00     0.012 A 
ATOM      5  C   UNL d   1     -47.559  13.443  22.903  0.00  0.00     0.103 A 
ATOM      6  C   UNL d   1     -48.230  13.080  23.251  0.00  0.00     0.023 A 
ATOM      7  O   UNL d   1     -48.421  15.338  22.232  0.00  0.00    -0.259 OA
ATOM      8  C   UNL d   1     -46.833  13.037  22.904  0.00  0.00     0.023 A 
ATOM      9  C   UNL d   1     -48.164  12.325  23.592  0.00  0.00     0.002 A 
ATOM     10  C   UNL d   1     -47.434  11.935  23.584  0.00  0.00     0.000 A 
ATOM     11  C   UNL d   1     -46.772  12.288  23.242  0.00  0.00     0.002 A 
ENDROOT
BRANCH   1  12
ATOM     12  C   UNL d   1     -49.746  14.623  22.920  0.00  0.00     0.270 C 
ATOM     13  N   UNL d   1     -50.341  14.409  22.392  0.00  0.00    -0.269 N 
ATOM     14  C   UNL d   1     -51.064  14.803  22.395  0.00  0.00     0.102 C 
ATOM     15  C   UNL d   1     -50.206  13.796  21.856  0.00  0.00     0.102 C 
ATOM     16  O   UNL d   1     -49.881  15.236  23.454  0.00  0.00    -0.266 OA
ENDBRANCH   1  12
BRANCH   8  17
ATOM     17  C   UNL d   1     -46.171  13.391  22.562  0.00  0.00     0.002 C 
BRANCH  17  18
ATOM     18  C   UNL d   1     -45.505  12.938  22.386  0.00  0.00     0.000 C 
ATOM     19  C   UNL d   1     -44.876  13.273  21.973  0.00  0.00     0.000 C 
ENDBRANCH  17  18
ENDBRANCH   8  17
TORSDOF 3
ENDMDL
MODEL 4
REMARK VINA RESULT:      -7.4      1.143      1.336
REMARK  3 active torsions:
REMARK  status: ('A' for Active; 'I' for Inactive)
REMARK    1  A    between atoms: C_4  and  C_1 
REMARK       I    between atoms: N_8  and  C_4 
REMARK    2  A    between atoms: C_15  and  C_11 
REMARK    3  A    between atoms: C_12  and  C_15 
ROOT
ATOM      1  C   UNL d   1     -47.078  13.361  22.936  0.00  0.00     0.120 A 
ATOM      2  C   UNL d   1     -47.421  14.115  22.947  0.00  0.00     0.305 A 
ATOM      3  O   UNL d   1     -48.256  14.194  22.963  0.00  0.00    -0.273 OA
ATOM      4  C   UNL d   1     -47.560  12.675  22.941  0.00  0.00     0.012 A 
ATOM      5  C   UNL d   1     -48.731  13.525  22.968  0.00  0.00     0.103 A 
ATOM      6  C   UNL d   1     -48.384  12.763  22.957  0.00  0.00     0.023 A 
ATOM      7  O   UNL d   1     -46.947  14.789  22.942  0.00  0.00    -0.259 OA
ATOM      8  C   UNL d   1     -49.560  13.592  22.983  0.00  0.00     0.023 A 
ATOM      9  C   UNL d   1     -48.866  12.087  22.962  0.00  0.00     0.002 A 
ATOM     10  C   UNL d   1     -49.690  12.170  22.977  0.00  0.00     0.000 A 
ATOM     11  C   UNL d   1     -50.035  12.918  22.988  0.00  0.00     0.002 A 
ENDROOT
BRANCH   1  12
ATOM     12  C   UNL d   1     -46.258  13.284  22.921  0.00  0.00     0.270 C 
ATOM     13  N   UNL d   1     -45.873  13.071  22.225  0.00  0.00    -0.269 N 
ATOM     14  C   UNL d   1     -45.052  12.994  22.209  0.00  0.00     0.102 C 
ATOM     15  C   UNL d   1     -46.314  12.934  21.542  0.00  0.00     0.102 C 
ATOM     16  O   UNL d   1     -45.817  13.420  23.603  0.00  0.00    -0.266 OA
ENDBRANCH   1  12
BRANCH   8  17
ATOM     17  C   UNL d   1     -49.906  14.341  22.994  0.00  0.00     0.002 C 
BRANCH  17  18
ATOM     18  C   UNL d   1     -50.722  14.418  23.073  0.00  0.00     0.000 C 
ATOM     19  C   UNL d   1     -51.064  15.167  23.112  0.00  0.00     0.000 C 
ENDBRANCH  17  18
ENDBRANCH   8  17
TORSDOF 3
ENDMDL
MODEL 5
REMARK VINA RESULT:      -6.6      8.184      9.074
REMARK  3 active torsions:
REMARK  status: ('A' for Active; 'I' for Inactive)
REMARK    1  A    between atoms: C_4  and  C_1 
REMARK       I    between atoms: N_8  and  C_4 
REMARK    2  A    between atoms: C_15  and  C_11 
REMARK    3  A    between atoms: C_12  and  C_15 
ROOT
ATOM      1  C   UNL d   1     -40.432  14.838  18.494  0.00  0.00     0.120 A 
ATOM      2  C   UNL d   1     -39.987  14.194  18.768  0.00  0.00     0.305 A 
ATOM      3  O   UNL d   1     -39.812  14.125  19.585  0.00  0.00    -0.273 OA
ATOM      4  C   UNL d   1     -40.707  15.422  19.030  0.00  0.00     0.012 A 
ATOM      5  C   UNL d   1     -40.079  14.694  20.112  0.00  0.00     0.103 A 
ATOM      6  C   UNL d   1     -40.528  15.345  19.836  0.00  0.00     0.023 A 
ATOM      7  O   UNL d   1     -39.717  13.620  18.241  0.00  0.00    -0.259 OA
ATOM      8  C   UNL d   1     -39.910  14.634  20.925  0.00  0.00     0.023 A 
ATOM      9  C   UNL d   1     -40.798  15.920  20.370  0.00  0.00     0.002 A 
ATOM     10  C   UNL d   1     -40.621  15.847  21.176  0.00  0.00     0.000 A 
ATOM     11  C   UNL d   1     -40.180  15.208  21.451  0.00  0.00     0.002 A 
ENDROOT
BRANCH   1  12
ATOM     12  C   UNL d   1     -40.604  14.906  17.692  0.00  0.00     0.270 C 
ATOM     13  N   UNL d   1     -40.198  15.446  17.223  0.00  0.00    -0.269 N 
ATOM     14  C   UNL d   1     -40.370  15.514  16.420  0.00  0.00     0.102 C 
ATOM     15  C   UNL d   1     -39.615  15.921  17.562  0.00  0.00     0.102 C 
ATOM     16  O   UNL d   1     -41.186  14.431  17.353  0.00  0.00    -0.266 OA
ENDBRANCH   1  12
BRANCH   8  17
ATOM     17  C   UNL d   1     -39.468  13.995  21.200  0.00  0.00     0.002 C 
BRANCH  17  18
ATOM     18  C   UNL d   1     -39.192  13.988  21.977  0.00  0.00     0.000 C 
ATOM     19  C   UNL d   1     -38.683  13.391  22.228  0.00  0.00     0.000 C 
ENDBRANCH  17  18
ENDBRANCH   8  17
TORSDOF 3
ENDMDL
MODEL 6
REMARK VINA RESULT:      -6.1      8.077      8.822
REMARK  3 active torsions:
REMARK  status: ('A' for Active; 'I' for Inactive)
REMARK    1  A    between atoms: C_4  and  C_1 
REMARK       I    between atoms: N_8  and  C_4 
REMARK    2  A    between atoms: C_15  and  C_11 
REMARK    3  A    between atoms: C_12  and  C_15 
ROOT
ATOM      1  C   UNL d   1     -40.133  14.884  20.084  0.00  0.00     0.120 A 
ATOM      2  C   UNL d   1     -40.693  15.426  19.802  0.00  0.00     0.305 A 
ATOM      3  O   UNL d   1     -40.836  15.489  18.979  0.00  0.00    -0.273 OA
ATOM      4  C   UNL d   1     -39.707  14.397  19.550  0.00  0.00     0.012 A 
ATOM      5  C   UNL d   1     -40.422  15.014  18.453  0.00  0.00     0.103 A 
ATOM      6  C   UNL d   1     -39.856  14.466  18.738  0.00  0.00     0.023 A 
ATOM      7  O   UNL d   1     -41.111  15.904  20.328  0.00  0.00    -0.259 OA
ATOM      8  C   UNL d   1     -40.556  15.068  17.633  0.00  0.00     0.023 A 
ATOM      9  C   UNL d   1     -39.437  13.986  18.205  0.00  0.00     0.002 A 
ATOM     10  C   UNL d   1     -39.582  14.052  17.392  0.00  0.00     0.000 A 
ATOM     11  C   UNL d   1     -40.139  14.590  17.108  0.00  0.00     0.002 A 
ENDROOT
BRANCH   1  12
ATOM     12  C   UNL d   1     -39.993  14.823  20.893  0.00  0.00     0.270 C 
ATOM     13  N   UNL d   1     -39.302  15.129  21.221  0.00  0.00    -0.269 N 
ATOM     14  C   UNL d   1     -39.161  15.068  22.030  0.00  0.00     0.102 C 
ATOM     15  C   UNL d   1     -38.750  15.498  20.732  0.00  0.00     0.102 C 
ATOM     16  O   UNL d   1     -40.544  14.454  21.381  0.00  0.00    -0.266 OA
ENDBRANCH   1  12
BRANCH   8  17
ATOM     17  C   UNL d   1     -41.113  15.606  17.349  0.00  0.00     0.002 C 
BRANCH  17  18
ATOM     18  C   UNL d   1     -41.294  15.628  16.546  0.00  0.00     0.000 C 
ATOM     19  C   UNL d   1     -42.021  15.922  16.294  0.00  0.00     0.000 C 
ENDBRANCH  17  18
ENDBRANCH   8  17
TORSDOF 3
ENDMDL
MODEL 7
REMARK VINA RESULT:      -5.9      8.321      9.616
REMARK  3 active torsions:
REMARK  status: ('A' for Active; 'I' for Inactive)
REMARK    1  A    between atoms: C_4  and  C_1 
REMARK       I    between atoms: N_8  and  C_4 
REMARK    2  A    between atoms: C_15  and  C_11 
REMARK    3  A    between atoms: C_12  and  C_15 
ROOT
ATOM      1  C   UNL d   1     -39.179  14.121  18.015  0.00  0.00     0.120 A 
ATOM      2  C   UNL d   1     -39.987  14.197  18.185  0.00  0.00     0.305 A 
ATOM      3  O   UNL d   1     -40.233  14.644  18.851  0.00  0.00    -0.273 OA
ATOM      4  C   UNL d   1     -38.606  14.488  18.504  0.00  0.00     0.012 A 
ATOM      5  C   UNL d   1     -39.675  15.005  19.332  0.00  0.00     0.103 A 
ATOM      6  C   UNL d   1     -38.859  14.928  19.160  0.00  0.00     0.023 A 
ATOM      7  O   UNL d   1     -40.550  13.836  17.704  0.00  0.00    -0.259 OA
ATOM      8  C   UNL d   1     -39.909  15.451  19.995  0.00  0.00     0.023 A 
ATOM      9  C   UNL d   1     -38.295  15.294  19.648  0.00  0.00     0.002 A 
ATOM     10  C   UNL d   1     -38.544  15.734  20.304  0.00  0.00     0.000 A 
ATOM     11  C   UNL d   1     -39.346  15.812  20.476  0.00  0.00     0.002 A 
ENDROOT
BRANCH   1  12
ATOM     12  C   UNL d   1     -38.938  13.683  17.362  0.00  0.00     0.270 C 
ATOM     13  N   UNL d   1     -38.638  14.060  16.694  0.00  0.00    -0.269 N 
ATOM     14  C   UNL d   1     -38.396  13.621  16.040  0.00  0.00     0.102 C 
ATOM     15  C   UNL d   1     -38.580  14.882  16.684  0.00  0.00     0.102 C 
ATOM     16  O   UNL d   1     -38.996  12.861  17.372  0.00  0.00    -0.266 OA
ENDBRANCH   1  12
BRANCH   8  17
ATOM     17  C   UNL d   1     -40.712  15.529  20.168  0.00  0.00     0.002 C 
BRANCH  17  18
ATOM     18  C   UNL d   1     -40.950  15.905  20.861  0.00  0.00     0.000 C 
ATOM     19  C   UNL d   1     -41.748  15.922  21.068  0.00  0.00     0.000 C 
ENDBRANCH  17  18
ENDBRANCH   8  17
TORSDOF 3
ENDMDL
MODEL 8
REMARK VINA RESULT:      -5.8      8.325      9.573
REMARK  3 active torsions:
REMARK  status: ('A' for Active; 'I' for Inactive)
REMARK    1  A    between atoms: C_4  and  C_1 
REMARK       I    between atoms: N_8  and  C_4 
REMARK    2  A    between atoms: C_15  and  C_11 
REMARK    3  A    between atoms: C_12  and  C_15 
ROOT
ATOM      1  C   UNL d   1     -39.857  14.584  19.785  0.00  0.00     0.120 A 
ATOM      2  C   UNL d   1     -39.227  14.135  19.488  0.00  0.00     0.305 A 
ATOM      3  O   UNL d   1     -39.117  14.068  18.659  0.00  0.00    -0.273 OA
ATOM      4  C   UNL d   1     -40.387  14.971  19.263  0.00  0.00     0.012 A 
ATOM      5  C   UNL d   1     -39.632  14.446  18.144  0.00  0.00     0.103 A 
ATOM      6  C   UNL d   1     -40.269  14.899  18.445  0.00  0.00     0.023 A 
ATOM      7  O   UNL d   1     -38.707  13.755  20.002  0.00  0.00    -0.259 OA
ATOM      8  C   UNL d   1     -39.532  14.386  17.321  0.00  0.00     0.023 A 
ATOM      9  C   UNL d   1     -40.791  15.281  17.923  0.00  0.00     0.002 A 
ATOM     10  C   UNL d   1     -40.677  15.211  17.106  0.00  0.00     0.000 A 
ATOM     11  C   UNL d   1     -40.051  14.766  16.807  0.00  0.00     0.002 A 
ENDROOT
BRANCH   1  12
ATOM     12  C   UNL d   1     -39.965  14.649  20.599  0.00  0.00     0.270 C 
ATOM     13  N   UNL d   1     -39.702  15.317  21.002  0.00  0.00    -0.269 N 
ATOM     14  C   UNL d   1     -39.810  15.383  21.816  0.00  0.00     0.102 C 
ATOM     15  C   UNL d   1     -39.327  15.922  20.584  0.00  0.00     0.102 C 
ATOM     16  O   UNL d   1     -40.339  14.045  21.016  0.00  0.00    -0.266 OA
ENDBRANCH   1  12
BRANCH   8  17
ATOM     17  C   UNL d   1     -38.905  13.940  17.021  0.00  0.00     0.002 C 
BRANCH  17  18
ATOM     18  C   UNL d   1     -38.701  13.999  16.225  0.00  0.00     0.000 C 
ATOM     19  C   UNL d   1     -38.032  13.611  15.941  0.00  0.00     0.000 C 
ENDBRANCH  17  18
ENDBRANCH   8  17
TORSDOF 3
ENDMDL
