MODEL 1
REMARK VINA RESULT:      -3.3      0.000      0.000
REMARK  6 active torsions:
REMARK  status: ('A' for Active; 'I' for Inactive)
REMARK    1  A    between atoms: C_6  and  C_1 
REMARK    2  A    between atoms: C_10  and  N_3 
REMARK    3  A    between atoms: O_7  and  C_6 
REMARK    4  A    between atoms: C_8  and  O_7 
REMARK    5  A    between atoms: O_11  and  C_9 
REMARK    6  A    between atoms: C_17  and  C_10 
ROOT
ATOM      1  C   UNL d   1      58.416  -0.768  30.207  0.00  0.00     0.173 A 
ATOM      2  N   UNL d   1      58.674   0.026  30.163  0.00  0.00    -0.225 NA
ATOM      3  N   UNL d   1      58.946  -1.201  29.742  0.00  0.00    -0.287 N 
ATOM      4  C   UNL d   1      59.508  -0.705  29.422  0.00  0.00     0.083 A 
ATOM      5  C   UNL d   1      59.336   0.071  29.688  0.00  0.00     0.099 A 
ATOM      6  C   UNL d   1      60.164  -0.834  28.920  0.00  0.00     0.019 A 
ATOM      7  C   UNL d   1      59.828   0.682  29.440  0.00  0.00     0.021 A 
ATOM      8  C   UNL d   1      60.623  -0.210  28.698  0.00  0.00     0.002 A 
ATOM      9  C   UNL d   1      60.451   0.566  28.964  0.00  0.00     0.002 A 
ENDROOT
BRANCH   1  10
ATOM     10  C   UNL d   1      57.758  -0.833  30.675  0.00  0.00     0.160 C 
BRANCH  10  11
ATOM     11  O   UNL d   1      57.697  -0.395  31.389  0.00  0.00    -0.300 OA
BRANCH  11  12
ATOM     12  C   UNL d   1      57.086  -0.550  31.943  0.00  0.00     0.122 A 
ATOM     13  C   UNL d   1      57.055  -0.124  32.650  0.00  0.00     0.117 A 
ATOM     14  C   UNL d   1      56.457  -0.263  33.212  0.00  0.00     0.026 A 
ATOM     15  C   UNL d   1      55.899  -0.839  33.038  0.00  0.00     0.002 A 
ATOM     16  C   UNL d   1      55.929  -1.268  32.329  0.00  0.00     0.002 A 
ATOM     17  C   UNL d   1      56.524  -1.129  31.770  0.00  0.00     0.027 A 
BRANCH  13  18
ATOM     18  O   UNL d   1      57.635   0.459  32.805  0.00  0.00    -0.326 OA
ATOM     19  C   UNL d   1      57.823   0.682  33.599  0.00  0.00     0.181 C 
ENDBRANCH  13  18
ENDBRANCH  11  12
ENDBRANCH  10  11
ENDBRANCH   1  10
BRANCH   3  20
ATOM     20  C   UNL d   1      58.781  -1.982  29.720  0.00  0.00     0.082 C 
BRANCH  20  21
ATOM     21  C   UNL d   1      58.737  -2.406  29.013  0.00  0.00     0.019 C 
ATOM     22  C   UNL d   1      58.678  -3.226  28.979  0.00  0.00     0.002 C 
ENDBRANCH  20  21
ENDBRANCH   3  20
TORSDOF 6
ENDMDL
MODEL 2
REMARK VINA RESULT:      -2.6      1.227      4.612
REMARK  6 active torsions:
REMARK  status: ('A' for Active; 'I' for Inactive)
REMARK    1  A    between atoms: C_6  and  C_1 
REMARK    2  A    between atoms: C_10  and  N_3 
REMARK    3  A    between atoms: O_7  and  C_6 
REMARK    4  A    between atoms: C_8  and  O_7 
REMARK    5  A    between atoms: O_11  and  C_9 
REMARK    6  A    between atoms: C_17  and  C_10 
ROOT
ATOM      1  C   UNL d   1      57.319  -0.042  31.643  0.00  0.00     0.173 A 
ATOM      2  N   UNL d   1      56.707  -0.597  31.518  0.00  0.00    -0.225 NA
ATOM      3  N   UNL d   1      57.286   0.150  32.446  0.00  0.00    -0.287 N 
ATOM      4  C   UNL d   1      56.684  -0.262  32.809  0.00  0.00     0.083 A 
ATOM      5  C   UNL d   1      56.318  -0.735  32.222  0.00  0.00     0.099 A 
ATOM      6  C   UNL d   1      56.401  -0.287  33.595  0.00  0.00     0.019 A 
ATOM      7  C   UNL d   1      55.685  -1.210  32.449  0.00  0.00     0.021 A 
ATOM      8  C   UNL d   1      55.779  -0.765  33.779  0.00  0.00     0.002 A 
ATOM      9  C   UNL d   1      55.413  -1.238  33.192  0.00  0.00     0.002 A 
ENDROOT
BRANCH   1  10
ATOM     10  C   UNL d   1      57.718   0.108  30.954  0.00  0.00     0.160 C 
BRANCH  10  11
ATOM     11  O   UNL d   1      57.898  -0.515  30.420  0.00  0.00    -0.300 OA
BRANCH  11  12
ATOM     12  C   UNL d   1      58.411  -0.393  29.767  0.00  0.00     0.122 A 
ATOM     13  C   UNL d   1      58.739  -1.042  29.377  0.00  0.00     0.117 A 
ATOM     14  C   UNL d   1      59.251  -0.942  28.727  0.00  0.00     0.026 A 
ATOM     15  C   UNL d   1      59.415  -0.174  28.489  0.00  0.00     0.002 A 
ATOM     16  C   UNL d   1      59.086   0.479  28.879  0.00  0.00     0.002 A 
ATOM     17  C   UNL d   1      58.578   0.378  29.526  0.00  0.00     0.027 A 
BRANCH  13  18
ATOM     18  O   UNL d   1      58.556  -1.815  29.638  0.00  0.00    -0.326 OA
ATOM     19  C   UNL d   1      58.836  -2.493  29.215  0.00  0.00     0.181 C 
ENDBRANCH  13  18
ENDBRANCH  11  12
ENDBRANCH  10  11
ENDBRANCH   1  10
BRANCH   3  20
ATOM     20  C   UNL d   1      57.841   0.682  32.667  0.00  0.00     0.082 C 
BRANCH  20  21
ATOM     21  C   UNL d   1      58.244   0.628  33.385  0.00  0.00     0.019 C 
ATOM     22  C   UNL d   1      59.063   0.682  33.449  0.00  0.00     0.002 C 
ENDBRANCH  20  21
ENDBRANCH   3  20
TORSDOF 6
ENDMDL
MODEL 3
REMARK VINA RESULT:      -1.8      8.542      9.395
REMARK  6 active torsions:
REMARK  status: ('A' for Active; 'I' for Inactive)
REMARK    1  A    between atoms: C_6  and  C_1 
REMARK    2  A    between atoms: C_10  and  N_3 
REMARK    3  A    between atoms: O_7  and  C_6 
REMARK    4  A    between atoms: C_8  and  O_7 
REMARK    5  A    between atoms: O_11  and  C_9 
REMARK    6  A    between atoms: C_17  and  C_10 
ROOT
ATOM      1  C   UNL d   1      59.167  -9.788  32.190  0.00  0.00     0.173 A 
ATOM      2  N   UNL d   1      58.357  -9.781  32.393  0.00  0.00    -0.225 NA
ATOM      3  N   UNL d   1      59.191  -9.803  31.364  0.00  0.00    -0.287 N 
ATOM      4  C   UNL d   1      58.434  -9.805  31.062  0.00  0.00     0.083 A 
ATOM      5  C   UNL d   1      57.907  -9.791  31.713  0.00  0.00     0.099 A 
ATOM      6  C   UNL d   1      58.129  -9.818  30.284  0.00  0.00     0.019 A 
ATOM      7  C   UNL d   1      57.099  -9.791  31.555  0.00  0.00     0.021 A 
ATOM      8  C   UNL d   1      57.331  -9.817  30.169  0.00  0.00     0.002 A 
ATOM      9  C   UNL d   1      56.804  -9.803  30.820  0.00  0.00     0.002 A 
ENDROOT
BRANCH   1  10
ATOM     10  C   UNL d   1      59.632  -9.778  32.854  0.00  0.00     0.160 C 
BRANCH  10  11
ATOM     11  O   UNL d   1      59.550  -9.166  33.424  0.00  0.00    -0.300 OA
BRANCH  11  12
ATOM     12  C   UNL d   1      60.004  -9.165  34.129  0.00  0.00     0.122 A 
ATOM     13  C   UNL d   1      59.767  -8.700  34.769  0.00  0.00     0.117 A 
ATOM     14  C   UNL d   1      60.204  -8.686  35.478  0.00  0.00     0.026 A 
ATOM     15  C   UNL d   1      60.879  -9.152  35.517  0.00  0.00     0.002 A 
ATOM     16  C   UNL d   1      61.118  -9.619  34.875  0.00  0.00     0.002 A 
ATOM     17  C   UNL d   1      60.683  -9.632  34.171  0.00  0.00     0.027 A 
BRANCH  13  18
ATOM     18  O   UNL d   1      59.076  -8.234  34.705  0.00  0.00    -0.326 OA
ATOM     19  C   UNL d   1      58.817  -7.752  35.351  0.00  0.00     0.181 C 
ENDBRANCH  13  18
ENDBRANCH  11  12
ENDBRANCH  10  11
ENDBRANCH   1  10
BRANCH   3  20
ATOM     20  C   UNL d   1      59.933  -9.811  31.068  0.00  0.00     0.082 C 
BRANCH  20  21
ATOM     21  C   UNL d   1      60.197  -9.257  30.517  0.00  0.00     0.019 C 
ATOM     22  C   UNL d   1      60.873  -9.359  30.060  0.00  0.00     0.002 C 
ENDBRANCH  20  21
ENDBRANCH   3  20
TORSDOF 6
ENDMDL
MODEL 4
REMARK VINA RESULT:      -1.5      0.939      2.328
REMARK  6 active torsions:
REMARK  status: ('A' for Active; 'I' for Inactive)
REMARK    1  A    between atoms: C_6  and  C_1 
REMARK    2  A    between atoms: C_10  and  N_3 
REMARK    3  A    between atoms: O_7  and  C_6 
REMARK    4  A    between atoms: C_8  and  O_7 
REMARK    5  A    between atoms: O_11  and  C_9 
REMARK    6  A    between atoms: C_17  and  C_10 
ROOT
ATOM      1  C   UNL d   1      58.388  -1.335  29.853  0.00  0.00     0.173 A 
ATOM      2  N   UNL d   1      58.027  -2.062  29.656  0.00  0.00    -0.225 NA
ATOM      3  N   UNL d   1      59.157  -1.379  29.555  0.00  0.00    -0.287 N 
ATOM      4  C   UNL d   1      59.275  -2.098  29.189  0.00  0.00     0.083 A 
ATOM      5  C   UNL d   1      58.560  -2.530  29.253  0.00  0.00     0.099 A 
ATOM      6  C   UNL d   1      59.931  -2.439  28.798  0.00  0.00     0.019 A 
ATOM      7  C   UNL d   1      58.534  -3.283  28.923  0.00  0.00     0.021 A 
ATOM      8  C   UNL d   1      59.866  -3.180  28.488  0.00  0.00     0.002 A 
ATOM      9  C   UNL d   1      59.151  -3.612  28.552  0.00  0.00     0.002 A 
ENDROOT
BRANCH   1  10
ATOM     10  C   UNL d   1      57.873  -0.856  30.255  0.00  0.00     0.160 C 
BRANCH  10  11
ATOM     11  O   UNL d   1      57.439  -1.150  30.912  0.00  0.00    -0.300 OA
BRANCH  11  12
ATOM     12  C   UNL d   1      57.069  -0.630  31.456  0.00  0.00     0.122 A 
ATOM     13  C   UNL d   1      56.616  -0.938  32.075  0.00  0.00     0.117 A 
ATOM     14  C   UNL d   1      56.240  -0.438  32.625  0.00  0.00     0.026 A 
ATOM     15  C   UNL d   1      56.337   0.371  32.530  0.00  0.00     0.002 A 
ATOM     16  C   UNL d   1      56.790   0.682  31.910  0.00  0.00     0.002 A 
ATOM     17  C   UNL d   1      57.164   0.184  31.363  0.00  0.00     0.027 A 
BRANCH  13  18
ATOM     18  O   UNL d   1      56.533  -1.766  32.151  0.00  0.00    -0.326 OA
ATOM     19  C   UNL d   1      55.901  -2.099  32.606  0.00  0.00     0.181 C 
ENDBRANCH  13  18
ENDBRANCH  11  12
ENDBRANCH  10  11
ENDBRANCH   1  10
BRANCH   3  20
ATOM     20  C   UNL d   1      59.589  -0.721  29.695  0.00  0.00     0.082 C 
BRANCH  20  21
ATOM     21  C   UNL d   1      60.009  -0.332  29.100  0.00  0.00     0.019 C 
ATOM     22  C   UNL d   1      60.473   0.333  29.235  0.00  0.00     0.002 C 
ENDBRANCH  20  21
ENDBRANCH   3  20
TORSDOF 6
ENDMDL
MODEL 5
REMARK VINA RESULT:      -1.5      8.788      9.268
REMARK  6 active torsions:
REMARK  status: ('A' for Active; 'I' for Inactive)
REMARK    1  A    between atoms: C_6  and  C_1 
REMARK    2  A    between atoms: C_10  and  N_3 
REMARK    3  A    between atoms: O_7  and  C_6 
REMARK    4  A    between atoms: C_8  and  O_7 
REMARK    5  A    between atoms: O_11  and  C_9 
REMARK    6  A    between atoms: C_17  and  C_10 
ROOT
ATOM      1  C   UNL d   1      59.757  -9.814  32.856  0.00  0.00     0.173 A 
ATOM      2  N   UNL d   1      60.537  -9.812  32.555  0.00  0.00    -0.225 NA
ATOM      3  N   UNL d   1      59.262  -9.815  32.194  0.00  0.00    -0.287 N 
ATOM      4  C   UNL d   1      59.706  -9.813  31.511  0.00  0.00     0.083 A 
ATOM      5  C   UNL d   1      60.513  -9.811  31.740  0.00  0.00     0.099 A 
ATOM      6  C   UNL d   1      59.507  -9.812  30.700  0.00  0.00     0.019 A 
ATOM      7  C   UNL d   1      61.082  -9.809  31.145  0.00  0.00     0.021 A 
ATOM      8  C   UNL d   1      60.093  -9.810  30.146  0.00  0.00     0.002 A 
ATOM      9  C   UNL d   1      60.899  -9.809  30.374  0.00  0.00     0.002 A 
ENDROOT
BRANCH   1  10
ATOM     10  C   UNL d   1      59.760  -9.815  33.666  0.00  0.00     0.160 C 
BRANCH  10  11
ATOM     11  O   UNL d   1      60.074  -9.163  34.093  0.00  0.00    -0.300 OA
BRANCH  11  12
ATOM     12  C   UNL d   1      59.778  -8.955  34.850  0.00  0.00     0.122 A 
ATOM     13  C   UNL d   1      60.055  -8.274  35.226  0.00  0.00     0.117 A 
ATOM     14  C   UNL d   1      59.773  -8.050  35.978  0.00  0.00     0.026 A 
ATOM     15  C   UNL d   1      59.209  -8.532  36.329  0.00  0.00     0.002 A 
ATOM     16  C   UNL d   1      58.929  -9.216  35.953  0.00  0.00     0.002 A 
ATOM     17  C   UNL d   1      59.211  -9.437  35.206  0.00  0.00     0.027 A 
BRANCH  13  18
ATOM     18  O   UNL d   1      60.630  -7.800  34.847  0.00  0.00    -0.326 OA
ATOM     19  C   UNL d   1      61.085  -7.237  35.287  0.00  0.00     0.181 C 
ENDBRANCH  13  18
ENDBRANCH  11  12
ENDBRANCH  10  11
ENDBRANCH   1  10
BRANCH   3  20
ATOM     20  C   UNL d   1      58.485  -9.817  32.381  0.00  0.00     0.082 C 
BRANCH  20  21
ATOM     21  C   UNL d   1      57.942  -9.306  32.025  0.00  0.00     0.019 C 
ATOM     22  C   UNL d   1      57.185  -9.535  31.800  0.00  0.00     0.002 C 
ENDBRANCH  20  21
ENDBRANCH   3  20
TORSDOF 6
ENDMDL
