MODEL 1
REMARK VINA RESULT:      -9.0      0.000      0.000
REMARK  6 active torsions:
REMARK  status: ('A' for Active; 'I' for Inactive)
REMARK    1  A    between atoms: S_5  and  C_3 
REMARK    2  A    between atoms: C_16  and  S_5 
REMARK    3  A    between atoms: C_20  and  N_6 
REMARK    4  A    between atoms: N_19  and  C_25 
REMARK    5  A    between atoms: C_24  and  C_20 
REMARK    6  A    between atoms: C_25  and  C_24 
ROOT
ATOM      1  C   UNL d   1      53.060  33.392  53.603  0.00  0.00     0.155 A 
ATOM      2  C   UNL d   1      52.754  34.102  53.890  0.00  0.00     0.092 A 
ATOM      3  C   UNL d   1      51.600  33.934  53.062  0.00  0.00     0.124 A 
ATOM      4  N   UNL d   1      53.795  33.120  53.876  0.00  0.00    -0.210 NA
ATOM      5  N   UNL d   1      52.643  32.955  53.053  0.00  0.00    -0.273 N 
ATOM      6  C   UNL d   1      51.906  33.223  52.776  0.00  0.00     0.181 A 
ATOM      7  C   UNL d   1      53.179  34.548  54.452  0.00  0.00     0.269 A 
ATOM      8  N   UNL d   1      53.909  34.275  54.721  0.00  0.00    -0.258 N 
ATOM      9  C   UNL d   1      52.018  34.382  53.622  0.00  0.00     0.022 A 
ATOM     10  C   UNL d   1      54.221  33.557  54.434  0.00  0.00     0.152 A 
ATOM     11  N   UNL d   1      51.486  32.779  52.219  0.00  0.00    -0.128 N 
ATOM     12  C   UNL d   1      54.332  34.717  55.279  0.00  0.00     0.084 A 
ATOM     13  O   UNL d   1      52.865  35.261  54.735  0.00  0.00    -0.266 OA
ATOM     14  C   UNL d   1      54.947  33.291  54.705  0.00  0.00     0.038 A 
ATOM     15  C   UNL d   1      55.060  34.440  55.544  0.00  0.00     0.019 A 
ATOM     16  C   UNL d   1      55.370  33.721  55.254  0.00  0.00     0.005 A 
ENDROOT
BRANCH   3  17
ATOM     17  S   UNL d   1      50.868  34.199  52.787  0.00  0.00     0.213 S 
ATOM     18  O   UNL d   1      50.458  33.833  53.394  0.00  0.00    -0.217 OA
ATOM     19  O   UNL d   1      51.246  34.584  52.159  0.00  0.00    -0.217 OA
BRANCH  17  20
ATOM     20  C   UNL d   1      50.139  34.467  52.509  0.00  0.00     0.088 A 
ATOM     21  C   UNL d   1      49.630  34.864  53.024  0.00  0.00     0.011 A 
ATOM     22  C   UNL d   1      48.902  35.133  52.753  0.00  0.00     0.001 A 
ATOM     23  C   UNL d   1      48.681  35.006  51.969  0.00  0.00     0.000 A 
ATOM     24  C   UNL d   1      49.194  34.606  51.453  0.00  0.00     0.001 A 
ATOM     25  C   UNL d   1      49.923  34.339  51.732  0.00  0.00     0.011 A 
ENDBRANCH  17  20
ENDBRANCH   3  17
BRANCH   5  26
ATOM     26  C   UNL d   1      52.951  32.241  52.766  0.00  0.00     0.085 C 
BRANCH  26  27
ATOM     27  C   UNL d   1      52.702  31.527  53.095  0.00  0.00     0.038 C 
BRANCH  27  28
ATOM     28  C   UNL d   1      53.020  30.821  52.836  0.00  0.00     0.082 C 
BRANCH  28  29
ATOM     29  N   UNL d   1      52.993  30.148  53.310  0.00  0.00    -0.299 N 
ATOM     30  C   UNL d   1      52.318  29.678  53.316  0.00  0.00     0.107 A 
ATOM     31  C   UNL d   1      52.280  29.009  53.783  0.00  0.00     0.142 A 
ATOM     32  O   UNL d   1      52.923  28.797  54.256  0.00  0.00    -0.300 OA
ATOM     33  C   UNL d   1      53.608  29.264  54.257  0.00  0.00     0.142 A 
ATOM     34  C   UNL d   1      53.642  29.947  53.779  0.00  0.00     0.107 A 
ENDBRANCH  28  29
ENDBRANCH  27  28
ENDBRANCH  26  27
ENDBRANCH   5  26
TORSDOF 6
ENDMDL
