MODEL 1
REMARK VINA RESULT:      -3.7      0.000      0.000
REMARK  4 active torsions:
REMARK  status: ('A' for Active; 'I' for Inactive)
REMARK    1  A    between atoms: C_11  and  C_4 
REMARK    2  A    between atoms: N_10  and  C_5 
REMARK    3  A    between atoms: C_15  and  N_10 
REMARK    4  A    between atoms: C_16  and  C_15 
ROOT
ATOM      1  N   UNL d   1     -41.466-122.477 -51.882  0.00  0.00    -0.195 N 
ATOM      2  C   UNL d   1     -41.507-121.968 -52.523  0.00  0.00     0.167 A 
ATOM      3  N   UNL d   1     -41.599-123.234 -52.160  0.00  0.00    -0.163 NA
ATOM      4  C   UNL d   1     -41.665-122.412 -53.193  0.00  0.00     0.055 A 
ATOM      5  C   UNL d   1     -41.312-122.178 -51.133  0.00  0.00     0.167 A 
ATOM      6  C   UNL d   1     -41.721-123.184 -52.972  0.00  0.00     0.104 A 
ATOM      7  N   UNL d   1     -41.394-121.157 -52.417  0.00  0.00    -0.227 NA
ATOM      8  C   UNL d   1     -41.198-121.361 -51.022  0.00  0.00     0.058 A 
ATOM      9  C   UNL d   1     -41.239-120.857 -51.656  0.00  0.00     0.086 A 
ATOM     10  C   UNL d   1     -41.877-123.817 -53.483  0.00  0.00     0.023 C 
ATOM     11  C   UNL d   1     -41.123-120.033 -51.540  0.00  0.00     0.021 C 
ENDROOT
BRANCH   5  12
ATOM     12  N   UNL d   1     -41.270-122.694 -50.485  0.00  0.00    -0.224 NA
BRANCH  12  13
ATOM     13  C   UNL d   1     -41.330-122.396 -49.722  0.00  0.00     0.120 C 
BRANCH  13  14
ATOM     14  C   UNL d   1     -41.646-122.868 -49.120  0.00  0.00     0.101 A 
ATOM     15  N   UNL d   1     -42.472-122.941 -49.038  0.00  0.00    -0.242 NA
ATOM     16  C   UNL d   1     -42.787-123.410 -48.439  0.00  0.00     0.099 A 
ATOM     17  C   UNL d   1     -42.279-123.809 -47.917  0.00  0.00     0.021 A 
ATOM     18  C   UNL d   1     -41.463-123.737 -47.998  0.00  0.00     0.003 A 
ATOM     19  C   UNL d   1     -41.148-123.267 -48.597  0.00  0.00     0.021 A 
ENDBRANCH  13  14
ENDBRANCH  12  13
ENDBRANCH   5  12
BRANCH   4  20
ATOM     20  C   UNL d   1     -41.766-122.199 -53.990  0.00  0.00     0.004 A 
ATOM     21  C   UNL d   1     -41.167-122.342 -54.539  0.00  0.00     0.001 A 
ATOM     22  C   UNL d   1     -41.264-122.132 -55.330  0.00  0.00     0.011 A 
ATOM     23  C   UNL d   1     -41.969-121.776 -55.571  0.00  0.00     0.058 A 
ATOM     24  C   UNL d   1     -42.573-121.632 -55.019  0.00  0.00     0.011 A 
ATOM     25 CL   UNL d   1     -42.066-121.563 -56.378  0.00  0.00    -0.082 Cl
ATOM     26  C   UNL d   1     -42.472-121.843 -54.231  0.00  0.00     0.001 A 
ENDBRANCH   4  20
TORSDOF 4
ENDMDL
