MODEL 1
REMARK VINA RESULT:      -7.3      0.000      0.000
REMARK  4 active torsions:
REMARK  status: ('A' for Active; 'I' for Inactive)
REMARK    1  A    between atoms: C_4  and  C_1 
REMARK    2  A    between atoms: C_9  and  N_2 
REMARK    3  A    between atoms: C_10  and  N_3 
REMARK    4  A    between atoms: O_15  and  C_12 
ROOT
ATOM      1  C   UNL d   1     -48.346  13.988  22.791  0.00  0.00     0.133 A 
ATOM      2  N   UNL d   1     -48.777  14.681  22.810  0.00  0.00    -0.290 N 
ATOM      3  N   UNL d   1     -47.557  14.187  22.694  0.00  0.00    -0.290 N 
ATOM      4  C   UNL d   1     -47.511  15.012  22.655  0.00  0.00     0.101 A 
ATOM      5  C   UNL d   1     -48.238  15.297  22.724  0.00  0.00     0.101 A 
ENDROOT
BRANCH   1   6
ATOM      6  C   UNL d   1     -48.763  13.279  22.867  0.00  0.00     0.036 A 
ATOM      7  C   UNL d   1     -49.013  12.875  22.179  0.00  0.00     0.047 A 
ATOM      8  C   UNL d   1     -49.429  12.166  22.255  0.00  0.00     0.218 A 
ATOM      9  O   UNL d   1     -49.680  11.760  21.564  0.00  0.00    -0.284 OA
ATOM     10  C   UNL d   1     -49.594  11.867  23.004  0.00  0.00     0.133 A 
ATOM     11  C   UNL d   1     -49.347  12.269  23.678  0.00  0.00     0.028 A 
ATOM     12  C   UNL d   1     -48.932  12.974  23.603  0.00  0.00     0.005 A 
BRANCH  10  13
ATOM     13  O   UNL d   1     -50.019  11.144  23.085  0.00  0.00    -0.325 OA
ATOM     14  C   UNL d   1     -50.570  11.064  23.693  0.00  0.00     0.181 C 
ENDBRANCH  10  13
ENDBRANCH   1   6
BRANCH   2  15
ATOM     15  C   UNL d   1     -49.545  15.009  22.883  0.00  0.00     0.066 A 
ATOM     16  C   UNL d   1     -49.807  15.288  23.606  0.00  0.00     0.018 A 
ATOM     17  C   UNL d   1     -50.552  15.611  23.698  0.00  0.00     0.002 A 
ATOM     18  C   UNL d   1     -51.064  15.661  23.043  0.00  0.00     0.000 A 
ATOM     19  C   UNL d   1     -50.806  15.379  22.299  0.00  0.00     0.002 A 
ATOM     20  C   UNL d   1     -50.040  15.051  22.225  0.00  0.00     0.018 A 
ENDBRANCH   2  15
BRANCH   3  21
ATOM     21  C   UNL d   1     -46.852  13.763  22.633  0.00  0.00     0.066 A 
ATOM     22  C   UNL d   1     -46.530  13.576  21.895  0.00  0.00     0.018 A 
ATOM     23  C   UNL d   1     -45.843  13.163  21.835  0.00  0.00     0.002 A 
ATOM     24  C   UNL d   1     -45.430  12.908  22.518  0.00  0.00     0.000 A 
ATOM     25  C   UNL d   1     -45.755  13.096  23.259  0.00  0.00     0.002 A 
ATOM     26  C   UNL d   1     -46.459  13.520  23.318  0.00  0.00     0.018 A 
ENDBRANCH   3  21
TORSDOF 4
ENDMDL
MODEL 2
REMARK VINA RESULT:      -5.2      7.241      9.782
REMARK  4 active torsions:
REMARK  status: ('A' for Active; 'I' for Inactive)
REMARK    1  A    between atoms: C_4  and  C_1 
REMARK    2  A    between atoms: C_9  and  N_2 
REMARK    3  A    between atoms: C_10  and  N_3 
REMARK    4  A    between atoms: O_15  and  C_12 
ROOT
ATOM      1  C   UNL d   1     -39.422  15.127  19.878  0.00  0.00     0.133 A 
ATOM      2  N   UNL d   1     -38.797  15.253  20.387  0.00  0.00    -0.290 N 
ATOM      3  N   UNL d   1     -39.159  15.277  19.116  0.00  0.00    -0.290 N 
ATOM      4  C   UNL d   1     -38.364  15.498  19.166  0.00  0.00     0.101 A 
ATOM      5  C   UNL d   1     -38.157  15.481  19.923  0.00  0.00     0.101 A 
ENDROOT
BRANCH   1   6
ATOM      6  C   UNL d   1     -40.140  14.889  20.210  0.00  0.00     0.036 A 
ATOM      7  C   UNL d   1     -40.698  15.470  20.438  0.00  0.00     0.047 A 
ATOM      8  C   UNL d   1     -41.415  15.233  20.770  0.00  0.00     0.218 A 
ATOM      9  O   UNL d   1     -41.975  15.816  20.998  0.00  0.00    -0.284 OA
ATOM     10  C   UNL d   1     -41.574  14.432  20.873  0.00  0.00     0.133 A 
ATOM     11  C   UNL d   1     -41.022  13.864  20.647  0.00  0.00     0.028 A 
ATOM     12  C   UNL d   1     -40.307  14.099  20.317  0.00  0.00     0.005 A 
BRANCH  10  13
ATOM     13  O   UNL d   1     -42.305  14.187  21.212  0.00  0.00    -0.325 OA
ATOM     14  C   UNL d   1     -42.442  13.384  21.343  0.00  0.00     0.181 C 
ENDBRANCH  10  13
ENDBRANCH   1   6
BRANCH   2  15
ATOM     15  C   UNL d   1     -38.552  15.242  21.188  0.00  0.00     0.066 A 
ATOM     16  C   UNL d   1     -38.246  14.557  21.516  0.00  0.00     0.018 A 
ATOM     17  C   UNL d   1     -38.002  14.526  22.295  0.00  0.00     0.002 A 
ATOM     18  C   UNL d   1     -38.063  15.204  22.775  0.00  0.00     0.000 A 
ATOM     19  C   UNL d   1     -38.374  15.909  22.449  0.00  0.00     0.002 A 
ATOM     20  C   UNL d   1     -38.619  15.922  21.650  0.00  0.00     0.018 A 
ENDBRANCH   2  15
BRANCH   3  21
ATOM     21  C   UNL d   1     -39.502  15.255  18.366  0.00  0.00     0.066 A 
ATOM     22  C   UNL d   1     -39.874  15.921  18.048  0.00  0.00     0.018 A 
ATOM     23  C   UNL d   1     -40.207  15.900  17.316  0.00  0.00     0.002 A 
ATOM     24  C   UNL d   1     -40.190  15.203  16.853  0.00  0.00     0.000 A 
ATOM     25  C   UNL d   1     -39.816  14.534  17.174  0.00  0.00     0.002 A 
ATOM     26  C   UNL d   1     -39.475  14.558  17.923  0.00  0.00     0.018 A 
ENDBRANCH   3  21
TORSDOF 4
ENDMDL
MODEL 3
REMARK VINA RESULT:      -4.9      9.200     10.490
REMARK  4 active torsions:
REMARK  status: ('A' for Active; 'I' for Inactive)
REMARK    1  A    between atoms: C_4  and  C_1 
REMARK    2  A    between atoms: C_9  and  N_2 
REMARK    3  A    between atoms: C_10  and  N_3 
REMARK    4  A    between atoms: O_15  and  C_12 
ROOT
ATOM      1  C   UNL d   1     -38.961  14.138  18.982  0.00  0.00     0.133 A 
ATOM      2  N   UNL d   1     -38.800  14.289  19.768  0.00  0.00    -0.290 N 
ATOM      3  N   UNL d   1     -38.430  13.571  18.722  0.00  0.00    -0.290 N 
ATOM      4  C   UNL d   1     -37.941  13.376  19.361  0.00  0.00     0.101 A 
ATOM      5  C   UNL d   1     -38.168  13.807  19.977  0.00  0.00     0.101 A 
ENDROOT
BRANCH   1   6
ATOM      6  C   UNL d   1     -39.582  14.558  18.634  0.00  0.00     0.036 A 
ATOM      7  C   UNL d   1     -40.337  14.203  18.581  0.00  0.00     0.047 A 
ATOM      8  C   UNL d   1     -40.957  14.623  18.233  0.00  0.00     0.218 A 
ATOM      9  O   UNL d   1     -41.716  14.267  18.180  0.00  0.00    -0.284 OA
ATOM     10  C   UNL d   1     -40.826  15.382  17.944  0.00  0.00     0.133 A 
ATOM     11  C   UNL d   1     -40.080  15.727  17.998  0.00  0.00     0.028 A 
ATOM     12  C   UNL d   1     -39.463  15.310  18.344  0.00  0.00     0.005 A 
BRANCH  10  13
ATOM     13  O   UNL d   1     -41.456  15.813  17.588  0.00  0.00    -0.325 OA
ATOM     14  C   UNL d   1     -41.463  15.921  16.771  0.00  0.00     0.181 C 
ENDBRANCH  10  13
ENDBRANCH   1   6
BRANCH   2  15
ATOM     15  C   UNL d   1     -39.024  14.738  20.439  0.00  0.00     0.066 A 
ATOM     16  C   UNL d   1     -38.676  15.465  20.583  0.00  0.00     0.018 A 
ATOM     17  C   UNL d   1     -38.880  15.918  21.232  0.00  0.00     0.002 A 
ATOM     18  C   UNL d   1     -39.456  15.640  21.766  0.00  0.00     0.000 A 
ATOM     19  C   UNL d   1     -39.818  14.898  21.628  0.00  0.00     0.002 A 
ATOM     20  C   UNL d   1     -39.596  14.449  20.958  0.00  0.00     0.018 A 
ENDBRANCH   2  15
BRANCH   3  21
ATOM     21  C   UNL d   1     -38.294  13.183  18.007  0.00  0.00     0.066 A 
ATOM     22  C   UNL d   1     -38.072  13.603  17.331  0.00  0.00     0.018 A 
ATOM     23  C   UNL d   1     -37.940  13.225  16.633  0.00  0.00     0.002 A 
ATOM     24  C   UNL d   1     -38.021  12.394  16.569  0.00  0.00     0.000 A 
ATOM     25  C   UNL d   1     -38.244  11.974  17.250  0.00  0.00     0.002 A 
ATOM     26  C   UNL d   1     -38.380  12.362  17.963  0.00  0.00     0.018 A 
ENDBRANCH   3  21
TORSDOF 4
ENDMDL
