MODEL 1
REMARK VINA RESULT:      -2.4      0.000      0.000
REMARK  4 active torsions:
REMARK  status: ('A' for Active; 'I' for Inactive)
REMARK    1  A    between atoms: C_2  and  S_1 
REMARK    2  A    between atoms: N_5  and  S_1 
REMARK    3  A    between atoms: C_12  and  N_5 
REMARK    4  A    between atoms: C_13  and  C_12 
ROOT
ATOM      1  S   UNL d   1      32.605  18.500 -23.519  0.00  0.00     0.285 S 
ATOM      2  O   UNL d   1      32.065  18.434 -22.899  0.00  0.00    -0.198 OA
ATOM      3  O   UNL d   1      33.145  18.566 -24.139  0.00  0.00    -0.198 OA
ENDROOT
BRANCH   1   4
ATOM      4  C   UNL d   1      32.404  17.742 -23.775  0.00  0.00     0.105 A 
ATOM      5  C   UNL d   1      31.893  17.633 -24.405  0.00  0.00     0.012 A 
ATOM      6  C   UNL d   1      31.693  16.876 -24.661  0.00  0.00     0.001 A 
ATOM      7  C   UNL d   1      31.577  18.303 -24.786  0.00  0.00     0.001 C 
ATOM      8  C   UNL d   1      32.001  16.219 -24.289  0.00  0.00     0.000 A 
ATOM      9  C   UNL d   1      32.517  16.317 -23.654  0.00  0.00     0.001 A 
ATOM     10  C   UNL d   1      31.801  15.461 -24.546  0.00  0.00     0.000 C 
ATOM     11  C   UNL d   1      32.718  17.074 -23.398  0.00  0.00     0.012 A 
ATOM     12  C   UNL d   1      33.236  17.178 -22.759  0.00  0.00     0.001 C 
ENDBRANCH   1   4
BRANCH   1  13
ATOM     13  N   UNL d   1      32.804  19.252 -23.265  0.00  0.00    -0.157 NA
BRANCH  13  14
ATOM     14  C   UNL d   1      32.896  19.407 -22.470  0.00  0.00     0.112 C 
BRANCH  14  15
ATOM     15  C   UNL d   1      32.942  20.180 -22.207  0.00  0.00     0.023 A 
ATOM     16  C   UNL d   1      33.194  20.779 -22.709  0.00  0.00     0.022 A 
ATOM     17  C   UNL d   1      33.241  21.556 -22.448  0.00  0.00     0.099 A 
ATOM     18  N   UNL d   1      33.033  21.737 -21.670  0.00  0.00    -0.242 NA
ATOM     19  C   UNL d   1      32.779  21.150 -21.157  0.00  0.00     0.099 A 
ATOM     20  C   UNL d   1      32.732  20.362 -21.423  0.00  0.00     0.022 A 
ENDBRANCH  14  15
ENDBRANCH  13  14
ENDBRANCH   1  13
TORSDOF 4
ENDMDL
MODEL 2
REMARK VINA RESULT:      -1.3      1.559      4.672
REMARK  4 active torsions:
REMARK  status: ('A' for Active; 'I' for Inactive)
REMARK    1  A    between atoms: C_2  and  S_1 
REMARK    2  A    between atoms: N_5  and  S_1 
REMARK    3  A    between atoms: C_12  and  N_5 
REMARK    4  A    between atoms: C_13  and  C_12 
ROOT
ATOM      1  S   UNL d   1      32.676  20.626 -21.987  0.00  0.00     0.285 S 
ATOM      2  O   UNL d   1      33.241  20.983 -22.471  0.00  0.00    -0.198 OA
ATOM      3  O   UNL d   1      32.112  20.268 -21.504  0.00  0.00    -0.198 OA
ENDROOT
BRANCH   1   4
ATOM      4  C   UNL d   1      32.752  21.241 -21.443  0.00  0.00     0.105 A 
ATOM      5  C   UNL d   1      32.549  22.008 -21.647  0.00  0.00     0.012 A 
ATOM      6  C   UNL d   1      32.625  22.623 -21.104  0.00  0.00     0.001 A 
ATOM      7  C   UNL d   1      32.265  22.159 -22.415  0.00  0.00     0.001 C 
ATOM      8  C   UNL d   1      32.903  22.478 -20.351  0.00  0.00     0.000 A 
ATOM      9  C   UNL d   1      33.109  21.709 -20.136  0.00  0.00     0.001 A 
ATOM     10  C   UNL d   1      32.978  23.094 -19.807  0.00  0.00     0.000 C 
ATOM     11  C   UNL d   1      33.034  21.094 -20.679  0.00  0.00     0.012 A 
ATOM     12  C   UNL d   1      33.240  20.319 -20.467  0.00  0.00     0.001 C 
ENDBRANCH   1   4
BRANCH   1  13
ATOM     13  N   UNL d   1      32.602  20.015 -22.527  0.00  0.00    -0.157 NA
BRANCH  13  14
ATOM     14  C   UNL d   1      32.892  19.273 -22.352  0.00  0.00     0.112 C 
BRANCH  14  15
ATOM     15  C   UNL d   1      32.872  18.683 -22.917  0.00  0.00     0.023 A 
ATOM     16  C   UNL d   1      33.083  17.913 -22.728  0.00  0.00     0.022 A 
ATOM     17  C   UNL d   1      33.064  17.318 -23.294  0.00  0.00     0.099 A 
ATOM     18  N   UNL d   1      32.829  17.498 -24.065  0.00  0.00    -0.242 NA
ATOM     19  C   UNL d   1      32.615  18.263 -24.270  0.00  0.00     0.099 A 
ATOM     20  C   UNL d   1      32.635  18.865 -23.694  0.00  0.00     0.022 A 
ENDBRANCH  14  15
ENDBRANCH  13  14
ENDBRANCH   1  13
TORSDOF 4
ENDMDL
MODEL 3
REMARK VINA RESULT:      -0.7      1.730      2.288
REMARK  4 active torsions:
REMARK  status: ('A' for Active; 'I' for Inactive)
REMARK    1  A    between atoms: C_2  and  S_1 
REMARK    2  A    between atoms: N_5  and  S_1 
REMARK    3  A    between atoms: C_12  and  N_5 
REMARK    4  A    between atoms: C_13  and  C_12 
ROOT
ATOM      1  S   UNL d   1      31.278  17.309 -24.179  0.00  0.00     0.285 S 
ATOM      2  O   UNL d   1      31.195  17.619 -24.939  0.00  0.00    -0.198 OA
ATOM      3  O   UNL d   1      31.361  16.998 -23.419  0.00  0.00    -0.198 OA
ENDROOT
BRANCH   1   4
ATOM      4  C   UNL d   1      30.605  16.846 -24.295  0.00  0.00     0.105 A 
ATOM      5  C   UNL d   1      29.857  17.152 -24.164  0.00  0.00     0.012 A 
ATOM      6  C   UNL d   1      29.184  16.690 -24.280  0.00  0.00     0.001 A 
ATOM      7  C   UNL d   1      29.784  17.942 -23.911  0.00  0.00     0.001 C 
ATOM      8  C   UNL d   1      29.253  15.916 -24.527  0.00  0.00     0.000 A 
ATOM      9  C   UNL d   1      30.002  15.597 -24.662  0.00  0.00     0.001 A 
ATOM     10  C   UNL d   1      28.580  15.453 -24.643  0.00  0.00     0.000 C 
ATOM     11  C   UNL d   1      30.674  16.060 -24.547  0.00  0.00     0.012 A 
ATOM     12  C   UNL d   1      31.429  15.744 -24.681  0.00  0.00     0.001 C 
ENDBRANCH   1   4
BRANCH   1  13
ATOM     13  N   UNL d   1      31.945  17.768 -24.064  0.00  0.00    -0.157 NA
BRANCH  13  14
ATOM     14  C   UNL d   1      32.167  17.990 -23.312  0.00  0.00     0.112 C 
BRANCH  14  15
ATOM     15  C   UNL d   1      32.517  18.719 -23.188  0.00  0.00     0.023 A 
ATOM     16  C   UNL d   1      32.888  19.116 -23.803  0.00  0.00     0.022 A 
ATOM     17  C   UNL d   1      33.241  19.848 -23.681  0.00  0.00     0.099 A 
ATOM     18  N   UNL d   1      33.221  20.189 -22.930  0.00  0.00    -0.242 NA
ATOM     19  C   UNL d   1      32.855  19.804 -22.305  0.00  0.00     0.099 A 
ATOM     20  C   UNL d   1      32.498  19.062 -22.431  0.00  0.00     0.022 A 
ENDBRANCH  14  15
ENDBRANCH  13  14
ENDBRANCH   1  13
TORSDOF 4
ENDMDL
MODEL 4
REMARK VINA RESULT:      -0.7      2.806      4.654
REMARK  4 active torsions:
REMARK  status: ('A' for Active; 'I' for Inactive)
REMARK    1  A    between atoms: C_2  and  S_1 
REMARK    2  A    between atoms: N_5  and  S_1 
REMARK    3  A    between atoms: C_12  and  N_5 
REMARK    4  A    between atoms: C_13  and  C_12 
ROOT
ATOM      1  S   UNL d   1      30.750  17.208 -24.218  0.00  0.00     0.285 S 
ATOM      2  O   UNL d   1      30.692  17.452 -23.432  0.00  0.00    -0.198 OA
ATOM      3  O   UNL d   1      30.808  16.964 -25.004  0.00  0.00    -0.198 OA
ENDROOT
BRANCH   1   4
ATOM      4  C   UNL d   1      31.371  17.737 -24.337  0.00  0.00     0.105 A 
ATOM      5  C   UNL d   1      32.115  17.588 -24.028  0.00  0.00     0.012 A 
ATOM      6  C   UNL d   1      32.735  18.117 -24.146  0.00  0.00     0.001 A 
ATOM      7  C   UNL d   1      32.235  16.890 -23.590  0.00  0.00     0.001 C 
ATOM      8  C   UNL d   1      32.619  18.801 -24.574  0.00  0.00     0.000 A 
ATOM      9  C   UNL d   1      31.875  18.961 -24.890  0.00  0.00     0.001 A 
ATOM     10  C   UNL d   1      33.241  19.330 -24.693  0.00  0.00     0.000 C 
ATOM     11  C   UNL d   1      31.254  18.432 -24.772  0.00  0.00     0.012 A 
ATOM     12  C   UNL d   1      30.503  18.589 -25.087  0.00  0.00     0.001 C 
ENDBRANCH   1   4
BRANCH   1  13
ATOM     13  N   UNL d   1      30.133  16.683 -24.101  0.00  0.00    -0.157 NA
BRANCH  13  14
ATOM     14  C   UNL d   1      29.443  16.931 -23.744  0.00  0.00     0.112 C 
BRANCH  14  15
ATOM     15  C   UNL d   1      28.787  16.443 -23.740  0.00  0.00     0.023 A 
ATOM     16  C   UNL d   1      28.631  15.944 -24.373  0.00  0.00     0.022 A 
ATOM     17  C   UNL d   1      27.973  15.453 -24.371  0.00  0.00     0.099 A 
ATOM     18  N   UNL d   1      27.462  15.460 -23.723  0.00  0.00    -0.242 NA
ATOM     19  C   UNL d   1      27.604  15.952 -23.083  0.00  0.00     0.099 A 
ATOM     20  C   UNL d   1      28.272  16.450 -23.086  0.00  0.00     0.022 A 
ENDBRANCH  14  15
ENDBRANCH  13  14
ENDBRANCH   1  13
TORSDOF 4
ENDMDL
MODEL 5
REMARK VINA RESULT:      -0.6      1.703      2.800
REMARK  4 active torsions:
REMARK  status: ('A' for Active; 'I' for Inactive)
REMARK    1  A    between atoms: C_2  and  S_1 
REMARK    2  A    between atoms: N_5  and  S_1 
REMARK    3  A    between atoms: C_12  and  N_5 
REMARK    4  A    between atoms: C_13  and  C_12 
ROOT
ATOM      1  S   UNL d   1      33.215  20.577 -22.211  0.00  0.00     0.285 S 
ATOM      2  O   UNL d   1      33.241  20.974 -22.934  0.00  0.00    -0.198 OA
ATOM      3  O   UNL d   1      33.189  20.181 -21.488  0.00  0.00    -0.198 OA
ENDROOT
BRANCH   1   4
ATOM      4  C   UNL d   1      33.221  19.854 -22.608  0.00  0.00     0.105 A 
ATOM      5  C   UNL d   1      33.234  19.148 -22.193  0.00  0.00     0.012 A 
ATOM      6  C   UNL d   1      33.241  18.425 -22.589  0.00  0.00     0.001 A 
ATOM      7  C   UNL d   1      33.241  19.171 -21.361  0.00  0.00     0.001 C 
ATOM      8  C   UNL d   1      33.234  18.401 -23.404  0.00  0.00     0.000 A 
ATOM      9  C   UNL d   1      33.221  19.106 -23.832  0.00  0.00     0.001 A 
ATOM     10  C   UNL d   1      33.241  17.678 -23.801  0.00  0.00     0.000 C 
ATOM     11  C   UNL d   1      33.215  19.829 -23.436  0.00  0.00     0.012 A 
ATOM     12  C   UNL d   1      33.202  20.541 -23.861  0.00  0.00     0.001 C 
ENDBRANCH   1   4
BRANCH   1  13
ATOM     13  N   UNL d   1      33.208  21.295 -21.818  0.00  0.00    -0.157 NA
BRANCH  13  14
ATOM     14  C   UNL d   1      32.630  21.457 -21.266  0.00  0.00     0.112 C 
BRANCH  14  15
ATOM     15  C   UNL d   1      32.593  22.195 -20.918  0.00  0.00     0.023 A 
ATOM     16  C   UNL d   1      32.172  22.805 -21.271  0.00  0.00     0.022 A 
ATOM     17  C   UNL d   1      32.134  23.548 -20.922  0.00  0.00     0.099 A 
ATOM     18  N   UNL d   1      32.525  23.683 -20.209  0.00  0.00    -0.242 NA
ATOM     19  C   UNL d   1      32.950  23.084 -19.844  0.00  0.00     0.099 A 
ATOM     20  C   UNL d   1      32.987  22.331 -20.198  0.00  0.00     0.022 A 
ENDBRANCH  14  15
ENDBRANCH  13  14
ENDBRANCH   1  13
TORSDOF 4
ENDMDL
MODEL 6
REMARK VINA RESULT:      -0.3      1.208      4.217
REMARK  4 active torsions:
REMARK  status: ('A' for Active; 'I' for Inactive)
REMARK    1  A    between atoms: C_2  and  S_1 
REMARK    2  A    between atoms: N_5  and  S_1 
REMARK    3  A    between atoms: C_12  and  N_5 
REMARK    4  A    between atoms: C_13  and  C_12 
ROOT
ATOM      1  S   UNL d   1      33.194  19.177 -22.890  0.00  0.00     0.285 S 
ATOM      2  O   UNL d   1      33.241  19.459 -23.664  0.00  0.00    -0.198 OA
ATOM      3  O   UNL d   1      33.147  18.894 -22.117  0.00  0.00    -0.198 OA
ENDROOT
BRANCH   1   4
ATOM      4  C   UNL d   1      33.206  19.951 -22.607  0.00  0.00     0.105 A 
ATOM      5  C   UNL d   1      33.195  20.588 -23.122  0.00  0.00     0.012 A 
ATOM      6  C   UNL d   1      33.207  21.361 -22.839  0.00  0.00     0.001 A 
ATOM      7  C   UNL d   1      33.172  20.441 -23.941  0.00  0.00     0.001 C 
ATOM      8  C   UNL d   1      33.229  21.507 -22.037  0.00  0.00     0.000 A 
ATOM      9  C   UNL d   1      33.240  20.874 -21.509  0.00  0.00     0.001 A 
ATOM     10  C   UNL d   1      33.241  22.282 -21.753  0.00  0.00     0.000 C 
ATOM     11  C   UNL d   1      33.229  20.100 -21.792  0.00  0.00     0.012 A 
ATOM     12  C   UNL d   1      33.240  19.460 -21.265  0.00  0.00     0.001 C 
ENDBRANCH   1   4
BRANCH   1  13
ATOM     13  N   UNL d   1      33.183  18.409 -23.171  0.00  0.00    -0.157 NA
BRANCH  13  14
ATOM     14  C   UNL d   1      32.482  17.992 -23.203  0.00  0.00     0.112 C 
BRANCH  14  15
ATOM     15  C   UNL d   1      32.477  17.223 -23.480  0.00  0.00     0.023 A 
ATOM     16  C   UNL d   1      33.180  16.829 -23.638  0.00  0.00     0.022 A 
ATOM     17  C   UNL d   1      33.177  16.056 -23.916  0.00  0.00     0.099 A 
ATOM     18  N   UNL d   1      32.458  15.670 -24.037  0.00  0.00    -0.242 NA
ATOM     19  C   UNL d   1      31.747  16.050 -23.884  0.00  0.00     0.099 A 
ATOM     20  C   UNL d   1      31.752  16.834 -23.602  0.00  0.00     0.022 A 
ENDBRANCH  14  15
ENDBRANCH  13  14
ENDBRANCH   1  13
TORSDOF 4
ENDMDL
