MODEL 1
REMARK VINA RESULT:      10.6      0.000      0.000
REMARK  3 active torsions:
REMARK  status: ('A' for Active; 'I' for Inactive)
REMARK       I    between atoms: N_2  and  C_1 
REMARK    1  A    between atoms: O_3  and  C_1 
REMARK    2  A    between atoms: C_9  and  O_3 
REMARK    3  A    between atoms: C_5  and  C_6 
ROOT
ATOM      1  C   UNL d   1      45.590 -14.385  44.338  0.00  0.00    -0.023 A 
ATOM      2  C   UNL d   1      45.114 -14.810  44.861  0.00  0.00    -0.002 A 
ATOM      3  C   UNL d   1      46.178 -14.774  43.910  0.00  0.00    -0.002 A 
ATOM      4  C   UNL d   1      45.812 -16.000  44.525  0.00  0.00     0.105 A 
ATOM      5  C   UNL d   1      46.289 -15.584  44.003  0.00  0.00     0.025 A 
ATOM      6  C   UNL d   1      45.225 -15.620  44.955  0.00  0.00     0.025 A 
ENDROOT
BRANCH   4   7
ATOM      7  O   UNL d   1      45.924 -16.813  44.619  0.00  0.00    -0.259 OA
BRANCH   7   8
ATOM      8  C   UNL d   1      46.074 -17.300  43.975  0.00  0.00     0.377 C 
ATOM      9  N   UNL d   1      46.266 -18.098  44.076  0.00  0.00    -0.252 N 
ATOM     10  C   UNL d   1      46.306 -18.407  44.846  0.00  0.00     0.085 A 
ATOM     11  C   UNL d   1      46.414 -18.572  43.428  0.00  0.00     0.085 A 
ATOM     12  C   UNL d   1      46.496 -19.199  44.954  0.00  0.00     0.019 A 
ATOM     13  C   UNL d   1      46.647 -19.686  44.303  0.00  0.00     0.003 A 
ATOM     14  C   UNL d   1      46.606 -19.370  43.533  0.00  0.00     0.019 A 
ATOM     15  O   UNL d   1      46.029 -16.967  43.200  0.00  0.00    -0.237 OA
ENDBRANCH   7   8
ENDBRANCH   4   7
BRANCH   1  16
ATOM     16  C   UNL d   1      45.478 -13.571  44.244  0.00  0.00     0.019 C 
ATOM     17  C   UNL d   1      45.774 -13.045  44.811  0.00  0.00     0.004 C 
ATOM     18  C   UNL d   1      45.073 -13.283  43.586  0.00  0.00     0.004 C 
ATOM     19  C   UNL d   1      45.900 -13.647  44.955  0.00  0.00     0.004 C 
ENDBRANCH   1  16
TORSDOF 3
ENDMDL
MODEL 2
REMARK VINA RESULT:      11.1      0.925      4.512
REMARK  3 active torsions:
REMARK  status: ('A' for Active; 'I' for Inactive)
REMARK       I    between atoms: N_2  and  C_1 
REMARK    1  A    between atoms: O_3  and  C_1 
REMARK    2  A    between atoms: C_9  and  O_3 
REMARK    3  A    between atoms: C_5  and  C_6 
ROOT
ATOM      1  C   UNL d   1      46.327 -18.954  43.646  0.00  0.00    -0.023 A 
ATOM      2  C   UNL d   1      46.431 -18.734  44.434  0.00  0.00    -0.002 A 
ATOM      3  C   UNL d   1      46.217 -18.375  43.069  0.00  0.00    -0.002 A 
ATOM      4  C   UNL d   1      46.317 -17.367  44.065  0.00  0.00     0.105 A 
ATOM      5  C   UNL d   1      46.212 -17.579  43.279  0.00  0.00     0.025 A 
ATOM      6  C   UNL d   1      46.426 -17.939  44.644  0.00  0.00     0.025 A 
ENDROOT
BRANCH   4   7
ATOM      7  O   UNL d   1      46.312 -16.569  44.276  0.00  0.00    -0.259 OA
BRANCH   7   8
ATOM      8  C   UNL d   1      45.644 -16.218  44.601  0.00  0.00     0.377 C 
ATOM      9  N   UNL d   1      45.555 -15.396  44.616  0.00  0.00    -0.252 N 
ATOM     10  C   UNL d   1      46.156 -14.922  44.294  0.00  0.00     0.085 A 
ATOM     11  C   UNL d   1      44.886 -15.059  44.942  0.00  0.00     0.085 A 
ATOM     12  C   UNL d   1      46.075 -14.104  44.305  0.00  0.00     0.019 A 
ATOM     13  C   UNL d   1      45.401 -13.754  44.633  0.00  0.00     0.003 A 
ATOM     14  C   UNL d   1      44.801 -14.236  44.955  0.00  0.00     0.019 A 
ATOM     15  O   UNL d   1      45.043 -16.717  44.924  0.00  0.00    -0.237 OA
ENDBRANCH   7   8
ENDBRANCH   4   7
BRANCH   1  16
ATOM     16  C   UNL d   1      46.332 -19.753  43.435  0.00  0.00     0.019 C 
ATOM     17  C   UNL d   1      46.589 -19.980  42.681  0.00  0.00     0.004 C 
ATOM     18  C   UNL d   1      46.080 -20.325  43.974  0.00  0.00     0.004 C 
ATOM     19  C   UNL d   1      46.615 -19.354  42.765  0.00  0.00     0.004 C 
ENDBRANCH   1  16
TORSDOF 3
ENDMDL
