MODEL 1
REMARK VINA RESULT:      -5.3      0.000      0.000
REMARK  4 active torsions:
REMARK  status: ('A' for Active; 'I' for Inactive)
REMARK    1  A    between atoms: C_2  and  S_1 
REMARK    2  A    between atoms: N_5  and  S_1 
REMARK    3  A    between atoms: C_10  and  N_5 
REMARK    4  A    between atoms: C_11  and  C_10 
ROOT
ATOM      1  S   UNL d   1      57.967   0.290  30.309  0.00  0.00     0.291 S 
ATOM      2  O   UNL d   1      58.547   0.160  30.881  0.00  0.00    -0.198 OA
ATOM      3  O   UNL d   1      57.390   0.419  29.734  0.00  0.00    -0.198 OA
ENDROOT
BRANCH   1   4
ATOM      4  C   UNL d   1      58.532   0.209  29.712  0.00  0.00     0.135 A 
ATOM      5  S   UNL d   1      59.209   0.657  29.620  0.00  0.00    -0.074 SA
ATOM      6  C   UNL d   1      59.611   0.388  28.953  0.00  0.00     0.030 A 
ATOM      7  C   UNL d   1      60.323   0.682  28.653  0.00  0.00     0.007 C 
ATOM      8  C   UNL d   1      59.175  -0.235  28.632  0.00  0.00     0.008 A 
ATOM      9  C   UNL d   1      58.508  -0.346  29.100  0.00  0.00     0.020 A 
ENDBRANCH   1   4
BRANCH   1  10
ATOM     10  N   UNL d   1      57.400   0.371  30.891  0.00  0.00    -0.156 NA
BRANCH  10  11
ATOM     11  C   UNL d   1      57.370  -0.165  31.515  0.00  0.00     0.112 C 
BRANCH  11  12
ATOM     12  C   UNL d   1      56.759  -0.121  32.068  0.00  0.00     0.020 A 
ATOM     13  C   UNL d   1      56.386  -0.817  32.328  0.00  0.00     0.002 A 
ATOM     14  C   UNL d   1      55.776  -0.773  32.881  0.00  0.00     0.000 A 
ATOM     15  C   UNL d   1      55.538  -0.033  33.174  0.00  0.00     0.000 A 
ATOM     16  C   UNL d   1      55.912   0.654  32.912  0.00  0.00     0.000 A 
ATOM     17  C   UNL d   1      54.927   0.011  33.727  0.00  0.00     0.000 C 
ATOM     18  C   UNL d   1      56.523   0.611  32.359  0.00  0.00     0.002 A 
ENDBRANCH  11  12
ENDBRANCH  10  11
ENDBRANCH   1  10
TORSDOF 4
ENDMDL
MODEL 2
REMARK VINA RESULT:      -5.0      1.199      4.435
REMARK  4 active torsions:
REMARK  status: ('A' for Active; 'I' for Inactive)
REMARK    1  A    between atoms: C_2  and  S_1 
REMARK    2  A    between atoms: N_5  and  S_1 
REMARK    3  A    between atoms: C_10  and  N_5 
REMARK    4  A    between atoms: C_11  and  C_10 
ROOT
ATOM      1  S   UNL d   1      56.951  -0.394  31.513  0.00  0.00     0.291 S 
ATOM      2  O   UNL d   1      56.915   0.421  31.634  0.00  0.00    -0.198 OA
ATOM      3  O   UNL d   1      56.985  -1.210  31.394  0.00  0.00    -0.198 OA
ENDROOT
BRANCH   1   4
ATOM      4  C   UNL d   1      56.463  -0.518  32.167  0.00  0.00     0.135 A 
ATOM      5  S   UNL d   1      56.134   0.059  32.644  0.00  0.00    -0.074 SA
ATOM      6  C   UNL d   1      55.687  -0.311  33.228  0.00  0.00     0.030 A 
ATOM      7  C   UNL d   1      55.257   0.059  33.831  0.00  0.00     0.007 C 
ATOM      8  C   UNL d   1      55.743  -1.126  33.110  0.00  0.00     0.008 A 
ATOM      9  C   UNL d   1      56.222  -1.255  32.454  0.00  0.00     0.020 A 
ENDBRANCH   1   4
BRANCH   1  10
ATOM     10  N   UNL d   1      57.435  -0.283  30.863  0.00  0.00    -0.156 NA
BRANCH  10  11
ATOM     11  C   UNL d   1      57.952   0.357  30.840  0.00  0.00     0.112 C 
BRANCH  11  12
ATOM     12  C   UNL d   1      58.521   0.406  30.243  0.00  0.00     0.020 A 
ATOM     13  C   UNL d   1      58.294   0.317  29.449  0.00  0.00     0.002 A 
ATOM     14  C   UNL d   1      58.863   0.366  28.853  0.00  0.00     0.000 A 
ATOM     15  C   UNL d   1      59.657   0.504  29.051  0.00  0.00     0.000 A 
ATOM     16  C   UNL d   1      59.875   0.592  29.843  0.00  0.00     0.000 A 
ATOM     17  C   UNL d   1      60.225   0.553  28.455  0.00  0.00     0.000 C 
ATOM     18  C   UNL d   1      59.307   0.543  30.439  0.00  0.00     0.002 A 
ENDBRANCH  11  12
ENDBRANCH  10  11
ENDBRANCH   1  10
TORSDOF 4
ENDMDL
MODEL 3
REMARK VINA RESULT:      -3.7      0.908      1.273
REMARK  4 active torsions:
REMARK  status: ('A' for Active; 'I' for Inactive)
REMARK    1  A    between atoms: C_2  and  S_1 
REMARK    2  A    between atoms: N_5  and  S_1 
REMARK    3  A    between atoms: C_10  and  N_5 
REMARK    4  A    between atoms: C_11  and  C_10 
ROOT
ATOM      1  S   UNL d   1      57.309   0.222  31.242  0.00  0.00     0.291 S 
ATOM      2  O   UNL d   1      57.784  -0.117  31.825  0.00  0.00    -0.198 OA
ATOM      3  O   UNL d   1      56.837   0.561  30.657  0.00  0.00    -0.198 OA
ENDROOT
BRANCH   1   4
ATOM      4  C   UNL d   1      57.904   0.104  30.683  0.00  0.00     0.135 A 
ATOM      5  S   UNL d   1      58.407   0.673  30.380  0.00  0.00    -0.074 SA
ATOM      6  C   UNL d   1      58.912   0.312  29.839  0.00  0.00     0.030 A 
ATOM      7  C   UNL d   1      59.511   0.679  29.400  0.00  0.00     0.007 C 
ATOM      8  C   UNL d   1      58.717  -0.489  29.808  0.00  0.00     0.008 A 
ATOM      9  C   UNL d   1      58.094  -0.619  30.329  0.00  0.00     0.020 A 
ENDBRANCH   1   4
BRANCH   1  10
ATOM     10  N   UNL d   1      56.713   0.345  31.788  0.00  0.00    -0.156 NA
BRANCH  10  11
ATOM     11  C   UNL d   1      56.634  -0.162  32.432  0.00  0.00     0.112 C 
BRANCH  11  12
ATOM     12  C   UNL d   1      56.120   0.030  33.047  0.00  0.00     0.020 A 
ATOM     13  C   UNL d   1      55.299   0.033  32.914  0.00  0.00     0.002 A 
ATOM     14  C   UNL d   1      54.785   0.225  33.530  0.00  0.00     0.000 A 
ATOM     15  C   UNL d   1      55.090   0.414  34.278  0.00  0.00     0.000 A 
ATOM     16  C   UNL d   1      55.906   0.409  34.405  0.00  0.00     0.000 A 
ATOM     17  C   UNL d   1      54.575   0.605  34.894  0.00  0.00     0.000 C 
ATOM     18  C   UNL d   1      56.421   0.217  33.789  0.00  0.00     0.002 A 
ENDBRANCH  11  12
ENDBRANCH  10  11
ENDBRANCH   1  10
TORSDOF 4
ENDMDL
