MODEL 1
REMARK VINA RESULT:      -8.0      0.000      0.000
REMARK  5 active torsions:
REMARK  status: ('A' for Active; 'I' for Inactive)
REMARK    1  A    between atoms: C_11  and  C_5 
REMARK    2  A    between atoms: C_25  and  N_6 
REMARK    3  A    between atoms: N_14  and  C_27 
REMARK    4  A    between atoms: C_26  and  C_25 
REMARK    5  A    between atoms: C_27  and  C_26 
ROOT
ATOM      1  C   UNL d   1      52.990  33.112  53.673  0.00  0.00     0.082 A 
ATOM      2  C   UNL d   1      53.432  32.415  53.738  0.00  0.00     0.267 A 
ATOM      3  C   UNL d   1      52.287  33.126  53.236  0.00  0.00     0.108 A 
ATOM      4  C   UNL d   1      52.818  34.503  53.988  0.00  0.00     0.113 A 
ATOM      5  C   UNL d   1      53.263  33.802  54.054  0.00  0.00     0.043 A 
ATOM      6  N   UNL d   1      53.158  31.733  53.358  0.00  0.00    -0.273 N 
ATOM      7  C   UNL d   1      52.119  34.513  53.553  0.00  0.00     0.213 A 
ATOM      8  O   UNL d   1      51.853  33.822  53.175  0.00  0.00    -0.287 OA
ATOM      9  C   UNL d   1      52.024  32.444  52.863  0.00  0.00     0.043 A 
ATOM     10  C   UNL d   1      52.455  31.747  52.921  0.00  0.00     0.069 A 
ATOM     11  C   UNL d   1      53.085  35.185  54.364  0.00  0.00     0.105 C 
ATOM     12  N   UNL d   1      53.351  35.867  54.738  0.00  0.00    -0.191 NA
ATOM     13  O   UNL d   1      54.136  32.401  54.175  0.00  0.00    -0.267 OA
ATOM     14  N   UNL d   1      51.678  35.210  53.488  0.00  0.00    -0.120 N 
ATOM     15  C   UNL d   1      52.189  31.053  52.543  0.00  0.00     0.019 C 
ENDROOT
BRANCH   5  16
ATOM     16  C   UNL d   1      53.963  33.792  54.491  0.00  0.00     0.101 A 
ATOM     17  O   UNL d   1      54.717  33.899  54.195  0.00  0.00    -0.305 OA
ATOM     18  C   UNL d   1      55.252  33.845  54.822  0.00  0.00     0.123 A 
ATOM     19  C   UNL d   1      54.817  33.704  55.509  0.00  0.00     0.029 A 
ATOM     20  C   UNL d   1      54.020  33.670  55.312  0.00  0.00     0.027 A 
ENDBRANCH   5  16
BRANCH   6  21
ATOM     21  C   UNL d   1      53.600  31.024  53.420  0.00  0.00     0.085 C 
BRANCH  21  22
ATOM     22  C   UNL d   1      53.333  30.412  53.906  0.00  0.00     0.038 C 
BRANCH  22  23
ATOM     23  C   UNL d   1      53.793  29.734  54.002  0.00  0.00     0.083 C 
BRANCH  23  24
ATOM     24  N   UNL d   1      53.575  29.155  54.550  0.00  0.00    -0.285 N 
ATOM     25  C   UNL d   1      53.567  28.343  54.425  0.00  0.00     0.183 A 
ATOM     26  N   UNL d   1      53.314  27.980  55.118  0.00  0.00    -0.222 NA
ATOM     27  C   UNL d   1      53.164  28.566  55.676  0.00  0.00     0.120 A 
ATOM     28  C   UNL d   1      53.323  29.287  55.330  0.00  0.00     0.102 A 
ENDBRANCH  23  24
ENDBRANCH  22  23
ENDBRANCH  21  22
ENDBRANCH   6  21
TORSDOF 5
ENDMDL
MODEL 2
REMARK VINA RESULT:      -6.9      1.075      2.413
REMARK  5 active torsions:
REMARK  status: ('A' for Active; 'I' for Inactive)
REMARK    1  A    between atoms: C_11  and  C_5 
REMARK    2  A    between atoms: C_25  and  N_6 
REMARK    3  A    between atoms: N_14  and  C_27 
REMARK    4  A    between atoms: C_26  and  C_25 
REMARK    5  A    between atoms: C_27  and  C_26 
ROOT
ATOM      1  C   UNL d   1      53.069  33.881  53.811  0.00  0.00     0.082 A 
ATOM      2  C   UNL d   1      53.134  33.134  53.461  0.00  0.00     0.267 A 
ATOM      3  C   UNL d   1      53.710  34.212  54.218  0.00  0.00     0.108 A 
ATOM      4  C   UNL d   1      52.284  35.048  54.104  0.00  0.00     0.113 A 
ATOM      5  C   UNL d   1      52.348  34.297  53.750  0.00  0.00     0.043 A 
ATOM      6  N   UNL d   1      53.850  32.725  53.524  0.00  0.00    -0.273 N 
ATOM      7  C   UNL d   1      52.924  35.375  54.508  0.00  0.00     0.213 A 
ATOM      8  O   UNL d   1      53.639  34.955  54.565  0.00  0.00    -0.287 OA
ATOM      9  C   UNL d   1      54.416  33.798  54.275  0.00  0.00     0.043 A 
ATOM     10  C   UNL d   1      54.491  33.057  53.931  0.00  0.00     0.069 A 
ATOM     11  C   UNL d   1      51.575  35.460  54.045  0.00  0.00     0.105 C 
ATOM     12  N   UNL d   1      50.865  35.873  53.986  0.00  0.00    -0.191 NA
ATOM     13  O   UNL d   1      52.493  32.802  53.054  0.00  0.00    -0.267 OA
ATOM     14  N   UNL d   1      52.859  36.121  54.858  0.00  0.00    -0.120 N 
ATOM     15  C   UNL d   1      55.208  32.634  53.987  0.00  0.00     0.019 C 
ENDROOT
BRANCH   5  16
ATOM     16  C   UNL d   1      51.708  33.970  53.346  0.00  0.00     0.101 A 
ATOM     17  O   UNL d   1      51.149  33.463  53.658  0.00  0.00    -0.305 OA
ATOM     18  C   UNL d   1      50.610  33.272  53.062  0.00  0.00     0.123 A 
ATOM     19  C   UNL d   1      50.845  33.669  52.377  0.00  0.00     0.029 A 
ATOM     20  C   UNL d   1      51.523  34.102  52.545  0.00  0.00     0.027 A 
ENDBRANCH   5  16
BRANCH   6  21
ATOM     21  C   UNL d   1      53.922  31.968  53.171  0.00  0.00     0.085 C 
BRANCH  21  22
ATOM     22  C   UNL d   1      53.712  31.293  53.597  0.00  0.00     0.038 C 
BRANCH  22  23
ATOM     23  C   UNL d   1      53.707  30.557  53.223  0.00  0.00     0.083 C 
BRANCH  23  24
ATOM     24  N   UNL d   1      53.382  29.898  53.601  0.00  0.00    -0.285 N 
ATOM     25  C   UNL d   1      52.686  29.512  53.397  0.00  0.00     0.183 A 
ATOM     26  N   UNL d   1      52.578  28.888  53.921  0.00  0.00    -0.222 NA
ATOM     27  C   UNL d   1      53.206  28.885  54.452  0.00  0.00     0.120 A 
ATOM     28  C   UNL d   1      53.701  29.503  54.258  0.00  0.00     0.102 A 
ENDBRANCH  23  24
ENDBRANCH  22  23
ENDBRANCH  21  22
ENDBRANCH   6  21
TORSDOF 5
ENDMDL
MODEL 3
REMARK VINA RESULT:      -6.6      2.110      4.692
REMARK  5 active torsions:
REMARK  status: ('A' for Active; 'I' for Inactive)
REMARK    1  A    between atoms: C_11  and  C_5 
REMARK    2  A    between atoms: C_25  and  N_6 
REMARK    3  A    between atoms: N_14  and  C_27 
REMARK    4  A    between atoms: C_26  and  C_25 
REMARK    5  A    between atoms: C_27  and  C_26 
ROOT
ATOM      1  C   UNL d   1      52.428  33.775  53.735  0.00  0.00     0.082 A 
ATOM      2  C   UNL d   1      51.889  34.319  53.423  0.00  0.00     0.267 A 
ATOM      3  C   UNL d   1      52.336  32.964  53.595  0.00  0.00     0.108 A 
ATOM      4  C   UNL d   1      53.608  33.504  54.509  0.00  0.00     0.113 A 
ATOM      5  C   UNL d   1      53.066  34.053  54.195  0.00  0.00     0.043 A 
ATOM      6  N   UNL d   1      51.258  34.039  52.968  0.00  0.00    -0.273 N 
ATOM      7  C   UNL d   1      53.514  32.697  54.367  0.00  0.00     0.213 A 
ATOM      8  O   UNL d   1      52.876  32.427  53.908  0.00  0.00    -0.287 OA
ATOM      9  C   UNL d   1      51.706  32.696  53.142  0.00  0.00     0.043 A 
ATOM     10  C   UNL d   1      51.166  33.228  52.827  0.00  0.00     0.069 A 
ATOM     11  C   UNL d   1      54.238  33.776  54.962  0.00  0.00     0.105 C 
ATOM     12  N   UNL d   1      54.869  34.047  55.416  0.00  0.00    -0.191 NA
ATOM     13  O   UNL d   1      51.980  35.131  53.563  0.00  0.00    -0.267 OA
ATOM     14  N   UNL d   1      54.052  32.153  54.679  0.00  0.00    -0.120 N 
ATOM     15  C   UNL d   1      50.525  32.958  52.367  0.00  0.00     0.019 C 
ENDROOT
BRANCH   5  16
ATOM     16  C   UNL d   1      53.161  34.860  54.337  0.00  0.00     0.101 A 
ATOM     17  O   UNL d   1      52.871  35.274  54.979  0.00  0.00    -0.305 OA
ATOM     18  C   UNL d   1      53.093  36.065  54.900  0.00  0.00     0.123 A 
ATOM     19  C   UNL d   1      53.524  36.134  54.199  0.00  0.00     0.029 A 
ATOM     20  C   UNL d   1      53.570  35.393  53.846  0.00  0.00     0.027 A 
ENDBRANCH   5  16
BRANCH   6  21
ATOM     21  C   UNL d   1      50.708  34.586  52.648  0.00  0.00     0.085 C 
BRANCH  21  22
ATOM     22  C   UNL d   1      49.993  34.726  53.037  0.00  0.00     0.038 C 
BRANCH  22  23
ATOM     23  C   UNL d   1      49.377  35.104  52.639  0.00  0.00     0.083 C 
BRANCH  23  24
ATOM     24  N   UNL d   1      48.783  35.494  53.060  0.00  0.00    -0.285 N 
ATOM     25  C   UNL d   1      48.812  35.720  53.849  0.00  0.00     0.183 A 
ATOM     26  N   UNL d   1      48.101  36.090  54.035  0.00  0.00    -0.222 NA
ATOM     27  C   UNL d   1      47.629  36.095  53.361  0.00  0.00     0.120 A 
ATOM     28  C   UNL d   1      48.045  35.730  52.762  0.00  0.00     0.102 A 
ENDBRANCH  23  24
ENDBRANCH  22  23
ENDBRANCH  21  22
ENDBRANCH   6  21
TORSDOF 5
ENDMDL
MODEL 4
REMARK VINA RESULT:      -5.9      1.929      4.727
REMARK  5 active torsions:
REMARK  status: ('A' for Active; 'I' for Inactive)
REMARK    1  A    between atoms: C_11  and  C_5 
REMARK    2  A    between atoms: C_25  and  N_6 
REMARK    3  A    between atoms: N_14  and  C_27 
REMARK    4  A    between atoms: C_26  and  C_25 
REMARK    5  A    between atoms: C_27  and  C_26 
ROOT
ATOM      1  C   UNL d   1      52.955  33.112  53.687  0.00  0.00     0.082 A 
ATOM      2  C   UNL d   1      52.471  33.235  53.027  0.00  0.00     0.267 A 
ATOM      3  C   UNL d   1      53.235  33.753  54.130  0.00  0.00     0.108 A 
ATOM      4  C   UNL d   1      53.647  32.209  54.565  0.00  0.00     0.113 A 
ATOM      5  C   UNL d   1      53.159  32.332  53.901  0.00  0.00     0.043 A 
ATOM      6  N   UNL d   1      52.272  34.011  52.819  0.00  0.00    -0.273 N 
ATOM      7  C   UNL d   1      53.924  32.850  55.003  0.00  0.00     0.213 A 
ATOM      8  O   UNL d   1      53.717  33.624  54.784  0.00  0.00    -0.287 OA
ATOM      9  C   UNL d   1      53.031  34.518  53.914  0.00  0.00     0.043 A 
ATOM     10  C   UNL d   1      52.551  34.652  53.262  0.00  0.00     0.069 A 
ATOM     11  C   UNL d   1      53.849  31.440  54.778  0.00  0.00     0.105 C 
ATOM     12  N   UNL d   1      54.052  30.672  54.991  0.00  0.00    -0.191 NA
ATOM     13  O   UNL d   1      52.191  32.594  52.584  0.00  0.00    -0.267 OA
ATOM     14  N   UNL d   1      54.408  32.726  55.662  0.00  0.00    -0.120 N 
ATOM     15  C   UNL d   1      52.343  35.429  53.041  0.00  0.00     0.019 C 
ENDROOT
BRANCH   5  16
ATOM     16  C   UNL d   1      52.882  31.690  53.462  0.00  0.00     0.101 A 
ATOM     17  O   UNL d   1      52.160  31.320  53.552  0.00  0.00    -0.305 OA
ATOM     18  C   UNL d   1      52.112  30.708  53.001  0.00  0.00     0.123 A 
ATOM     19  C   UNL d   1      52.815  30.705  52.569  0.00  0.00     0.029 A 
ATOM     20  C   UNL d   1      53.296  31.309  52.848  0.00  0.00     0.027 A 
ENDBRANCH   5  16
BRANCH   6  21
ATOM     21  C   UNL d   1      51.781  34.142  52.152  0.00  0.00     0.085 C 
BRANCH  21  22
ATOM     22  C   UNL d   1      50.969  34.252  52.253  0.00  0.00     0.038 C 
BRANCH  22  23
ATOM     23  C   UNL d   1      50.458  34.144  51.614  0.00  0.00     0.083 C 
BRANCH  23  24
ATOM     24  N   UNL d   1      49.688  34.443  51.639  0.00  0.00    -0.285 N 
ATOM     25  C   UNL d   1      49.293  34.721  52.304  0.00  0.00     0.183 A 
ATOM     26  N   UNL d   1      48.542  34.962  52.072  0.00  0.00    -0.222 NA
ATOM     27  C   UNL d   1      48.468  34.834  51.262  0.00  0.00     0.120 A 
ATOM     28  C   UNL d   1      49.170  34.516  50.995  0.00  0.00     0.102 A 
ENDBRANCH  23  24
ENDBRANCH  22  23
ENDBRANCH  21  22
ENDBRANCH   6  21
TORSDOF 5
ENDMDL
