MODEL 1
REMARK VINA RESULT:      48.7      0.000      0.000
REMARK  3 active torsions:
REMARK  status: ('A' for Active; 'I' for Inactive)
REMARK    1  A    between atoms: C_2  and  C_4 
REMARK    2  A    between atoms: N_3  and  C_2 
REMARK    3  A    between atoms: C_5  and  N_3 
ROOT
ATOM      1  N   UNL d   1     -51.699  24.820  33.702  0.00  0.00    -0.243 NA
ATOM      2  C   UNL d   1     -51.680  25.646  33.573  0.00  0.00     0.109 A 
ATOM      3  C   UNL d   1     -52.411  24.409  33.634  0.00  0.00     0.081 A 
ATOM      4  C   UNL d   1     -52.374  26.047  33.378  0.00  0.00     0.021 A 
ATOM      5  C   UNL d   1     -53.108  24.820  33.437  0.00  0.00     0.018 A 
ATOM      6  C   UNL d   1     -53.090  25.637  33.310  0.00  0.00     0.003 A 
ATOM      7  C   UNL d   1     -52.438  23.596  33.760  0.00  0.00     0.019 A 
ATOM      8  C   UNL d   1     -53.817  24.408  33.370  0.00  0.00     0.002 A 
ATOM      9  C   UNL d   1     -53.146  23.194  33.692  0.00  0.00     0.002 A 
ATOM     10  C   UNL d   1     -53.835  23.599  33.497  0.00  0.00     0.000 A 
ENDROOT
BRANCH   2  11
ATOM     11  C   UNL d   1     -50.964  26.056  33.642  0.00  0.00     0.153 C 
ATOM     12  S   UNL d   1     -50.268  25.729  33.339  0.00  0.00    -0.056 SA
BRANCH  11  13
ATOM     13  N   UNL d   1     -50.948  26.792  34.013  0.00  0.00    -0.233 NA
BRANCH  13  14
ATOM     14  C   UNL d   1     -50.239  27.208  34.070  0.00  0.00     0.082 A 
ATOM     15  C   UNL d   1     -50.169  27.957  33.715  0.00  0.00     0.018 A 
ATOM     16  C   UNL d   1     -50.805  28.282  33.310  0.00  0.00     0.002 C 
ATOM     17  C   UNL d   1     -49.457  28.368  33.776  0.00  0.00     0.002 A 
ATOM     18  C   UNL d   1     -48.816  28.043  34.183  0.00  0.00     0.000 A 
ATOM     19  C   UNL d   1     -48.890  27.298  34.535  0.00  0.00     0.002 A 
ATOM     20  C   UNL d   1     -49.603  26.880  34.477  0.00  0.00     0.019 A 
ENDBRANCH  13  14
ENDBRANCH  11  13
ENDBRANCH   2  11
TORSDOF 3
ENDMDL
