MODEL 1
REMARK VINA RESULT:      44.9      0.000      0.000
REMARK  3 active torsions:
REMARK  status: ('A' for Active; 'I' for Inactive)
REMARK    1  A    between atoms: C_9  and  C_4 
REMARK    2  A    between atoms: C_10  and  C_7 
REMARK    3  A    between atoms: C_11  and  C_10 
ROOT
ATOM      1  C   UNL d   1      13.424  13.785  -3.873  0.00  0.00     0.179 A 
ATOM      2  N   UNL d   1      13.245  13.342  -4.543  0.00  0.00    -0.282 N 
ATOM      3  N   UNL d   1      13.515  14.577  -4.102  0.00  0.00    -0.221 NA
ATOM      4  C   UNL d   1      13.392  14.623  -4.912  0.00  0.00     0.101 A 
ATOM      5  S   UNL d   1      13.446  13.273  -3.228  0.00  0.00    -0.048 SA
ATOM      6  C   UNL d   1      13.225  13.861  -5.189  0.00  0.00     0.101 A 
ATOM      7  C   UNL d   1      13.280  12.517  -3.500  0.00  0.00     0.050 A 
ATOM      8  C   UNL d   1      13.155  12.561  -4.319  0.00  0.00     0.089 A 
ENDROOT
BRANCH   7   9
ATOM      9  C   UNL d   1      13.244  11.834  -3.040  0.00  0.00     0.008 C 
BRANCH   9  10
ATOM     10  C   UNL d   1      13.602  11.822  -2.299  0.00  0.00     0.001 A 
ATOM     11  C   UNL d   1      14.427  11.839  -2.238  0.00  0.00     0.002 A 
ATOM     12  C   UNL d   1      14.784  11.826  -1.497  0.00  0.00     0.030 A 
ATOM     13  C   UNL d   1      14.322  11.796  -0.814  0.00  0.00     0.140 A 
ATOM     14  C   UNL d   1      13.501  11.779  -0.873  0.00  0.00     0.030 A 
ATOM     15  F   UNL d   1      14.687  11.784  -0.069  0.00  0.00    -0.204 F 
ATOM     16  C   UNL d   1      13.139  11.792  -1.616  0.00  0.00     0.002 A 
ENDBRANCH   9  10
ENDBRANCH   7   9
BRANCH   4  17
ATOM     17  C   UNL d   1      13.427  15.300  -5.372  0.00  0.00     0.019 A 
ATOM     18  C   UNL d   1      12.771  15.790  -5.438  0.00  0.00     0.002 A 
ATOM     19  C   UNL d   1      12.809  16.470  -5.900  0.00  0.00     0.000 A 
ATOM     20  C   UNL d   1      13.507  16.660  -6.300  0.00  0.00     0.000 A 
ATOM     21  C   UNL d   1      14.166  16.168  -6.234  0.00  0.00     0.000 A 
ATOM     22  C   UNL d   1      14.129  15.488  -5.772  0.00  0.00     0.002 A 
ENDBRANCH   4  17
TORSDOF 3
ENDMDL
