MODEL 1
REMARK VINA RESULT:       5.8      0.000      0.000
REMARK  5 active torsions:
REMARK  status: ('A' for Active; 'I' for Inactive)
REMARK    1  A    between atoms: C_4  and  N_1 
REMARK    2  A    between atoms: C_8  and  C_3 
REMARK    3  A    between atoms: N_7  and  C_4 
REMARK    4  A    between atoms: C_15  and  N_7 
REMARK    5  A    between atoms: C_17  and  C_15 
ROOT
ATOM      1  N   UNL d   1     -41.478-122.146 -51.528  0.00  0.00    -0.281 N 
ATOM      2  C   UNL d   1     -41.454-121.136 -52.522  0.00  0.00     0.080 A 
ATOM      3  C   UNL d   1     -41.552-121.922 -52.314  0.00  0.00     0.084 A 
ATOM      4  N   UNL d   1     -41.283-120.575 -51.948  0.00  0.00    -0.301 N 
ATOM      5  C   UNL d   1     -41.306-121.581 -50.949  0.00  0.00     0.101 A 
ATOM      6  C   UNL d   1     -41.494-120.751 -53.252  0.00  0.00     0.021 A 
ATOM      7  C   UNL d   1     -41.215-119.839 -52.316  0.00  0.00     0.080 A 
ATOM      8  C   UNL d   1     -41.209-120.794 -51.167  0.00  0.00     0.100 A 
ATOM      9  C   UNL d   1     -41.345-119.944 -53.123  0.00  0.00     0.021 A 
ENDROOT
BRANCH   1  10
ATOM     10  C   UNL d   1     -41.575-122.939 -51.307  0.00  0.00     0.184 C 
ATOM     11  S   UNL d   1     -41.128-123.515 -51.678  0.00  0.00    -0.040 SA
BRANCH  10  12
ATOM     12  N   UNL d   1     -42.113-123.144 -50.724  0.00  0.00    -0.330 N 
ATOM     13  H   UNL d   1     -42.893-122.877 -50.770  0.00  0.00     0.168 HD
BRANCH  12  14
ATOM     14  C   UNL d   1     -41.878-123.615 -50.095  0.00  0.00     0.074 C 
BRANCH  14  15
ATOM     15  C   UNL d   1     -42.334-123.649 -49.414  0.00  0.00     0.017 A 
ATOM     16  C   UNL d   1     -43.156-123.554 -49.456  0.00  0.00     0.002 A 
ATOM     17  C   UNL d   1     -43.608-123.590 -48.768  0.00  0.00     0.000 A 
ATOM     18  C   UNL d   1     -43.250-123.720 -48.033  0.00  0.00     0.000 A 
ATOM     19  C   UNL d   1     -42.425-123.815 -47.997  0.00  0.00     0.000 A 
ATOM     20  C   UNL d   1     -41.969-123.779 -48.686  0.00  0.00     0.002 A 
ENDBRANCH  14  15
ENDBRANCH  12  14
ENDBRANCH  10  12
ENDBRANCH   1  10
BRANCH   3  21
ATOM     21  C   UNL d   1     -41.724-122.487 -52.889  0.00  0.00     0.037 A 
ATOM     22  C   UNL d   1     -42.498-122.756 -52.987  0.00  0.00     0.100 A 
ATOM     23  N   UNL d   1     -42.661-123.319 -53.563  0.00  0.00    -0.242 NA
ATOM     24  C   UNL d   1     -42.074-123.616 -54.036  0.00  0.00     0.099 A 
ATOM     25  C   UNL d   1     -41.294-123.351 -53.942  0.00  0.00     0.021 A 
ATOM     26  C   UNL d   1     -41.123-122.785 -53.366  0.00  0.00     0.005 A 
ENDBRANCH   3  21
TORSDOF 5
ENDMDL
