MODEL 1
REMARK VINA RESULT:      47.4      0.000      0.000
REMARK  5 active torsions:
REMARK  status: ('A' for Active; 'I' for Inactive)
REMARK    1  A    between atoms: N_2  and  S_1 
REMARK    2  A    between atoms: C_6  and  S_1 
REMARK       I    between atoms: C_3  and  N_4 
REMARK    3  A    between atoms: C_5  and  C_3 
REMARK    4  A    between atoms: O_22  and  C_12 
REMARK    5  A    between atoms: O_26  and  C_16 
ROOT
ATOM      1  N   UNL d   1      15.179  12.943  -1.051  0.00  0.00    -0.226 N 
ATOM      2  C   UNL d   1      13.353  12.304  -2.601  0.00  0.00     0.265 C 
ATOM      3  N   UNL d   1      13.960  12.516  -2.085  0.00  0.00    -0.269 N 
ATOM      4  C   UNL d   1      14.588  12.427  -0.822  0.00  0.00     0.111 A 
ATOM      5  C   UNL d   1      15.158  13.253  -1.821  0.00  0.00     0.111 A 
ATOM      6  C   UNL d   1      14.545  13.031  -2.322  0.00  0.00     0.103 A 
ATOM      7  C   UNL d   1      13.982  12.205  -1.314  0.00  0.00     0.103 A 
ATOM      8  O   UNL d   1      12.772  11.784  -2.346  0.00  0.00    -0.267 OA
ENDROOT
BRANCH   2   9
ATOM      9  C   UNL d   1      13.332  12.606  -3.351  0.00  0.00     0.059 A 
ATOM     10  C   UNL d   1      13.339  12.103  -4.002  0.00  0.00     0.031 A 
ATOM     11  C   UNL d   1      13.318  12.402  -4.746  0.00  0.00     0.116 A 
ATOM     12  C   UNL d   1      13.289  13.217  -4.866  0.00  0.00     0.116 A 
ATOM     13  C   UNL d   1      13.282  13.721  -4.213  0.00  0.00     0.026 A 
ATOM     14  C   UNL d   1      13.303  13.422  -3.470  0.00  0.00     0.007 A 
BRANCH  11  15
ATOM     15  O   UNL d   1      13.326  11.860  -5.388  0.00  0.00    -0.326 OA
ATOM     16  C   UNL d   1      13.998  11.816  -5.891  0.00  0.00     0.181 C 
ENDBRANCH  11  15
BRANCH  12  17
ATOM     17  O   UNL d   1      13.267  13.532  -5.633  0.00  0.00    -0.326 OA
ATOM     18  C   UNL d   1      13.365  14.344  -5.619  0.00  0.00     0.181 C 
ENDBRANCH  12  17
ENDBRANCH   2   9
BRANCH   1  19
ATOM     19  S   UNL d   1      15.784  13.154  -0.536  0.00  0.00     0.271 S 
ATOM     20  O   UNL d   1      16.006  12.356  -0.451  0.00  0.00    -0.200 OA
ATOM     21  O   UNL d   1      16.393  13.381  -0.016  0.00  0.00    -0.200 OA
BRANCH  19  22
ATOM     22  C   UNL d   1      15.572  13.948  -0.613  0.00  0.00     0.104 A 
ATOM     23  C   UNL d   1      15.784  14.384  -1.285  0.00  0.00     0.014 A 
ATOM     24  C   UNL d   1      15.583  15.170  -1.375  0.00  0.00     0.012 A 
ATOM     25  C   UNL d   1      15.152  15.547  -0.777  0.00  0.00     0.058 A 
ATOM     26  C   UNL d   1      14.930  15.131  -0.099  0.00  0.00     0.012 A 
ATOM     27 CL   UNL d   1      14.941  16.341  -0.854  0.00  0.00    -0.082 Cl
ATOM     28  C   UNL d   1      15.141  14.325  -0.015  0.00  0.00     0.014 A 
ENDBRANCH  19  22
ENDBRANCH   1  19
TORSDOF 5
ENDMDL
