MODEL 1
REMARK VINA RESULT:      45.3      0.000      0.000
REMARK  4 active torsions:
REMARK  status: ('A' for Active; 'I' for Inactive)
REMARK    1  A    between atoms: N_7  and  S_1 
REMARK    2  A    between atoms: C_8  and  S_1 
REMARK    3  A    between atoms: C_16  and  N_7 
REMARK    4  A    between atoms: C_15  and  C_16 
ROOT
ATOM      1  C   UNL d   1      60.044  49.558  49.622  0.00  0.00     0.112 C 
ENDROOT
BRANCH   1   2
ATOM      2  C   UNL d   1      59.222  49.567  49.666  0.00  0.00     0.020 A 
ATOM      3  C   UNL d   1      58.842  49.496  50.401  0.00  0.00     0.003 A 
ATOM      4  C   UNL d   1      58.016  49.507  50.438  0.00  0.00     0.018 A 
ATOM      5  C   UNL d   1      57.492  49.449  51.074  0.00  0.00     0.019 A 
ATOM      6  C   UNL d   1      57.566  49.586  49.750  0.00  0.00     0.064 A 
ATOM      7  C   UNL d   1      56.727  49.493  50.779  0.00  0.00     0.064 A 
ATOM      8  C   UNL d   1      56.035  49.457  51.227  0.00  0.00     0.019 C 
ATOM      9  N   UNL d   1      56.774  49.578  49.962  0.00  0.00    -0.304 N 
ATOM     10  C   UNL d   1      56.129  49.642  49.447  0.00  0.00     0.099 C 
ATOM     11  C   UNL d   1      57.939  49.656  49.020  0.00  0.00     0.018 A 
ATOM     12  C   UNL d   1      58.768  49.648  48.971  0.00  0.00     0.003 A 
ENDBRANCH   1   2
BRANCH   1  13
ATOM     13  N   UNL d   1      60.480  49.033  50.084  0.00  0.00    -0.157 NA
BRANCH  13  14
ATOM     14  S   UNL d   1      61.115  49.303  50.533  0.00  0.00     0.285 S 
ATOM     15  O   UNL d   1      61.851  49.581  50.789  0.00  0.00    -0.198 OA
ATOM     16  O   UNL d   1      61.395  49.291  49.751  0.00  0.00    -0.198 OA
BRANCH  14  17
ATOM     17  C   UNL d   1      61.042  49.387  51.344  0.00  0.00     0.105 A 
ATOM     18  C   UNL d   1      61.696  49.620  51.790  0.00  0.00     0.013 A 
ATOM     19  C   UNL d   1      61.625  49.707  52.613  0.00  0.00     0.001 A 
ATOM     20  C   UNL d   1      60.901  49.560  52.980  0.00  0.00     0.000 A 
ATOM     21  C   UNL d   1      60.245  49.325  52.524  0.00  0.00     0.001 A 
ATOM     22  C   UNL d   1      60.826  49.644  53.796  0.00  0.00     0.000 C 
ATOM     23  C   UNL d   1      60.323  49.241  51.712  0.00  0.00     0.013 A 
ENDBRANCH  14  17
ENDBRANCH  13  14
ENDBRANCH   1  13
TORSDOF 4
ENDMDL
