MODEL 1
REMARK VINA RESULT:      -5.2      0.000      0.000
REMARK  2 active torsions:
REMARK  status: ('A' for Active; 'I' for Inactive)
REMARK    1  A    between atoms: C_6  and  N_1 
REMARK    2  A    between atoms: C_11  and  C_6 
ROOT
ATOM      1  N   UNL d   1     -41.128-122.621 -53.331  0.00  0.00    -0.251 N 
ATOM      2  C   UNL d   1     -41.133-123.444 -53.447  0.00  0.00     0.378 A 
ATOM      3  C   UNL d   1     -41.130-122.486 -52.513  0.00  0.00     0.092 A 
ATOM      4  O   UNL d   1     -41.138-123.818 -52.710  0.00  0.00    -0.258 OA
ATOM      5  C   UNL d   1     -41.136-123.222 -52.125  0.00  0.00     0.121 A 
ATOM      6  O   UNL d   1     -41.134-123.817 -54.181  0.00  0.00    -0.237 OA
ATOM      7  C   UNL d   1     -41.127-121.789 -52.072  0.00  0.00     0.020 A 
ATOM      8  C   UNL d   1     -41.139-123.252 -51.301  0.00  0.00     0.026 A 
ATOM      9  C   UNL d   1     -41.129-121.829 -51.248  0.00  0.00     0.002 A 
ATOM     10  C   UNL d   1     -41.135-122.557 -50.864  0.00  0.00     0.002 A 
ATOM     11  C   UNL d   1     -41.126-121.122 -50.807  0.00  0.00     0.000 C 
ENDROOT
BRANCH   1  12
ATOM     12  C   UNL d   1     -41.123-122.014 -53.890  0.00  0.00     0.085 C 
BRANCH  12  13
ATOM     13  C   UNL d   1     -41.698-121.993 -54.476  0.00  0.00     0.018 A 
ATOM     14  C   UNL d   1     -42.475-121.814 -54.280  0.00  0.00     0.002 A 
ATOM     15  C   UNL d   1     -43.051-121.795 -54.875  0.00  0.00     0.000 A 
ATOM     16  C   UNL d   1     -42.841-121.954 -55.658  0.00  0.00     0.000 A 
ATOM     17  C   UNL d   1     -42.060-122.132 -55.847  0.00  0.00     0.000 A 
ATOM     18  C   UNL d   1     -41.485-122.152 -55.257  0.00  0.00     0.002 A 
ENDBRANCH  12  13
ENDBRANCH   1  12
TORSDOF 2
ENDMDL
MODEL 2
REMARK VINA RESULT:      -4.0      1.523      3.902
REMARK  2 active torsions:
REMARK  status: ('A' for Active; 'I' for Inactive)
REMARK    1  A    between atoms: C_6  and  N_1 
REMARK    2  A    between atoms: C_11  and  C_6 
ROOT
ATOM      1  N   UNL d   1     -41.208-122.379 -51.679  0.00  0.00    -0.251 N 
ATOM      2  C   UNL d   1     -41.209-121.559 -51.541  0.00  0.00     0.378 A 
ATOM      3  C   UNL d   1     -41.310-122.495 -52.493  0.00  0.00     0.092 A 
ATOM      4  O   UNL d   1     -41.312-121.169 -52.262  0.00  0.00    -0.258 OA
ATOM      5  C   UNL d   1     -41.375-121.750 -52.858  0.00  0.00     0.121 A 
ATOM      6  O   UNL d   1     -41.123-121.204 -50.804  0.00  0.00    -0.237 OA
ATOM      7  C   UNL d   1     -41.353-123.181 -52.948  0.00  0.00     0.020 A 
ATOM      8  C   UNL d   1     -41.482-121.700 -53.674  0.00  0.00     0.026 A 
ATOM      9  C   UNL d   1     -41.460-123.121 -53.765  0.00  0.00     0.002 A 
ATOM     10  C   UNL d   1     -41.524-122.385 -54.126  0.00  0.00     0.002 A 
ATOM     11  C   UNL d   1     -41.502-123.818 -54.220  0.00  0.00     0.000 C 
ENDROOT
BRANCH   1  12
ATOM     12  C   UNL d   1     -41.123-122.999 -51.140  0.00  0.00     0.085 C 
BRANCH  12  13
ATOM     13  C   UNL d   1     -41.644-123.065 -50.507  0.00  0.00     0.018 A 
ATOM     14  C   UNL d   1     -42.434-123.238 -50.644  0.00  0.00     0.002 A 
ATOM     15  C   UNL d   1     -42.954-123.303 -50.003  0.00  0.00     0.000 A 
ATOM     16  C   UNL d   1     -42.675-123.193 -49.234  0.00  0.00     0.000 A 
ATOM     17  C   UNL d   1     -41.881-123.020 -49.104  0.00  0.00     0.000 A 
ATOM     18  C   UNL d   1     -41.362-122.955 -49.740  0.00  0.00     0.002 A 
ENDBRANCH  12  13
ENDBRANCH   1  12
TORSDOF 2
ENDMDL
MODEL 3
REMARK VINA RESULT:      -3.4      2.147      3.325
REMARK  2 active torsions:
REMARK  status: ('A' for Active; 'I' for Inactive)
REMARK    1  A    between atoms: C_6  and  N_1 
REMARK    2  A    between atoms: C_11  and  C_6 
ROOT
ATOM      1  N   UNL d   1     -42.024-122.443 -50.423  0.00  0.00    -0.251 N 
ATOM      2  C   UNL d   1     -42.793-122.207 -50.634  0.00  0.00     0.378 A 
ATOM      3  C   UNL d   1     -42.070-122.799 -49.677  0.00  0.00     0.092 A 
ATOM      4  O   UNL d   1     -43.312-122.414 -50.025  0.00  0.00    -0.258 OA
ATOM      5  C   UNL d   1     -42.864-122.784 -49.426  0.00  0.00     0.121 A 
ATOM      6  O   UNL d   1     -42.995-121.829 -51.337  0.00  0.00    -0.237 OA
ATOM      7  C   UNL d   1     -41.493-123.135 -49.193  0.00  0.00     0.020 A 
ATOM      8  C   UNL d   1     -43.070-123.105 -48.695  0.00  0.00     0.026 A 
ATOM      9  C   UNL d   1     -41.709-123.454 -48.462  0.00  0.00     0.002 A 
ATOM     10  C   UNL d   1     -42.494-123.439 -48.215  0.00  0.00     0.002 A 
ATOM     11  C   UNL d   1     -41.122-123.792 -47.978  0.00  0.00     0.000 C 
ENDROOT
BRANCH   1  12
ATOM     12  C   UNL d   1     -41.318-122.360 -50.843  0.00  0.00     0.085 C 
BRANCH  12  13
ATOM     13  C   UNL d   1     -41.253-122.677 -51.599  0.00  0.00     0.018 A 
ATOM     14  C   UNL d   1     -41.188-123.489 -51.699  0.00  0.00     0.002 A 
ATOM     15  C   UNL d   1     -41.123-123.801 -52.463  0.00  0.00     0.000 A 
ATOM     16  C   UNL d   1     -41.123-123.297 -53.116  0.00  0.00     0.000 A 
ATOM     17  C   UNL d   1     -41.189-122.483 -53.009  0.00  0.00     0.000 A 
ATOM     18  C   UNL d   1     -41.254-122.170 -52.250  0.00  0.00     0.002 A 
ENDBRANCH  12  13
ENDBRANCH   1  12
TORSDOF 2
ENDMDL
