MODEL 1
REMARK VINA RESULT:      62.6      0.000      0.000
REMARK  7 active torsions:
REMARK  status: ('A' for Active; 'I' for Inactive)
REMARK    1  A    between atoms: C_6  and  C_1 
REMARK    2  A    between atoms: C_14  and  C_5 
REMARK    3  A    between atoms: O_19  and  C_7 
REMARK    4  A    between atoms: O_20  and  C_8 
REMARK    5  A    between atoms: O_21  and  C_9 
REMARK    6  A    between atoms: O_17  and  C_14 
REMARK    7  A    between atoms: C_18  and  O_17 
ROOT
ATOM      1  C   UNL d   1     -55.597-101.259 -42.911  0.00  0.00     0.205 A 
ATOM      2  N   UNL d   1     -54.809-101.516 -42.933  0.00  0.00    -0.121 NA
ATOM      3  O   UNL d   1     -56.012-101.729 -42.371  0.00  0.00    -0.267 OA
ATOM      4  N   UNL d   1     -54.733-102.150 -42.403  0.00  0.00    -0.119 NA
ATOM      5  C   UNL d   1     -55.477-102.280 -42.057  0.00  0.00     0.230 A 
ENDROOT
BRANCH   1   6
ATOM      6  C   UNL d   1     -55.906-100.633 -43.360  0.00  0.00     0.047 A 
ATOM      7  C   UNL d   1     -56.647-100.316 -43.182  0.00  0.00     0.030 A 
ATOM      8  C   UNL d   1     -56.944 -99.701 -43.628  0.00  0.00     0.118 A 
ATOM      9  C   UNL d   1     -56.510 -99.389 -44.262  0.00  0.00     0.138 A 
ATOM     10  C   UNL d   1     -55.772 -99.708 -44.436  0.00  0.00     0.118 A 
ATOM     11  C   UNL d   1     -55.462-100.334 -43.986  0.00  0.00     0.030 A 
BRANCH   8  12
ATOM     12  O   UNL d   1     -57.689 -99.387 -43.444  0.00  0.00    -0.326 OA
ATOM     13  C   UNL d   1     -58.261 -99.288 -44.034  0.00  0.00     0.181 C 
ENDBRANCH   8  12
BRANCH   9  14
ATOM     14  O   UNL d   1     -56.822 -98.767 -44.706  0.00  0.00    -0.324 OA
ATOM     15  C   UNL d   1     -56.833 -98.807 -45.534  0.00  0.00     0.182 C 
ENDBRANCH   9  14
BRANCH  10  16
ATOM     16  O   UNL d   1     -55.336 -99.397 -45.070  0.00  0.00    -0.326 OA
ATOM     17  C   UNL d   1     -54.840 -98.755 -44.951  0.00  0.00     0.181 C 
ENDBRANCH  10  16
ENDBRANCH   1   6
BRANCH   5  18
ATOM     18  C   UNL d   1     -55.662-102.859 -41.493  0.00  0.00     0.169 C 
BRANCH  18  19
ATOM     19  O   UNL d   1     -56.139-102.673 -40.847  0.00  0.00    -0.301 OA
BRANCH  19  20
ATOM     20  C   UNL d   1     -55.830-102.725 -40.082  0.00  0.00     0.100 A 
ATOM     21  C   UNL d   1     -56.336-102.691 -39.431  0.00  0.00     0.025 A 
ATOM     22  C   UNL d   1     -56.031-102.742 -38.672  0.00  0.00     0.002 A 
ATOM     23  C   UNL d   1     -56.533-102.710 -38.012  0.00  0.00     0.000 A 
ATOM     24  C   UNL d   1     -55.221-102.827 -38.556  0.00  0.00     0.000 A 
ATOM     25  C   UNL d   1     -56.220-102.761 -37.251  0.00  0.00     0.000 A 
ATOM     26  C   UNL d   1     -55.407-102.846 -37.142  0.00  0.00     0.000 A 
ATOM     27  C   UNL d   1     -54.903-102.879 -37.798  0.00  0.00     0.000 A 
ATOM     28  C   UNL d   1     -54.713-102.861 -39.205  0.00  0.00     0.002 A 
ATOM     29  C   UNL d   1     -55.022-102.809 -39.979  0.00  0.00     0.025 A 
ENDBRANCH  19  20
ENDBRANCH  18  19
ENDBRANCH   5  18
TORSDOF 7
ENDMDL
MODEL 2
REMARK VINA RESULT:      64.4      1.263      1.933
REMARK  7 active torsions:
REMARK  status: ('A' for Active; 'I' for Inactive)
REMARK    1  A    between atoms: C_6  and  C_1 
REMARK    2  A    between atoms: C_14  and  C_5 
REMARK    3  A    between atoms: O_19  and  C_7 
REMARK    4  A    between atoms: O_20  and  C_8 
REMARK    5  A    between atoms: O_21  and  C_9 
REMARK    6  A    between atoms: O_17  and  C_14 
REMARK    7  A    between atoms: C_18  and  O_17 
ROOT
ATOM      1  C   UNL d   1     -56.274-100.078 -43.757  0.00  0.00     0.205 A 
ATOM      2  N   UNL d   1     -55.638-100.408 -44.174  0.00  0.00    -0.121 NA
ATOM      3  O   UNL d   1     -56.114-100.134 -42.947  0.00  0.00    -0.267 OA
ATOM      4  N   UNL d   1     -55.078-100.670 -43.621  0.00  0.00    -0.119 NA
ATOM      5  C   UNL d   1     -55.374-100.500 -42.863  0.00  0.00     0.230 A 
ENDROOT
BRANCH   1   6
ATOM      6  C   UNL d   1     -56.953 -99.750 -44.104  0.00  0.00     0.047 A 
ATOM      7  C   UNL d   1     -57.672 -99.750 -43.700  0.00  0.00     0.030 A 
ATOM      8  C   UNL d   1     -58.335 -99.426 -44.048  0.00  0.00     0.118 A 
ATOM      9  C   UNL d   1     -58.295 -99.095 -44.807  0.00  0.00     0.138 A 
ATOM     10  C   UNL d   1     -57.577 -99.097 -45.207  0.00  0.00     0.118 A 
ATOM     11  C   UNL d   1     -56.897 -99.425 -44.859  0.00  0.00     0.030 A 
BRANCH   8  12
ATOM     12  O   UNL d   1     -59.054 -99.429 -43.635  0.00  0.00    -0.326 OA
ATOM     13  C   UNL d   1     -59.125 -99.034 -42.911  0.00  0.00     0.181 C 
ENDBRANCH   8  12
BRANCH   9  14
ATOM     14  O   UNL d   1     -58.973 -98.770 -45.148  0.00  0.00    -0.324 OA
ATOM     15  C   UNL d   1     -59.655 -99.230 -45.246  0.00  0.00     0.182 C 
ENDBRANCH   9  14
BRANCH  10  16
ATOM     16  O   UNL d   1     -57.535 -98.766 -45.966  0.00  0.00    -0.326 OA
ATOM     17  C   UNL d   1     -56.892 -98.926 -46.449  0.00  0.00     0.181 C 
ENDBRANCH  10  16
ENDBRANCH   1   6
BRANCH   5  18
ATOM     18  C   UNL d   1     -55.000-100.664 -42.141  0.00  0.00     0.169 C 
BRANCH  18  19
ATOM     19  O   UNL d   1     -54.719-101.423 -41.983  0.00  0.00    -0.301 OA
BRANCH  19  20
ATOM     20  C   UNL d   1     -54.786-101.733 -41.220  0.00  0.00     0.100 A 
ATOM     21  C   UNL d   1     -54.720-101.235 -40.565  0.00  0.00     0.025 A 
ATOM     22  C   UNL d   1     -54.787-101.543 -39.809  0.00  0.00     0.002 A 
ATOM     23  C   UNL d   1     -54.721-101.049 -39.146  0.00  0.00     0.000 A 
ATOM     24  C   UNL d   1     -54.920-102.347 -39.698  0.00  0.00     0.000 A 
ATOM     25  C   UNL d   1     -54.789-101.364 -38.386  0.00  0.00     0.000 A 
ATOM     26  C   UNL d   1     -54.923-102.171 -38.283  0.00  0.00     0.000 A 
ATOM     27  C   UNL d   1     -54.989-102.667 -38.943  0.00  0.00     0.000 A 
ATOM     28  C   UNL d   1     -54.987-102.847 -40.351  0.00  0.00     0.002 A 
ATOM     29  C   UNL d   1     -54.919-102.536 -41.123  0.00  0.00     0.025 A 
ENDBRANCH  19  20
ENDBRANCH  18  19
ENDBRANCH   5  18
TORSDOF 7
ENDMDL
