MODEL 1
REMARK VINA RESULT:      -9.0      0.000      0.000
REMARK  8 active torsions:
REMARK  status: ('A' for Active; 'I' for Inactive)
REMARK    1  A    between atoms: C_7  and  N_1 
REMARK    2  A    between atoms: C_2  and  C_5 
REMARK    3  A    between atoms: C_9  and  C_4 
REMARK       I    between atoms: N_20  and  C_9 
REMARK    4  A    between atoms: O_25  and  C_14 
REMARK    5  A    between atoms: O_26  and  C_16 
REMARK    6  A    between atoms: C_27  and  N_20 
REMARK    7  A    between atoms: C_23  and  C_28 
REMARK    8  A    between atoms: C_28  and  C_27 
ROOT
ATOM      1  C   UNL d   1      52.042  34.111  53.170  0.00  0.00     0.101 A 
ATOM      2  O   UNL d   1      51.251  34.197  53.387  0.00  0.00    -0.302 OA
ATOM      3  C   UNL d   1      50.820  34.349  52.704  0.00  0.00     0.158 A 
ATOM      4  C   UNL d   1      52.105  34.207  52.361  0.00  0.00     0.027 A 
ATOM      5  C   UNL d   1      51.341  34.357  52.064  0.00  0.00     0.032 A 
ENDROOT
BRANCH   3   6
ATOM      6  C   UNL d   1      50.005  34.473  52.660  0.00  0.00     0.302 C 
ATOM      7  O   UNL d   1      49.520  33.916  52.302  0.00  0.00    -0.263 OA
ATOM      8  N   UNL d   1      49.680  35.160  52.979  0.00  0.00    -0.205 NA
BRANCH   8   9
ATOM      9  C   UNL d   1      48.863  35.285  52.936  0.00  0.00     0.102 C 
BRANCH   9  10
ATOM     10  C   UNL d   1      48.529  35.964  53.262  0.00  0.00     0.021 C 
BRANCH  10  11
ATOM     11  C   UNL d   1      47.735  36.126  53.150  0.00  0.00     0.004 A 
ATOM     12  C   UNL d   1      47.233  36.158  53.800  0.00  0.00     0.026 A 
ATOM     13  C   UNL d   1      46.432  36.321  53.688  0.00  0.00     0.116 A 
ATOM     14  C   UNL d   1      46.137  36.452  52.925  0.00  0.00     0.116 A 
ATOM     15  C   UNL d   1      46.644  36.419  52.278  0.00  0.00     0.026 A 
ATOM     16  C   UNL d   1      47.445  36.255  52.391  0.00  0.00     0.002 A 
BRANCH  13  17
ATOM     17  O   UNL d   1      45.920  36.355  54.338  0.00  0.00    -0.326 OA
ATOM     18  C   UNL d   1      46.231  36.483  55.094  0.00  0.00     0.181 C 
ENDBRANCH  13  17
BRANCH  14  19
ATOM     19  O   UNL d   1      45.339  36.614  52.815  0.00  0.00    -0.326 OA
ATOM     20  C   UNL d   1      45.034  36.684  52.054  0.00  0.00     0.181 C 
ENDBRANCH  14  19
ENDBRANCH  10  11
ENDBRANCH   9  10
ENDBRANCH   8   9
ENDBRANCH   3   6
BRANCH   1  21
ATOM     21  C   UNL d   1      52.661  33.953  53.691  0.00  0.00     0.034 A 
ATOM     22  C   UNL d   1      52.965  34.547  54.181  0.00  0.00     0.004 A 
ATOM     23  C   UNL d   1      53.585  34.376  54.698  0.00  0.00     0.024 A 
ATOM     24  C   UNL d   1      53.900  33.620  54.728  0.00  0.00     0.128 A 
ATOM     25  C   UNL d   1      53.596  33.025  54.238  0.00  0.00     0.035 A 
ATOM     26  C   UNL d   1      52.978  33.189  53.720  0.00  0.00     0.061 A 
ATOM     27 CL   UNL d   1      52.682  32.595  53.238  0.00  0.00    -0.082 Cl
BRANCH  24  28
ATOM     28  N   UNL d   1      54.521  33.447  55.246  0.00  0.00    -0.114 N 
ATOM     29  O   UNL d   1      55.204  33.908  55.248  0.00  0.00    -0.532 OA
ATOM     30  O   UNL d   1      54.456  32.809  55.763  0.00  0.00    -0.532 OA
ENDBRANCH  24  28
ENDBRANCH   1  21
TORSDOF 8
ENDMDL
MODEL 2
REMARK VINA RESULT:      -8.1      1.747      2.180
REMARK  8 active torsions:
REMARK  status: ('A' for Active; 'I' for Inactive)
REMARK    1  A    between atoms: C_7  and  N_1 
REMARK    2  A    between atoms: C_2  and  C_5 
REMARK    3  A    between atoms: C_9  and  C_4 
REMARK       I    between atoms: N_20  and  C_9 
REMARK    4  A    between atoms: O_25  and  C_14 
REMARK    5  A    between atoms: O_26  and  C_16 
REMARK    6  A    between atoms: C_27  and  N_20 
REMARK    7  A    between atoms: C_23  and  C_28 
REMARK    8  A    between atoms: C_28  and  C_27 
ROOT
ATOM      1  C   UNL d   1      52.517  32.799  53.109  0.00  0.00     0.101 A 
ATOM      2  O   UNL d   1      51.780  32.971  52.781  0.00  0.00    -0.302 OA
ATOM      3  C   UNL d   1      51.722  33.788  52.716  0.00  0.00     0.158 A 
ATOM      4  C   UNL d   1      52.915  33.498  53.247  0.00  0.00     0.027 A 
ATOM      5  C   UNL d   1      52.421  34.123  53.002  0.00  0.00     0.032 A 
ENDROOT
BRANCH   3   6
ATOM      6  C   UNL d   1      51.077  34.207  52.416  0.00  0.00     0.302 C 
ATOM      7  O   UNL d   1      51.059  34.429  51.625  0.00  0.00    -0.263 OA
ATOM      8  N   UNL d   1      50.451  34.403  52.915  0.00  0.00    -0.205 NA
BRANCH   8   9
ATOM      9  C   UNL d   1      49.804  34.823  52.614  0.00  0.00     0.102 C 
BRANCH   9  10
ATOM     10  C   UNL d   1      49.306  35.237  53.123  0.00  0.00     0.021 C 
BRANCH  10  11
ATOM     11  C   UNL d   1      48.579  35.505  52.860  0.00  0.00     0.004 A 
ATOM     12  C   UNL d   1      48.091  35.922  53.372  0.00  0.00     0.026 A 
ATOM     13  C   UNL d   1      47.358  36.193  53.106  0.00  0.00     0.116 A 
ATOM     14  C   UNL d   1      47.118  36.044  52.329  0.00  0.00     0.116 A 
ATOM     15  C   UNL d   1      47.610  35.627  51.819  0.00  0.00     0.026 A 
ATOM     16  C   UNL d   1      48.343  35.356  52.086  0.00  0.00     0.002 A 
BRANCH  13  17
ATOM     17  O   UNL d   1      46.861  36.614  53.619  0.00  0.00    -0.326 OA
ATOM     18  C   UNL d   1      47.080  36.709  54.410  0.00  0.00     0.181 C 
ENDBRANCH  13  17
BRANCH  14  19
ATOM     19  O   UNL d   1      46.388  36.315  52.066  0.00  0.00    -0.326 OA
ATOM     20  C   UNL d   1      46.051  35.995  51.387  0.00  0.00     0.181 C 
ENDBRANCH  14  19
ENDBRANCH  10  11
ENDBRANCH   9  10
ENDBRANCH   8   9
ENDBRANCH   3   6
BRANCH   1  21
ATOM     21  C   UNL d   1      52.799  32.039  53.268  0.00  0.00     0.034 A 
ATOM     22  C   UNL d   1      52.533  31.389  52.830  0.00  0.00     0.004 A 
ATOM     23  C   UNL d   1      52.822  30.635  52.999  0.00  0.00     0.024 A 
ATOM     24  C   UNL d   1      53.371  30.529  53.599  0.00  0.00     0.128 A 
ATOM     25  C   UNL d   1      53.636  31.179  54.037  0.00  0.00     0.035 A 
ATOM     26  C   UNL d   1      53.352  31.933  53.874  0.00  0.00     0.061 A 
ATOM     27 CL   UNL d   1      53.619  32.573  54.311  0.00  0.00    -0.082 Cl
BRANCH  24  28
ATOM     28  N   UNL d   1      53.661  29.773  53.770  0.00  0.00    -0.114 N 
ATOM     29  O   UNL d   1      53.204  29.236  54.195  0.00  0.00    -0.532 OA
ATOM     30  O   UNL d   1      54.414  29.557  53.512  0.00  0.00    -0.532 OA
ENDBRANCH  24  28
ENDBRANCH   1  21
TORSDOF 8
ENDMDL
MODEL 3
REMARK VINA RESULT:      -7.1      1.931      7.093
REMARK  8 active torsions:
REMARK  status: ('A' for Active; 'I' for Inactive)
REMARK    1  A    between atoms: C_7  and  N_1 
REMARK    2  A    between atoms: C_2  and  C_5 
REMARK    3  A    between atoms: C_9  and  C_4 
REMARK       I    between atoms: N_20  and  C_9 
REMARK    4  A    between atoms: O_25  and  C_14 
REMARK    5  A    between atoms: O_26  and  C_16 
REMARK    6  A    between atoms: C_27  and  N_20 
REMARK    7  A    between atoms: C_23  and  C_28 
REMARK    8  A    between atoms: C_28  and  C_27 
ROOT
ATOM      1  C   UNL d   1      47.955  35.270  51.749  0.00  0.00     0.101 A 
ATOM      2  O   UNL d   1      48.386  35.073  52.424  0.00  0.00    -0.302 OA
ATOM      3  C   UNL d   1      49.118  34.792  52.178  0.00  0.00     0.158 A 
ATOM      4  C   UNL d   1      48.411  35.114  51.090  0.00  0.00     0.027 A 
ATOM      5  C   UNL d   1      49.142  34.814  51.353  0.00  0.00     0.032 A 
ENDROOT
BRANCH   3   6
ATOM      6  C   UNL d   1      49.729  34.531  52.668  0.00  0.00     0.302 C 
ATOM      7  O   UNL d   1      49.600  34.432  53.473  0.00  0.00    -0.263 OA
ATOM      8  N   UNL d   1      50.470  34.370  52.345  0.00  0.00    -0.205 NA
BRANCH   8   9
ATOM      9  C   UNL d   1      51.082  34.108  52.837  0.00  0.00     0.102 C 
BRANCH   9  10
ATOM     10  C   UNL d   1      51.852  34.056  52.548  0.00  0.00     0.021 C 
BRANCH  10  11
ATOM     11  C   UNL d   1      52.447  33.748  53.018  0.00  0.00     0.004 A 
ATOM     12  C   UNL d   1      52.617  32.945  52.981  0.00  0.00     0.026 A 
ATOM     13  C   UNL d   1      53.217  32.633  53.454  0.00  0.00     0.116 A 
ATOM     14  C   UNL d   1      53.644  33.128  53.962  0.00  0.00     0.116 A 
ATOM     15  C   UNL d   1      53.470  33.931  53.995  0.00  0.00     0.026 A 
ATOM     16  C   UNL d   1      52.870  34.242  53.522  0.00  0.00     0.002 A 
BRANCH  13  17
ATOM     17  O   UNL d   1      53.394  31.824  53.422  0.00  0.00    -0.326 OA
ATOM     18  C   UNL d   1      52.917  31.322  52.969  0.00  0.00     0.181 C 
ENDBRANCH  13  17
BRANCH  14  19
ATOM     19  O   UNL d   1      54.241  32.816  54.433  0.00  0.00    -0.326 OA
ATOM     20  C   UNL d   1      54.576  33.273  55.030  0.00  0.00     0.181 C 
ENDBRANCH  14  19
ENDBRANCH  10  11
ENDBRANCH   9  10
ENDBRANCH   8   9
ENDBRANCH   3   6
BRANCH   1  21
ATOM     21  C   UNL d   1      47.188  35.574  51.750  0.00  0.00     0.034 A 
ATOM     22  C   UNL d   1      46.569  35.164  51.383  0.00  0.00     0.004 A 
ATOM     23  C   UNL d   1      45.807  35.480  51.391  0.00  0.00     0.024 A 
ATOM     24  C   UNL d   1      45.661  36.197  51.761  0.00  0.00     0.128 A 
ATOM     25  C   UNL d   1      46.280  36.607  52.128  0.00  0.00     0.035 A 
ATOM     26  C   UNL d   1      47.042  36.298  52.123  0.00  0.00     0.061 A 
ATOM     27 CL   UNL d   1      47.650  36.709  52.489  0.00  0.00    -0.082 Cl
BRANCH  24  28
ATOM     28  N   UNL d   1      44.897  36.514  51.770  0.00  0.00    -0.114 N 
ATOM     29  O   UNL d   1      44.504  36.637  52.483  0.00  0.00    -0.532 OA
ATOM     30  O   UNL d   1      44.527  36.709  51.059  0.00  0.00    -0.532 OA
ENDBRANCH  24  28
ENDBRANCH   1  21
TORSDOF 8
ENDMDL
MODEL 4
REMARK VINA RESULT:      -6.6      2.045      6.613
REMARK  8 active torsions:
REMARK  status: ('A' for Active; 'I' for Inactive)
REMARK    1  A    between atoms: C_7  and  N_1 
REMARK    2  A    between atoms: C_2  and  C_5 
REMARK    3  A    between atoms: C_9  and  C_4 
REMARK       I    between atoms: N_20  and  C_9 
REMARK    4  A    between atoms: O_25  and  C_14 
REMARK    5  A    between atoms: O_26  and  C_16 
REMARK    6  A    between atoms: C_27  and  N_20 
REMARK    7  A    between atoms: C_23  and  C_28 
REMARK    8  A    between atoms: C_28  and  C_27 
ROOT
ATOM      1  C   UNL d   1      47.481  36.016  53.223  0.00  0.00     0.101 A 
ATOM      2  O   UNL d   1      48.025  35.396  53.233  0.00  0.00    -0.302 OA
ATOM      3  C   UNL d   1      48.474  35.448  52.546  0.00  0.00     0.158 A 
ATOM      4  C   UNL d   1      47.588  36.450  52.539  0.00  0.00     0.027 A 
ATOM      5  C   UNL d   1      48.210  36.098  52.111  0.00  0.00     0.032 A 
ENDROOT
BRANCH   3   6
ATOM      6  C   UNL d   1      49.086  34.940  52.326  0.00  0.00     0.302 C 
ATOM      7  O   UNL d   1      49.097  34.605  51.576  0.00  0.00    -0.263 OA
ATOM      8  N   UNL d   1      49.687  34.770  52.863  0.00  0.00    -0.205 NA
BRANCH   8   9
ATOM      9  C   UNL d   1      50.302  34.260  52.642  0.00  0.00     0.102 C 
BRANCH   9  10
ATOM     10  C   UNL d   1      51.083  34.522  52.654  0.00  0.00     0.021 C 
BRANCH  10  11
ATOM     11  C   UNL d   1      51.671  34.046  52.964  0.00  0.00     0.004 A 
ATOM     12  C   UNL d   1      52.106  34.308  53.609  0.00  0.00     0.026 A 
ATOM     13  C   UNL d   1      52.700  33.829  53.922  0.00  0.00     0.116 A 
ATOM     14  C   UNL d   1      52.856  33.088  53.587  0.00  0.00     0.116 A 
ATOM     15  C   UNL d   1      52.417  32.830  52.940  0.00  0.00     0.026 A 
ATOM     16  C   UNL d   1      51.823  33.310  52.628  0.00  0.00     0.002 A 
BRANCH  13  17
ATOM     17  O   UNL d   1      53.143  34.087  54.573  0.00  0.00    -0.326 OA
ATOM     18  C   UNL d   1      53.126  34.887  54.784  0.00  0.00     0.181 C 
ENDBRANCH  13  17
BRANCH  14  19
ATOM     19  O   UNL d   1      53.448  32.611  53.900  0.00  0.00    -0.326 OA
ATOM     20  C   UNL d   1      53.500  31.821  53.677  0.00  0.00     0.181 C 
ENDBRANCH  14  19
ENDBRANCH  10  11
ENDBRANCH   9  10
ENDBRANCH   8   9
ENDBRANCH   3   6
BRANCH   1  21
ATOM     21  C   UNL d   1      46.923  36.165  53.812  0.00  0.00     0.034 A 
ATOM     22  C   UNL d   1      47.144  36.530  54.522  0.00  0.00     0.004 A 
ATOM     23  C   UNL d   1      46.576  36.673  55.103  0.00  0.00     0.024 A 
ATOM     24  C   UNL d   1      45.795  36.457  54.979  0.00  0.00     0.128 A 
ATOM     25  C   UNL d   1      45.574  36.092  54.269  0.00  0.00     0.035 A 
ATOM     26  C   UNL d   1      46.135  35.946  53.685  0.00  0.00     0.061 A 
ATOM     27 CL   UNL d   1      45.909  35.585  52.985  0.00  0.00    -0.082 Cl
BRANCH  24  28
ATOM     28  N   UNL d   1      45.224  36.600  55.561  0.00  0.00    -0.114 N 
ATOM     29  O   UNL d   1      45.447  36.704  56.347  0.00  0.00    -0.532 OA
ATOM     30  O   UNL d   1      44.428  36.639  55.351  0.00  0.00    -0.532 OA
ENDBRANCH  24  28
ENDBRANCH   1  21
TORSDOF 8
ENDMDL
