MODEL 1
REMARK VINA RESULT:      75.9      0.000      0.000
REMARK  4 active torsions:
REMARK  status: ('A' for Active; 'I' for Inactive)
REMARK    1  A    between atoms: C_10  and  C_3 
REMARK       I    between atoms: N_11  and  C_10 
REMARK    2  A    between atoms: C_15  and  N_11 
REMARK    3  A    between atoms: C_17  and  C_15 
REMARK    4  A    between atoms: O_25  and  C_18 
ROOT
ATOM      1  C   UNL d   1      14.684  17.802  -5.399  0.00  0.00     0.071 A 
ATOM      2  C   UNL d   1      13.920  17.682  -5.744  0.00  0.00     0.142 A 
ATOM      3  C   UNL d   1      14.967  17.074  -5.134  0.00  0.00     0.086 A 
ATOM      4  C   UNL d   1      15.009  18.553  -5.376  0.00  0.00     0.198 A 
ATOM      5  O   UNL d   1      13.733  16.880  -5.692  0.00  0.00    -0.304 OA
ATOM      6  C   UNL d   1      14.384  16.516  -5.315  0.00  0.00     0.105 A 
ATOM      7  C   UNL d   1      13.516  18.319  -6.050  0.00  0.00     0.218 A 
ATOM      8  C   UNL d   1      14.596  19.197  -5.688  0.00  0.00     0.042 A 
ATOM      9  C   UNL d   1      13.832  19.077  -6.033  0.00  0.00     0.044 A 
ATOM     10  O   UNL d   1      15.755  18.670  -5.039  0.00  0.00    -0.286 OA
ATOM     11  O   UNL d   1      12.770  18.202  -6.387  0.00  0.00    -0.284 OA
ATOM     12  C   UNL d   1      14.435  15.708  -5.148  0.00  0.00     0.027 C 
ATOM     13  C   UNL d   1      14.921  19.939  -5.663  0.00  0.00     0.003 A 
ATOM     14  C   UNL d   1      13.429  19.705  -6.337  0.00  0.00     0.003 A 
ATOM     15  C   UNL d   1      14.508  20.597  -5.978  0.00  0.00     0.000 A 
ATOM     16  C   UNL d   1      13.744  20.478  -6.323  0.00  0.00     0.000 A 
ENDROOT
BRANCH   3  17
ATOM     17  C   UNL d   1      15.691  16.911  -4.759  0.00  0.00     0.281 C 
ATOM     18  N   UNL d   1      15.698  16.735  -3.963  0.00  0.00    -0.206 NA
ATOM     19  O   UNL d   1      16.377  16.932  -5.200  0.00  0.00    -0.265 OA
BRANCH  18  20
ATOM     20  C   UNL d   1      15.017  16.718  -3.546  0.00  0.00     0.102 C 
BRANCH  20  21
ATOM     21  C   UNL d   1      15.049  16.550  -2.739  0.00  0.00     0.019 A 
ATOM     22  C   UNL d   1      14.983  15.775  -2.474  0.00  0.00     0.004 A 
ATOM     23  C   UNL d   1      15.012  15.591  -1.681  0.00  0.00     0.024 A 
ATOM     24  C   UNL d   1      15.107  16.175  -1.130  0.00  0.00     0.094 A 
ATOM     25  C   UNL d   1      15.175  16.969  -1.387  0.00  0.00     0.024 A 
ATOM     26  C   UNL d   1      15.144  17.132  -2.184  0.00  0.00     0.004 A 
BRANCH  24  27
ATOM     27  O   UNL d   1      15.134  15.960  -0.323  0.00  0.00    -0.328 OA
ATOM     28  C   UNL d   1      14.658  15.367  -0.060  0.00  0.00     0.181 C 
ENDBRANCH  24  27
ENDBRANCH  20  21
ENDBRANCH  18  20
ENDBRANCH   3  17
TORSDOF 4
ENDMDL
