MODEL 1
REMARK VINA RESULT:      44.5      0.000      0.000
REMARK  5 active torsions:
REMARK  status: ('A' for Active; 'I' for Inactive)
REMARK    1  A    between atoms: S_8  and  C_2 
REMARK    2  A    between atoms: C_4  and  C_3 
REMARK    3  A    between atoms: C_18  and  S_8 
REMARK    4  A    between atoms: C_9  and  C_18 
REMARK       I    between atoms: N_11  and  C_9 
REMARK    5  A    between atoms: C_13  and  N_11 
ROOT
ATOM      1  C   UNL d   1      60.227  49.236  50.606  0.00  0.00     0.096 A 
ATOM      2  C   UNL d   1      59.476  49.546  50.868  0.00  0.00     0.120 A 
ATOM      3  C   UNL d   1      60.823  49.071  51.166  0.00  0.00     0.085 A 
ATOM      4  N   UNL d   1      59.363  49.673  51.675  0.00  0.00    -0.238 NA
ATOM      5  C   UNL d   1      60.373  49.098  49.817  0.00  0.00     0.103 C 
ATOM      6  N   UNL d   1      60.519  48.961  49.027  0.00  0.00    -0.191 NA
ATOM      7  C   UNL d   1      60.693  49.206  51.978  0.00  0.00     0.024 A 
ATOM      8  C   UNL d   1      59.942  49.515  52.240  0.00  0.00     0.082 A 
ATOM      9  C   UNL d   1      59.791  49.653  53.016  0.00  0.00     0.021 C 
ENDROOT
BRANCH   2  10
ATOM     10  S   UNL d   1      58.898  49.703  50.302  0.00  0.00    -0.062 SA
BRANCH  10  11
ATOM     11  C   UNL d   1      58.113  49.509  50.438  0.00  0.00     0.099 C 
BRANCH  11  12
ATOM     12  C   UNL d   1      57.631  49.293  49.800  0.00  0.00     0.281 C 
ATOM     13  N   UNL d   1      56.861  49.076  49.937  0.00  0.00    -0.238 NA
ATOM     14  O   UNL d   1      57.938  49.301  49.026  0.00  0.00    -0.265 OA
BRANCH  13  15
ATOM     15  C   UNL d   1      56.564  49.070  50.702  0.00  0.00     0.088 C 
ATOM     16  C   UNL d   1      56.256  49.059  51.482  0.00  0.00     0.025 C 
ATOM     17  C   UNL d   1      57.039  49.703  50.890  0.00  0.00     0.025 C 
ATOM     18  C   UNL d   1      56.098  48.443  50.501  0.00  0.00     0.025 C 
ENDBRANCH  13  15
ENDBRANCH  11  12
ENDBRANCH  10  11
ENDBRANCH   2  10
BRANCH   3  19
ATOM     19  C   UNL d   1      61.544  48.774  50.915  0.00  0.00     0.419 C 
ATOM     20  F   UNL d   1      62.259  48.479  50.665  0.00  0.00    -0.166 F 
ATOM     21  F   UNL d   1      61.152  48.216  50.450  0.00  0.00    -0.166 F 
ATOM     22  F   UNL d   1      61.937  49.333  51.381  0.00  0.00    -0.166 F 
ENDBRANCH   3  19
TORSDOF 5
ENDMDL
MODEL 2
REMARK VINA RESULT:      45.6      1.101      2.017
REMARK  5 active torsions:
REMARK  status: ('A' for Active; 'I' for Inactive)
REMARK    1  A    between atoms: S_8  and  C_2 
REMARK    2  A    between atoms: C_4  and  C_3 
REMARK    3  A    between atoms: C_18  and  S_8 
REMARK    4  A    between atoms: C_9  and  C_18 
REMARK       I    between atoms: N_11  and  C_9 
REMARK    5  A    between atoms: C_13  and  N_11 
ROOT
ATOM      1  C   UNL d   1      59.962  49.244  51.569  0.00  0.00     0.096 A 
ATOM      2  C   UNL d   1      59.450  49.346  50.895  0.00  0.00     0.120 A 
ATOM      3  C   UNL d   1      60.748  48.989  51.456  0.00  0.00     0.085 A 
ATOM      4  N   UNL d   1      59.752  49.187  50.144  0.00  0.00    -0.238 NA
ATOM      5  C   UNL d   1      59.697  49.391  52.324  0.00  0.00     0.103 C 
ATOM      6  N   UNL d   1      59.430  49.539  53.081  0.00  0.00    -0.191 NA
ATOM      7  C   UNL d   1      61.038  48.833  50.690  0.00  0.00     0.024 A 
ATOM      8  C   UNL d   1      60.526  48.935  50.016  0.00  0.00     0.082 A 
ATOM      9  C   UNL d   1      60.781  48.791  49.268  0.00  0.00     0.021 C 
ENDROOT
BRANCH   2  10
ATOM     10  S   UNL d   1      58.676  49.599  51.024  0.00  0.00    -0.062 SA
BRANCH  10  11
ATOM     11  C   UNL d   1      58.058  49.312  50.567  0.00  0.00     0.099 C 
BRANCH  11  12
ATOM     12  C   UNL d   1      57.335  49.132  50.928  0.00  0.00     0.281 C 
ATOM     13  N   UNL d   1      56.663  49.090  50.476  0.00  0.00    -0.238 NA
ATOM     14  O   UNL d   1      57.303  48.995  51.749  0.00  0.00    -0.265 OA
BRANCH  13  15
ATOM     15  C   UNL d   1      56.700  49.226  49.667  0.00  0.00     0.088 C 
ATOM     16  C   UNL d   1      56.733  49.369  48.841  0.00  0.00     0.025 C 
ATOM     17  C   UNL d   1      57.356  48.747  49.619  0.00  0.00     0.025 C 
ATOM     18  C   UNL d   1      56.049  49.698  49.731  0.00  0.00     0.025 C 
ENDBRANCH  13  15
ENDBRANCH  11  12
ENDBRANCH  10  11
ENDBRANCH   2  10
BRANCH   3  19
ATOM     19  C   UNL d   1      61.240  48.890  52.104  0.00  0.00     0.419 C 
ATOM     20  F   UNL d   1      61.728  48.793  52.747  0.00  0.00    -0.166 F 
ATOM     21  F   UNL d   1      61.381  49.703  52.120  0.00  0.00    -0.166 F 
ATOM     22  F   UNL d   1      61.099  48.076  52.087  0.00  0.00    -0.166 F 
ENDBRANCH   3  19
TORSDOF 5
ENDMDL
