MODEL 1
REMARK VINA RESULT:      -4.9      0.000      0.000
REMARK  2 active torsions:
REMARK  status: ('A' for Active; 'I' for Inactive)
REMARK    1  A    between atoms: C_2  and  S_1 
REMARK    2  A    between atoms: C_7  and  C_3 
ROOT
ATOM      1  C   UNL d   1      56.749  -0.066  32.092  0.00  0.00     0.117 A 
ATOM      2  C   UNL d   1      55.850   0.012  33.207  0.00  0.00     0.076 A 
ATOM      3  C   UNL d   1      56.362   0.377  32.670  0.00  0.00     0.021 A 
ATOM      4  C   UNL d   1      56.628  -0.879  32.045  0.00  0.00     0.071 A 
ATOM      5  C   UNL d   1      55.728  -0.801  33.161  0.00  0.00     0.065 A 
ATOM      6  C   UNL d   1      56.119  -1.249  32.577  0.00  0.00     0.024 A 
ATOM      7 CL   UNL d   1      55.219  -1.170  33.692  0.00  0.00    -0.082 Cl
ATOM      8 CL   UNL d   1      57.015  -1.322  31.467  0.00  0.00    -0.082 Cl
ENDROOT
BRANCH   1   9
ATOM      9  S   UNL d   1      57.260   0.307  31.559  0.00  0.00     0.303 S 
ATOM     10  O   UNL d   1      57.899   0.130  32.039  0.00  0.00    -0.197 OA
ATOM     11  O   UNL d   1      56.615   0.491  31.062  0.00  0.00    -0.197 OA
ATOM     12  N   UNL d   1      57.762   0.682  31.020  0.00  0.00    -0.043 N 
ENDBRANCH   1   9
BRANCH   2  13
ATOM     13  C   UNL d   1      55.464   0.459  33.784  0.00  0.00     0.212 C 
ATOM     14  O   UNL d   1      55.860   0.682  34.470  0.00  0.00    -0.644 OA
ATOM     15  O   UNL d   1      54.676   0.682  33.670  0.00  0.00    -0.644 OA
ENDBRANCH   2  13
TORSDOF 2
ENDMDL
MODEL 2
REMARK VINA RESULT:      -4.5      1.831      3.076
REMARK  2 active torsions:
REMARK  status: ('A' for Active; 'I' for Inactive)
REMARK    1  A    between atoms: C_2  and  S_1 
REMARK    2  A    between atoms: C_7  and  C_3 
ROOT
ATOM      1  C   UNL d   1      56.551   0.059  32.633  0.00  0.00     0.117 A 
ATOM      2  C   UNL d   1      57.380   0.059  31.462  0.00  0.00     0.076 A 
ATOM      3  C   UNL d   1      56.676  -0.148  31.844  0.00  0.00     0.021 A 
ATOM      4  C   UNL d   1      57.128   0.473  33.049  0.00  0.00     0.071 A 
ATOM      5  C   UNL d   1      57.958   0.474  31.877  0.00  0.00     0.065 A 
ATOM      6  C   UNL d   1      57.832   0.682  32.674  0.00  0.00     0.024 A 
ATOM      7 CL   UNL d   1      58.661   0.682  31.502  0.00  0.00    -0.082 Cl
ATOM      8 CL   UNL d   1      57.003   0.679  33.836  0.00  0.00    -0.082 Cl
ENDROOT
BRANCH   1   9
ATOM      9  S   UNL d   1      55.844  -0.152  33.008  0.00  0.00     0.303 S 
ATOM     10  O   UNL d   1      55.544   0.598  32.874  0.00  0.00    -0.197 OA
ATOM     11  O   UNL d   1      56.142  -0.919  33.150  0.00  0.00    -0.197 OA
ATOM     12  N   UNL d   1      55.141  -0.371  33.384  0.00  0.00    -0.043 N 
ENDBRANCH   1   9
BRANCH   2  13
ATOM     13  C   UNL d   1      57.502  -0.149  30.673  0.00  0.00     0.212 C 
ATOM     14  O   UNL d   1      57.756  -0.907  30.477  0.00  0.00    -0.644 OA
ATOM     15  O   UNL d   1      57.367   0.409  30.078  0.00  0.00    -0.644 OA
ENDBRANCH   2  13
TORSDOF 2
ENDMDL
MODEL 3
REMARK VINA RESULT:      -3.8      1.237      1.503
REMARK  2 active torsions:
REMARK  status: ('A' for Active; 'I' for Inactive)
REMARK    1  A    between atoms: C_2  and  S_1 
REMARK    2  A    between atoms: C_7  and  C_3 
ROOT
ATOM      1  C   UNL d   1      57.144   0.103  31.864  0.00  0.00     0.117 A 
ATOM      2  C   UNL d   1      56.201   0.101  32.945  0.00  0.00     0.076 A 
ATOM      3  C   UNL d   1      56.399  -0.086  32.165  0.00  0.00     0.021 A 
ATOM      4  C   UNL d   1      57.698   0.482  32.340  0.00  0.00     0.071 A 
ATOM      5  C   UNL d   1      56.755   0.480  33.423  0.00  0.00     0.065 A 
ATOM      6  C   UNL d   1      57.507   0.671  33.119  0.00  0.00     0.024 A 
ATOM      7 CL   UNL d   1      56.564   0.669  34.201  0.00  0.00    -0.082 Cl
ATOM      8 CL   UNL d   1      58.441   0.671  32.039  0.00  0.00    -0.082 Cl
ENDROOT
BRANCH   1   9
ATOM      9  S   UNL d   1      57.334  -0.088  31.081  0.00  0.00     0.303 S 
ATOM     10  O   UNL d   1      57.544  -0.845  31.311  0.00  0.00    -0.197 OA
ATOM     11  O   UNL d   1      57.122   0.682  30.837  0.00  0.00    -0.197 OA
ATOM     12  N   UNL d   1      57.521  -0.269  30.297  0.00  0.00    -0.043 N 
ENDBRANCH   1   9
BRANCH   2  13
ATOM     13  C   UNL d   1      55.456  -0.090  33.243  0.00  0.00     0.212 C 
ATOM     14  O   UNL d   1      54.897   0.499  33.375  0.00  0.00    -0.644 OA
ATOM     15  O   UNL d   1      55.272  -0.879  33.409  0.00  0.00    -0.644 OA
ENDBRANCH   2  13
TORSDOF 2
ENDMDL
MODEL 4
REMARK VINA RESULT:      -2.9      9.152      9.638
REMARK  2 active torsions:
REMARK  status: ('A' for Active; 'I' for Inactive)
REMARK    1  A    between atoms: C_2  and  S_1 
REMARK    2  A    between atoms: C_7  and  C_3 
ROOT
ATOM      1  C   UNL d   1      59.738  -9.040  34.212  0.00  0.00     0.117 A 
ATOM      2  C   UNL d   1      59.875  -8.119  35.304  0.00  0.00     0.076 A 
ATOM      3  C   UNL d   1      59.413  -8.476  34.718  0.00  0.00     0.021 A 
ATOM      4  C   UNL d   1      60.530  -9.253  34.285  0.00  0.00     0.071 A 
ATOM      5  C   UNL d   1      60.668  -8.333  35.378  0.00  0.00     0.065 A 
ATOM      6  C   UNL d   1      60.996  -8.902  34.866  0.00  0.00     0.024 A 
ATOM      7 CL   UNL d   1      61.133  -7.982  35.959  0.00  0.00    -0.082 Cl
ATOM      8 CL   UNL d   1      60.855  -9.816  33.779  0.00  0.00    -0.082 Cl
ENDROOT
BRANCH   1   9
ATOM      9  S   UNL d   1      59.268  -9.391  33.628  0.00  0.00     0.303 S 
ATOM     10  O   UNL d   1      58.867  -9.817  34.201  0.00  0.00    -0.197 OA
ATOM     11  O   UNL d   1      59.671  -8.961  33.037  0.00  0.00    -0.197 OA
ATOM     12  N   UNL d   1      58.803  -9.737  33.039  0.00  0.00    -0.043 N 
ENDBRANCH   1   9
BRANCH   2  13
ATOM     13  C   UNL d   1      59.546  -7.556  35.809  0.00  0.00     0.212 C 
ATOM     14  O   UNL d   1      59.816  -6.779  35.796  0.00  0.00    -0.644 OA
ATOM     15  O   UNL d   1      58.943  -7.777  36.330  0.00  0.00    -0.644 OA
ENDBRANCH   2  13
TORSDOF 2
ENDMDL
MODEL 5
REMARK VINA RESULT:      -2.4      3.962      4.961
REMARK  2 active torsions:
REMARK  status: ('A' for Active; 'I' for Inactive)
REMARK    1  A    between atoms: C_2  and  S_1 
REMARK    2  A    between atoms: C_7  and  C_3 
ROOT
ATOM      1  C   UNL d   1      58.685  -0.420  29.573  0.00  0.00     0.117 A 
ATOM      2  C   UNL d   1      59.042  -1.742  29.143  0.00  0.00     0.076 A 
ATOM      3  C   UNL d   1      58.515  -1.225  29.516  0.00  0.00     0.021 A 
ATOM      4  C   UNL d   1      59.384  -0.122  29.258  0.00  0.00     0.071 A 
ATOM      5  C   UNL d   1      59.743  -1.444  28.828  0.00  0.00     0.065 A 
ATOM      6  C   UNL d   1      59.915  -0.631  28.885  0.00  0.00     0.024 A 
ATOM      7 CL   UNL d   1      60.273  -1.953  28.455  0.00  0.00    -0.082 Cl
ATOM      8 CL   UNL d   1      59.554   0.682  29.315  0.00  0.00    -0.082 Cl
ENDROOT
BRANCH   1   9
ATOM      9  S   UNL d   1      58.151   0.089  29.948  0.00  0.00     0.303 S 
ATOM     10  O   UNL d   1      57.787   0.244  29.231  0.00  0.00    -0.197 OA
ATOM     11  O   UNL d   1      58.515  -0.062  30.684  0.00  0.00    -0.197 OA
ATOM     12  N   UNL d   1      57.622   0.596  30.331  0.00  0.00    -0.043 N 
ENDBRANCH   1   9
BRANCH   2  13
ATOM     13  C   UNL d   1      58.869  -2.546  29.088  0.00  0.00     0.212 C 
ATOM     14  O   UNL d   1      58.378  -2.825  28.490  0.00  0.00    -0.644 OA
ATOM     15  O   UNL d   1      59.192  -3.073  29.638  0.00  0.00    -0.644 OA
ENDBRANCH   2  13
TORSDOF 2
ENDMDL
MODEL 6
REMARK VINA RESULT:      -2.3      3.919      4.779
REMARK  2 active torsions:
REMARK  status: ('A' for Active; 'I' for Inactive)
REMARK    1  A    between atoms: C_2  and  S_1 
REMARK    2  A    between atoms: C_7  and  C_3 
ROOT
ATOM      1  C   UNL d   1      59.207  -1.778  29.113  0.00  0.00     0.117 A 
ATOM      2  C   UNL d   1      58.716  -0.513  29.581  0.00  0.00     0.076 A 
ATOM      3  C   UNL d   1      58.624  -1.330  29.487  0.00  0.00     0.021 A 
ATOM      4  C   UNL d   1      59.889  -1.414  28.829  0.00  0.00     0.071 A 
ATOM      5  C   UNL d   1      59.398  -0.148  29.297  0.00  0.00     0.065 A 
ATOM      6  C   UNL d   1      59.987  -0.600  28.919  0.00  0.00     0.024 A 
ATOM      7 CL   UNL d   1      59.496   0.664  29.387  0.00  0.00    -0.082 Cl
ATOM      8 CL   UNL d   1      60.471  -1.861  28.455  0.00  0.00    -0.082 Cl
ENDROOT
BRANCH   1   9
ATOM      9  S   UNL d   1      59.107  -2.594  29.024  0.00  0.00     0.303 S 
ATOM     10  O   UNL d   1      59.692  -2.732  29.579  0.00  0.00    -0.197 OA
ATOM     11  O   UNL d   1      58.509  -2.463  28.456  0.00  0.00    -0.197 OA
ATOM     12  N   UNL d   1      59.000  -3.408  28.927  0.00  0.00    -0.043 N 
ENDBRANCH   1   9
BRANCH   2  13
ATOM     13  C   UNL d   1      58.131  -0.069  29.956  0.00  0.00     0.212 C 
ATOM     14  O   UNL d   1      58.071  -0.068  30.777  0.00  0.00    -0.644 OA
ATOM     15  O   UNL d   1      57.603   0.378  29.502  0.00  0.00    -0.644 OA
ENDBRANCH   2  13
TORSDOF 2
ENDMDL
