MODEL 1
REMARK VINA RESULT:      -6.6      0.000      0.000
REMARK  5 active torsions:
REMARK  status: ('A' for Active; 'I' for Inactive)
REMARK    1  A    between atoms: O_8  and  C_1 
REMARK    2  A    between atoms: C_12  and  C_5 
REMARK    3  A    between atoms: C_10  and  O_8 
REMARK    4  A    between atoms: N_16  and  C_12 
REMARK    5  A    between atoms: O_19  and  C_15 
ROOT
ATOM      1  C   UNL d   1      51.171  33.913  53.266  0.00  0.00     0.161 A 
ATOM      2  C   UNL d   1      52.624  33.108  53.266  0.00  0.00     0.108 A 
ATOM      3  C   UNL d   1      51.906  32.677  53.273  0.00  0.00     0.064 A 
ATOM      4  C   UNL d   1      51.187  33.075  53.273  0.00  0.00     0.222 A 
ATOM      5  C   UNL d   1      53.351  32.706  53.266  0.00  0.00     0.079 A 
ATOM      6  O   UNL d   1      52.618  33.937  53.259  0.00  0.00    -0.305 OA
ATOM      7  C   UNL d   1      51.882  34.340  53.259  0.00  0.00     0.126 A 
ATOM      8  C   UNL d   1      51.933  31.845  53.280  0.00  0.00     0.009 A 
ATOM      9  C   UNL d   1      53.360  31.878  53.273  0.00  0.00     0.199 A 
ATOM     10  O   UNL d   1      50.477  32.654  53.280  0.00  0.00    -0.284 OA
ATOM     11  C   UNL d   1      52.655  31.451  53.280  0.00  0.00     0.042 A 
ATOM     12  O   UNL d   1      54.090  31.487  53.273  0.00  0.00    -0.286 OA
ATOM     13  C   UNL d   1      51.866  35.162  53.252  0.00  0.00     0.029 C 
ENDROOT
BRANCH   1  14
ATOM     14  O   UNL d   1      50.450  34.308  53.266  0.00  0.00    -0.300 OA
BRANCH  14  15
ATOM     15  C   UNL d   1      50.050  34.435  52.557  0.00  0.00     0.122 A 
ATOM     16  C   UNL d   1      49.348  34.862  52.552  0.00  0.00     0.117 A 
ATOM     17  C   UNL d   1      48.949  34.989  51.843  0.00  0.00     0.026 A 
ATOM     18  C   UNL d   1      49.253  34.687  51.138  0.00  0.00     0.002 A 
ATOM     19  C   UNL d   1      49.967  34.254  51.149  0.00  0.00     0.002 A 
ATOM     20  C   UNL d   1      50.359  34.131  51.855  0.00  0.00     0.027 A 
BRANCH  16  21
ATOM     21  O   UNL d   1      49.043  35.164  53.257  0.00  0.00    -0.326 OA
ATOM     22  C   UNL d   1      48.387  35.659  53.240  0.00  0.00     0.181 C 
ENDBRANCH  16  21
ENDBRANCH  14  15
ENDBRANCH   1  14
BRANCH   5  23
ATOM     23  C   UNL d   1      54.057  33.133  53.259  0.00  0.00     0.086 C 
BRANCH  23  24
ATOM     24  N   UNL d   1      54.611  33.008  53.848  0.00  0.00    -0.300 N 
ATOM     25  C   UNL d   1      55.380  32.785  53.649  0.00  0.00     0.100 C 
ATOM     26  C   UNL d   1      54.406  33.103  54.644  0.00  0.00     0.100 C 
ENDBRANCH  23  24
ENDBRANCH   5  23
TORSDOF 5
ENDMDL
MODEL 2
REMARK VINA RESULT:      -6.5      1.235      2.075
REMARK  5 active torsions:
REMARK  status: ('A' for Active; 'I' for Inactive)
REMARK    1  A    between atoms: O_8  and  C_1 
REMARK    2  A    between atoms: C_12  and  C_5 
REMARK    3  A    between atoms: C_10  and  O_8 
REMARK    4  A    between atoms: N_16  and  C_12 
REMARK    5  A    between atoms: O_19  and  C_15 
ROOT
ATOM      1  C   UNL d   1      51.208  33.985  52.802  0.00  0.00     0.161 A 
ATOM      2  C   UNL d   1      52.509  33.854  53.827  0.00  0.00     0.108 A 
ATOM      3  C   UNL d   1      52.447  34.509  53.310  0.00  0.00     0.064 A 
ATOM      4  C   UNL d   1      51.804  34.575  52.802  0.00  0.00     0.222 A 
ATOM      5  C   UNL d   1      53.159  33.789  54.340  0.00  0.00     0.079 A 
ATOM      6  O   UNL d   1      51.925  33.266  53.834  0.00  0.00    -0.305 OA
ATOM      7  C   UNL d   1      51.270  33.336  53.314  0.00  0.00     0.126 A 
ATOM      8  C   UNL d   1      53.043  35.090  53.317  0.00  0.00     0.009 A 
ATOM      9  C   UNL d   1      53.744  34.374  54.336  0.00  0.00     0.199 A 
ATOM     10  O   UNL d   1      51.739  35.219  52.290  0.00  0.00    -0.284 OA
ATOM     11  C   UNL d   1      53.686  35.021  53.827  0.00  0.00     0.042 A 
ATOM     12  O   UNL d   1      54.388  34.300  54.851  0.00  0.00    -0.286 OA
ATOM     13  C   UNL d   1      50.685  32.757  53.313  0.00  0.00     0.029 C 
ENDROOT
BRANCH   1  14
ATOM     14  O   UNL d   1      50.566  34.052  52.292  0.00  0.00    -0.300 OA
BRANCH  14  15
ATOM     15  C   UNL d   1      49.920  34.517  52.505  0.00  0.00     0.122 A 
ATOM     16  C   UNL d   1      49.329  34.676  51.955  0.00  0.00     0.117 A 
ATOM     17  C   UNL d   1      48.684  35.140  52.169  0.00  0.00     0.026 A 
ATOM     18  C   UNL d   1      48.629  35.446  52.933  0.00  0.00     0.002 A 
ATOM     19  C   UNL d   1      49.231  35.282  53.487  0.00  0.00     0.002 A 
ATOM     20  C   UNL d   1      49.870  34.821  53.271  0.00  0.00     0.027 A 
BRANCH  16  21
ATOM     21  O   UNL d   1      49.383  34.370  51.191  0.00  0.00    -0.326 OA
ATOM     22  C   UNL d   1      48.752  34.453  50.672  0.00  0.00     0.181 C 
ENDBRANCH  16  21
ENDBRANCH  14  15
ENDBRANCH   1  14
BRANCH   5  23
ATOM     23  C   UNL d   1      53.217  33.142  54.848  0.00  0.00     0.086 C 
BRANCH  23  24
ATOM     24  N   UNL d   1      53.902  32.694  54.856  0.00  0.00    -0.300 N 
ATOM     25  C   UNL d   1      54.416  32.739  55.500  0.00  0.00     0.100 C 
ATOM     26  C   UNL d   1      54.084  32.195  54.222  0.00  0.00     0.100 C 
ENDBRANCH  23  24
ENDBRANCH   5  23
TORSDOF 5
ENDMDL
MODEL 3
REMARK VINA RESULT:      -6.5      1.655      4.305
REMARK  5 active torsions:
REMARK  status: ('A' for Active; 'I' for Inactive)
REMARK    1  A    between atoms: O_8  and  C_1 
REMARK    2  A    between atoms: C_12  and  C_5 
REMARK    3  A    between atoms: C_10  and  O_8 
REMARK    4  A    between atoms: N_16  and  C_12 
REMARK    5  A    between atoms: O_19  and  C_15 
ROOT
ATOM      1  C   UNL d   1      53.114  32.093  53.072  0.00  0.00     0.161 A 
ATOM      2  C   UNL d   1      52.756  33.678  53.415  0.00  0.00     0.108 A 
ATOM      3  C   UNL d   1      52.145  33.147  53.203  0.00  0.00     0.064 A 
ATOM      4  C   UNL d   1      52.321  32.362  53.033  0.00  0.00     0.222 A 
ATOM      5  C   UNL d   1      52.577  34.471  53.587  0.00  0.00     0.079 A 
ATOM      6  O   UNL d   1      53.543  33.421  53.456  0.00  0.00    -0.305 OA
ATOM      7  C   UNL d   1      53.719  32.619  53.282  0.00  0.00     0.126 A 
ATOM      8  C   UNL d   1      51.361  33.424  53.168  0.00  0.00     0.009 A 
ATOM      9  C   UNL d   1      51.793  34.731  53.548  0.00  0.00     0.199 A 
ATOM     10  O   UNL d   1      51.722  31.835  52.823  0.00  0.00    -0.284 OA
ATOM     11  C   UNL d   1      51.188  34.210  53.339  0.00  0.00     0.042 A 
ATOM     12  O   UNL d   1      51.625  35.523  53.721  0.00  0.00    -0.286 OA
ATOM     13  C   UNL d   1      54.498  32.354  53.319  0.00  0.00     0.029 C 
ENDROOT
BRANCH   1  14
ATOM     14  O   UNL d   1      53.288  31.307  52.901  0.00  0.00    -0.300 OA
BRANCH  14  15
ATOM     15  C   UNL d   1      53.270  30.742  53.500  0.00  0.00     0.122 A 
ATOM     16  C   UNL d   1      53.112  29.956  53.318  0.00  0.00     0.117 A 
ATOM     17  C   UNL d   1      53.094  29.392  53.918  0.00  0.00     0.026 A 
ATOM     18  C   UNL d   1      53.235  29.615  54.699  0.00  0.00     0.002 A 
ATOM     19  C   UNL d   1      53.395  30.414  54.878  0.00  0.00     0.002 A 
ATOM     20  C   UNL d   1      53.411  30.971  54.280  0.00  0.00     0.027 A 
BRANCH  16  21
ATOM     21  O   UNL d   1      52.971  29.732  52.537  0.00  0.00    -0.326 OA
ATOM     22  C   UNL d   1      52.683  28.980  52.372  0.00  0.00     0.181 C 
ENDBRANCH  16  21
ENDBRANCH  14  15
ENDBRANCH   1  14
BRANCH   5  23
ATOM     23  C   UNL d   1      53.182  34.992  53.796  0.00  0.00     0.086 C 
BRANCH  23  24
ATOM     24  N   UNL d   1      53.174  35.345  54.534  0.00  0.00    -0.300 N 
ATOM     25  C   UNL d   1      53.077  36.162  54.599  0.00  0.00     0.100 C 
ATOM     26  C   UNL d   1      53.262  34.889  55.219  0.00  0.00     0.100 C 
ENDBRANCH  23  24
ENDBRANCH   5  23
TORSDOF 5
ENDMDL
MODEL 4
REMARK VINA RESULT:      -6.1      2.062      3.223
REMARK  5 active torsions:
REMARK  status: ('A' for Active; 'I' for Inactive)
REMARK    1  A    between atoms: O_8  and  C_1 
REMARK    2  A    between atoms: C_12  and  C_5 
REMARK    3  A    between atoms: C_10  and  O_8 
REMARK    4  A    between atoms: N_16  and  C_12 
REMARK    5  A    between atoms: O_19  and  C_15 
ROOT
ATOM      1  C   UNL d   1      53.332  32.481  53.519  0.00  0.00     0.161 A 
ATOM      2  C   UNL d   1      53.356  30.839  53.770  0.00  0.00     0.108 A 
ATOM      3  C   UNL d   1      53.053  31.149  53.054  0.00  0.00     0.064 A 
ATOM      4  C   UNL d   1      53.041  31.962  52.929  0.00  0.00     0.222 A 
ATOM      5  C   UNL d   1      53.368  30.018  53.896  0.00  0.00     0.079 A 
ATOM      6  O   UNL d   1      53.646  31.345  54.359  0.00  0.00    -0.305 OA
ATOM      7  C   UNL d   1      53.632  32.174  54.228  0.00  0.00     0.126 A 
ATOM      8  C   UNL d   1      52.766  30.625  52.474  0.00  0.00     0.009 A 
ATOM      9  C   UNL d   1      53.080  29.510  53.310  0.00  0.00     0.199 A 
ATOM     10  O   UNL d   1      52.743  32.271  52.224  0.00  0.00    -0.284 OA
ATOM     11  C   UNL d   1      52.780  29.812  52.603  0.00  0.00     0.042 A 
ATOM     12  O   UNL d   1      53.096  28.694  53.445  0.00  0.00    -0.286 OA
ATOM     13  C   UNL d   1      53.917  32.685  54.807  0.00  0.00     0.029 C 
ENDROOT
BRANCH   1  14
ATOM     14  O   UNL d   1      53.318  33.294  53.391  0.00  0.00    -0.300 OA
BRANCH  14  15
ATOM     15  C   UNL d   1      52.613  33.711  53.476  0.00  0.00     0.122 A 
ATOM     16  C   UNL d   1      52.626  34.533  53.521  0.00  0.00     0.117 A 
ATOM     17  C   UNL d   1      51.921  34.950  53.607  0.00  0.00     0.026 A 
ATOM     18  C   UNL d   1      51.204  34.545  53.648  0.00  0.00     0.002 A 
ATOM     19  C   UNL d   1      51.197  33.712  53.601  0.00  0.00     0.002 A 
ATOM     20  C   UNL d   1      51.898  33.302  53.517  0.00  0.00     0.027 A 
BRANCH  16  21
ATOM     21  O   UNL d   1      53.343  34.938  53.481  0.00  0.00    -0.326 OA
ATOM     22  C   UNL d   1      53.400  35.700  53.782  0.00  0.00     0.181 C 
ENDBRANCH  16  21
ENDBRANCH  14  15
ENDBRANCH   1  14
BRANCH   5  23
ATOM     23  C   UNL d   1      53.668  29.716  54.603  0.00  0.00     0.086 C 
BRANCH  23  24
ATOM     24  N   UNL d   1      53.262  29.120  54.991  0.00  0.00    -0.300 N 
ATOM     25  C   UNL d   1      53.548  28.347  54.971  0.00  0.00     0.100 C 
ATOM     26  C   UNL d   1      52.565  29.288  55.405  0.00  0.00     0.100 C 
ENDBRANCH  23  24
ENDBRANCH   5  23
TORSDOF 5
ENDMDL
MODEL 5
REMARK VINA RESULT:      -5.1      1.553      4.623
REMARK  5 active torsions:
REMARK  status: ('A' for Active; 'I' for Inactive)
REMARK    1  A    between atoms: O_8  and  C_1 
REMARK    2  A    between atoms: C_12  and  C_5 
REMARK    3  A    between atoms: C_10  and  O_8 
REMARK    4  A    between atoms: N_16  and  C_12 
REMARK    5  A    between atoms: O_19  and  C_15 
ROOT
ATOM      1  C   UNL d   1      51.626  34.009  52.807  0.00  0.00     0.161 A 
ATOM      2  C   UNL d   1      50.061  34.470  52.497  0.00  0.00     0.108 A 
ATOM      3  C   UNL d   1      50.579  34.295  51.864  0.00  0.00     0.064 A 
ATOM      4  C   UNL d   1      51.354  34.067  52.016  0.00  0.00     0.222 A 
ATOM      5  C   UNL d   1      49.278  34.701  52.342  0.00  0.00     0.079 A 
ATOM      6  O   UNL d   1      50.321  34.416  53.282  0.00  0.00    -0.305 OA
ATOM      7  C   UNL d   1      51.112  34.182  53.434  0.00  0.00     0.126 A 
ATOM      8  C   UNL d   1      50.300  34.356  51.082  0.00  0.00     0.009 A 
ATOM      9  C   UNL d   1      49.015  34.757  51.559  0.00  0.00     0.199 A 
ATOM     10  O   UNL d   1      51.868  33.893  51.395  0.00  0.00    -0.284 OA
ATOM     11  C   UNL d   1      49.524  34.585  50.933  0.00  0.00     0.042 A 
ATOM     12  O   UNL d   1      48.233  34.988  51.415  0.00  0.00    -0.286 OA
ATOM     13  C   UNL d   1      51.379  34.125  54.211  0.00  0.00     0.029 C 
ENDROOT
BRANCH   1  14
ATOM     14  O   UNL d   1      52.402  33.780  52.957  0.00  0.00    -0.300 OA
BRANCH  14  15
ATOM     15  C   UNL d   1      52.586  32.981  53.037  0.00  0.00     0.122 A 
ATOM     16  C   UNL d   1      53.354  32.754  53.224  0.00  0.00     0.117 A 
ATOM     17  C   UNL d   1      53.539  31.956  53.304  0.00  0.00     0.026 A 
ATOM     18  C   UNL d   1      52.954  31.384  53.195  0.00  0.00     0.002 A 
ATOM     19  C   UNL d   1      52.176  31.620  53.006  0.00  0.00     0.002 A 
ATOM     20  C   UNL d   1      51.998  32.413  52.928  0.00  0.00     0.027 A 
BRANCH  16  21
ATOM     21  O   UNL d   1      53.939  33.326  53.332  0.00  0.00    -0.326 OA
ATOM     22  C   UNL d   1      54.696  33.099  53.559  0.00  0.00     0.181 C 
ENDBRANCH  16  21
ENDBRANCH  14  15
ENDBRANCH   1  14
BRANCH   5  23
ATOM     23  C   UNL d   1      48.769  34.873  52.968  0.00  0.00     0.086 C 
BRANCH  23  24
ATOM     24  N   UNL d   1      48.380  35.593  52.987  0.00  0.00    -0.300 N 
ATOM     25  C   UNL d   1      47.645  35.673  52.621  0.00  0.00     0.100 C 
ATOM     26  C   UNL d   1      48.719  36.244  53.370  0.00  0.00     0.100 C 
ENDBRANCH  23  24
ENDBRANCH   5  23
TORSDOF 5
ENDMDL
