MODEL 1
REMARK VINA RESULT:      -2.6      0.000      0.000
REMARK  4 active torsions:
REMARK  status: ('A' for Active; 'I' for Inactive)
REMARK       I    between atoms: N_2  and  C_1 
REMARK    1  A    between atoms: C_5  and  C_1 
REMARK    2  A    between atoms: C_8  and  N_2 
REMARK    3  A    between atoms: O_9  and  C_5 
REMARK    4  A    between atoms: C_11  and  O_9 
ROOT
ATOM      1  C   UNL d   1      31.804  16.209 -24.758  0.00  0.00     0.290 C 
ATOM      2  N   UNL d   1      32.535  16.570 -24.635  0.00  0.00    -0.270 N 
ATOM      3  O   UNL d   1      31.768  15.453 -25.096  0.00  0.00    -0.264 OA
ATOM      4  C   UNL d   1      33.236  16.169 -24.854  0.00  0.00     0.102 C 
ENDROOT
BRANCH   1   5
ATOM      5  C   UNL d   1      31.113  16.597 -24.546  0.00  0.00     0.184 C 
BRANCH   5   6
ATOM      6  O   UNL d   1      30.380  16.317 -24.813  0.00  0.00    -0.300 OA
BRANCH   6   7
ATOM      7  C   UNL d   1      29.685  16.467 -24.378  0.00  0.00     0.100 A 
ATOM      8  C   UNL d   1      29.305  17.200 -24.432  0.00  0.00     0.025 A 
ATOM      9  C   UNL d   1      28.621  17.343 -24.003  0.00  0.00     0.013 A 
ATOM     10  C   UNL d   1      28.245  18.067 -24.056  0.00  0.00     0.001 C 
ATOM     11  C   UNL d   1      28.313  16.753 -23.517  0.00  0.00     0.058 A 
ATOM     12  C   UNL d   1      28.691  16.023 -23.463  0.00  0.00     0.013 A 
ATOM     13 CL   UNL d   1      27.629  16.896 -23.087  0.00  0.00    -0.082 Cl
ATOM     14  C   UNL d   1      29.380  15.878 -23.895  0.00  0.00     0.026 A 
ENDBRANCH   6   7
ENDBRANCH   5   6
ENDBRANCH   1   5
BRANCH   2  15
ATOM     15  C   UNL d   1      32.570  17.313 -24.303  0.00  0.00     0.067 A 
ATOM     16  C   UNL d   1      32.640  17.384 -23.475  0.00  0.00     0.018 A 
ATOM     17  C   UNL d   1      32.676  18.131 -23.141  0.00  0.00     0.002 A 
ATOM     18  C   UNL d   1      32.642  18.812 -23.621  0.00  0.00     0.000 A 
ATOM     19  C   UNL d   1      32.573  18.750 -24.442  0.00  0.00     0.002 A 
ATOM     20  C   UNL d   1      32.537  17.986 -24.784  0.00  0.00     0.018 A 
ENDBRANCH   2  15
TORSDOF 4
ENDMDL
MODEL 2
REMARK VINA RESULT:      -1.5      1.880      4.082
REMARK  4 active torsions:
REMARK  status: ('A' for Active; 'I' for Inactive)
REMARK       I    between atoms: N_2  and  C_1 
REMARK    1  A    between atoms: C_5  and  C_1 
REMARK    2  A    between atoms: C_8  and  N_2 
REMARK    3  A    between atoms: O_9  and  C_5 
REMARK    4  A    between atoms: C_11  and  O_9 
ROOT
ATOM      1  C   UNL d   1      29.711  17.708 -24.737  0.00  0.00     0.290 C 
ATOM      2  N   UNL d   1      28.902  17.636 -24.590  0.00  0.00    -0.270 N 
ATOM      3  O   UNL d   1      30.011  18.411 -25.059  0.00  0.00    -0.264 OA
ATOM      4  C   UNL d   1      28.391  18.274 -24.769  0.00  0.00     0.102 C 
ENDROOT
BRANCH   1   5
ATOM      5  C   UNL d   1      30.217  17.087 -24.564  0.00  0.00     0.184 C 
BRANCH   5   6
ATOM      6  O   UNL d   1      31.027  17.152 -24.730  0.00  0.00    -0.300 OA
BRANCH   6   7
ATOM      7  C   UNL d   1      31.587  16.733 -24.276  0.00  0.00     0.100 A 
ATOM      8  C   UNL d   1      32.062  17.128 -23.726  0.00  0.00     0.025 A 
ATOM      9  C   UNL d   1      32.613  16.712 -23.282  0.00  0.00     0.013 A 
ATOM     10  C   UNL d   1      33.083  17.102 -22.738  0.00  0.00     0.001 C 
ATOM     11  C   UNL d   1      32.691  15.898 -23.386  0.00  0.00     0.058 A 
ATOM     12  C   UNL d   1      32.217  15.505 -23.934  0.00  0.00     0.013 A 
ATOM     13 CL   UNL d   1      33.241  15.482 -22.942  0.00  0.00    -0.082 Cl
ATOM     14  C   UNL d   1      31.663  15.923 -24.382  0.00  0.00     0.026 A 
ENDBRANCH   6   7
ENDBRANCH   5   6
ENDBRANCH   1   5
BRANCH   2  15
ATOM     15  C   UNL d   1      28.607  16.945 -24.274  0.00  0.00     0.067 A 
ATOM     16  C   UNL d   1      28.574  16.262 -24.752  0.00  0.00     0.018 A 
ATOM     17  C   UNL d   1      28.278  15.568 -24.434  0.00  0.00     0.002 A 
ATOM     18  C   UNL d   1      28.013  15.543 -23.644  0.00  0.00     0.000 A 
ATOM     19  C   UNL d   1      28.043  16.215 -23.164  0.00  0.00     0.002 A 
ATOM     20  C   UNL d   1      28.346  16.925 -23.489  0.00  0.00     0.018 A 
ENDBRANCH   2  15
TORSDOF 4
ENDMDL
MODEL 3
REMARK VINA RESULT:      -1.0      4.218      5.808
REMARK  4 active torsions:
REMARK  status: ('A' for Active; 'I' for Inactive)
REMARK       I    between atoms: N_2  and  C_1 
REMARK    1  A    between atoms: C_5  and  C_1 
REMARK    2  A    between atoms: C_8  and  N_2 
REMARK    3  A    between atoms: O_9  and  C_5 
REMARK    4  A    between atoms: C_11  and  O_9 
ROOT
ATOM      1  C   UNL d   1      32.794  21.164 -20.681  0.00  0.00     0.290 C 
ATOM      2  N   UNL d   1      32.630  21.943 -20.468  0.00  0.00    -0.270 N 
ATOM      3  O   UNL d   1      32.861  20.581 -20.095  0.00  0.00    -0.264 OA
ATOM      4  C   UNL d   1      32.531  22.139 -19.660  0.00  0.00     0.102 C 
ENDROOT
BRANCH   1   5
ATOM      5  C   UNL d   1      32.891  20.966 -21.471  0.00  0.00     0.184 C 
BRANCH   5   6
ATOM      6  O   UNL d   1      33.241  20.244 -21.678  0.00  0.00    -0.300 OA
BRANCH   6   7
ATOM      7  C   UNL d   1      33.093  19.899 -22.423  0.00  0.00     0.100 A 
ATOM      8  C   UNL d   1      32.877  19.103 -22.483  0.00  0.00     0.025 A 
ATOM      9  C   UNL d   1      32.732  18.769 -23.218  0.00  0.00     0.013 A 
ATOM     10  C   UNL d   1      32.518  17.981 -23.277  0.00  0.00     0.001 C 
ATOM     11  C   UNL d   1      32.803  19.229 -23.897  0.00  0.00     0.058 A 
ATOM     12  C   UNL d   1      33.019  20.023 -23.838  0.00  0.00     0.013 A 
ATOM     13 CL   UNL d   1      32.659  18.895 -24.632  0.00  0.00    -0.082 Cl
ATOM     14  C   UNL d   1      33.164  20.360 -23.098  0.00  0.00     0.026 A 
ENDBRANCH   6   7
ENDBRANCH   5   6
ENDBRANCH   1   5
BRANCH   2  15
ATOM     15  C   UNL d   1      32.564  22.517 -21.043  0.00  0.00     0.067 A 
ATOM     16  C   UNL d   1      31.809  22.705 -21.343  0.00  0.00     0.018 A 
ATOM     17  C   UNL d   1      31.743  23.281 -21.921  0.00  0.00     0.002 A 
ATOM     18  C   UNL d   1      32.420  23.675 -22.207  0.00  0.00     0.000 A 
ATOM     19  C   UNL d   1      33.171  23.494 -21.915  0.00  0.00     0.002 A 
ATOM     20  C   UNL d   1      33.239  22.904 -21.323  0.00  0.00     0.018 A 
ENDBRANCH   2  15
TORSDOF 4
ENDMDL
MODEL 4
REMARK VINA RESULT:      -0.5      2.681      4.341
REMARK  4 active torsions:
REMARK  status: ('A' for Active; 'I' for Inactive)
REMARK       I    between atoms: N_2  and  C_1 
REMARK    1  A    between atoms: C_5  and  C_1 
REMARK    2  A    between atoms: C_8  and  N_2 
REMARK    3  A    between atoms: O_9  and  C_5 
REMARK    4  A    between atoms: C_11  and  O_9 
ROOT
ATOM      1  C   UNL d   1      32.171  18.524 -24.204  0.00  0.00     0.290 C 
ATOM      2  N   UNL d   1      31.902  17.786 -24.454  0.00  0.00    -0.270 N 
ATOM      3  O   UNL d   1      31.913  19.210 -24.591  0.00  0.00    -0.264 OA
ATOM      4  C   UNL d   1      31.369  17.736 -25.097  0.00  0.00     0.102 C 
ENDROOT
BRANCH   1   5
ATOM      5  C   UNL d   1      32.694  18.579 -23.574  0.00  0.00     0.184 C 
BRANCH   5   6
ATOM      6  O   UNL d   1      33.173  19.250 -23.490  0.00  0.00    -0.300 OA
BRANCH   6   7
ATOM      7  C   UNL d   1      33.190  19.671 -22.770  0.00  0.00     0.100 A 
ATOM      8  C   UNL d   1      33.206  20.498 -22.767  0.00  0.00     0.025 A 
ATOM      9  C   UNL d   1      33.222  20.908 -22.057  0.00  0.00     0.013 A 
ATOM     10  C   UNL d   1      33.237  21.726 -22.054  0.00  0.00     0.001 C 
ATOM     11  C   UNL d   1      33.224  20.493 -21.345  0.00  0.00     0.058 A 
ATOM     12  C   UNL d   1      33.209  19.669 -21.349  0.00  0.00     0.013 A 
ATOM     13 CL   UNL d   1      33.241  20.903 -20.635  0.00  0.00    -0.082 Cl
ATOM     14  C   UNL d   1      33.192  19.256 -22.063  0.00  0.00     0.026 A 
ENDBRANCH   6   7
ENDBRANCH   5   6
ENDBRANCH   1   5
BRANCH   2  15
ATOM     15  C   UNL d   1      32.155  17.111 -24.073  0.00  0.00     0.067 A 
ATOM     16  C   UNL d   1      31.682  16.785 -23.469  0.00  0.00     0.018 A 
ATOM     17  C   UNL d   1      31.937  16.107 -23.087  0.00  0.00     0.002 A 
ATOM     18  C   UNL d   1      32.659  15.747 -23.298  0.00  0.00     0.000 A 
ATOM     19  C   UNL d   1      33.133  16.064 -23.895  0.00  0.00     0.002 A 
ATOM     20  C   UNL d   1      32.872  16.758 -24.287  0.00  0.00     0.018 A 
ENDBRANCH   2  15
TORSDOF 4
ENDMDL
