MODEL 1
REMARK VINA RESULT:      -2.6      0.000      0.000
REMARK  4 active torsions:
REMARK  status: ('A' for Active; 'I' for Inactive)
REMARK    1  A    between atoms: C_2  and  C_1 
REMARK       I    between atoms: N_4  and  C_2 
REMARK    2  A    between atoms: C_5  and  N_4 
REMARK    3  A    between atoms: O_17  and  C_9 
REMARK    4  A    between atoms: O_18  and  C_12 
ROOT
ATOM      1  C   UNL d   1      32.667  18.177 -24.561  0.00  0.00     0.353 C 
ATOM      2  N   UNL d   1      31.962  17.741 -24.517  0.00  0.00    -0.361 NA
ATOM      3  O   UNL d   1      33.241  17.963 -25.095  0.00  0.00    -0.249 OA
ENDROOT
BRANCH   1   4
ATOM      4  C   UNL d   1      32.793  18.833 -24.061  0.00  0.00     0.195 A 
ATOM      5  O   UNL d   1      32.870  18.712 -23.251  0.00  0.00    -0.297 OA
ATOM      6  C   UNL d   1      32.993  19.370 -22.780  0.00  0.00     0.123 A 
ATOM      7  C   UNL d   1      33.074  19.261 -21.943  0.00  0.00     0.027 A 
ATOM      8  C   UNL d   1      33.041  20.132 -23.084  0.00  0.00     0.123 A 
ATOM      9  C   UNL d   1      33.195  19.914 -21.483  0.00  0.00     0.002 A 
ATOM     10  C   UNL d   1      33.241  20.671 -21.807  0.00  0.00     0.002 A 
ATOM     11  C   UNL d   1      33.166  20.787 -22.598  0.00  0.00     0.027 A 
ATOM     12  O   UNL d   1      32.962  20.238 -23.906  0.00  0.00    -0.301 OA
ATOM     13  C   UNL d   1      32.839  19.590 -24.386  0.00  0.00     0.153 A 
ENDBRANCH   1   4
BRANCH   2  14
ATOM     14  C   UNL d   1      31.260  17.320 -24.462  0.00  0.00     0.159 A 
ATOM     15  C   UNL d   1      30.549  17.661 -24.678  0.00  0.00     0.059 A 
ATOM     16  C   UNL d   1      29.832  17.237 -24.624  0.00  0.00     0.107 A 
ATOM     17  C   UNL d   1      29.859  16.436 -24.337  0.00  0.00     0.082 A 
ATOM     18  C   UNL d   1      30.570  16.096 -24.121  0.00  0.00     0.040 A 
ATOM     19 CL   UNL d   1      29.149  16.024 -24.286  0.00  0.00    -0.080 Cl
ATOM     20  C   UNL d   1      31.280  16.531 -24.180  0.00  0.00     0.125 A 
BRANCH  16  21
ATOM     21  O   UNL d   1      29.133  17.572 -24.837  0.00  0.00    -0.327 OA
ATOM     22  C   UNL d   1      29.106  18.364 -25.065  0.00  0.00     0.181 C 
ENDBRANCH  16  21
BRANCH  20  23
ATOM     23  O   UNL d   1      31.998  16.188 -23.962  0.00  0.00    -0.326 OA
ATOM     24  C   UNL d   1      31.982  15.553 -23.445  0.00  0.00     0.181 C 
ENDBRANCH  20  23
ENDBRANCH   2  14
TORSDOF 4
ENDMDL
MODEL 2
REMARK VINA RESULT:      -1.7      1.920      4.559
REMARK  4 active torsions:
REMARK  status: ('A' for Active; 'I' for Inactive)
REMARK    1  A    between atoms: C_2  and  C_1 
REMARK       I    between atoms: N_4  and  C_2 
REMARK    2  A    between atoms: C_5  and  N_4 
REMARK    3  A    between atoms: O_17  and  C_9 
REMARK    4  A    between atoms: O_18  and  C_12 
ROOT
ATOM      1  C   UNL d   1      33.001  18.724 -24.309  0.00  0.00     0.353 C 
ATOM      2  N   UNL d   1      33.054  19.338 -23.753  0.00  0.00    -0.361 NA
ATOM      3  O   UNL d   1      33.240  18.851 -25.075  0.00  0.00    -0.249 OA
ENDROOT
BRANCH   1   4
ATOM      4  C   UNL d   1      32.705  17.976 -24.089  0.00  0.00     0.195 A 
ATOM      5  O   UNL d   1      31.899  17.828 -24.149  0.00  0.00    -0.297 OA
ATOM      6  C   UNL d   1      31.630  17.087 -23.927  0.00  0.00     0.123 A 
ATOM      7  C   UNL d   1      30.801  16.922 -23.985  0.00  0.00     0.027 A 
ATOM      8  C   UNL d   1      32.131  16.498 -23.652  0.00  0.00     0.123 A 
ATOM      9  C   UNL d   1      30.542  16.188 -23.764  0.00  0.00     0.002 A 
ATOM     10  C   UNL d   1      31.062  15.609 -23.490  0.00  0.00     0.002 A 
ATOM     11  C   UNL d   1      31.849  15.754 -23.432  0.00  0.00     0.027 A 
ATOM     12  O   UNL d   1      32.946  16.661 -23.596  0.00  0.00    -0.301 OA
ATOM     13  C   UNL d   1      33.225  17.397 -23.814  0.00  0.00     0.153 A 
ENDBRANCH   1   4
BRANCH   2  14
ATOM     14  C   UNL d   1      33.099  19.936 -23.193  0.00  0.00     0.159 A 
ATOM     15  C   UNL d   1      33.066  19.765 -22.395  0.00  0.00     0.059 A 
ATOM     16  C   UNL d   1      33.112  20.369 -21.821  0.00  0.00     0.107 A 
ATOM     17  C   UNL d   1      33.195  21.173 -22.089  0.00  0.00     0.082 A 
ATOM     18  C   UNL d   1      33.229  21.343 -22.887  0.00  0.00     0.040 A 
ATOM     19 CL   UNL d   1      33.240  21.764 -21.517  0.00  0.00    -0.080 Cl
ATOM     20  C   UNL d   1      33.181  20.729 -23.451  0.00  0.00     0.125 A 
BRANCH  16  21
ATOM     21  O   UNL d   1      33.080  20.201 -21.035  0.00  0.00    -0.327 OA
ATOM     22  C   UNL d   1      33.201  19.430 -20.772  0.00  0.00     0.181 C 
ENDBRANCH  16  21
BRANCH  20  23
ATOM     23  O   UNL d   1      33.215  20.901 -24.257  0.00  0.00    -0.326 OA
ATOM     24  C   UNL d   1      33.162  21.685 -24.488  0.00  0.00     0.181 C 
ENDBRANCH  20  23
ENDBRANCH   2  14
TORSDOF 4
ENDMDL
MODEL 3
REMARK VINA RESULT:      -1.7      1.112      2.333
REMARK  4 active torsions:
REMARK  status: ('A' for Active; 'I' for Inactive)
REMARK    1  A    between atoms: C_2  and  C_1 
REMARK       I    between atoms: N_4  and  C_2 
REMARK    2  A    between atoms: C_5  and  N_4 
REMARK    3  A    between atoms: O_17  and  C_9 
REMARK    4  A    between atoms: O_18  and  C_12 
ROOT
ATOM      1  C   UNL d   1      32.879  19.158 -23.618  0.00  0.00     0.353 C 
ATOM      2  N   UNL d   1      32.530  18.412 -23.730  0.00  0.00    -0.361 NA
ATOM      3  O   UNL d   1      33.150  19.576 -24.260  0.00  0.00    -0.249 OA
ENDROOT
BRANCH   1   4
ATOM      4  C   UNL d   1      32.953  19.482 -22.854  0.00  0.00     0.195 A 
ATOM      5  O   UNL d   1      32.814  20.284 -22.742  0.00  0.00    -0.297 OA
ATOM      6  C   UNL d   1      32.893  20.581 -21.983  0.00  0.00     0.123 A 
ATOM      7  C   UNL d   1      32.752  21.407 -21.853  0.00  0.00     0.027 A 
ATOM      8  C   UNL d   1      33.103  20.113 -21.342  0.00  0.00     0.123 A 
ATOM      9  C   UNL d   1      32.831  21.694 -21.101  0.00  0.00     0.002 A 
ATOM     10  C   UNL d   1      33.043  21.207 -20.471  0.00  0.00     0.002 A 
ATOM     11  C   UNL d   1      33.179  20.424 -20.582  0.00  0.00     0.027 A 
ATOM     12  O   UNL d   1      33.241  19.301 -21.471  0.00  0.00    -0.301 OA
ATOM     13  C   UNL d   1      33.165  18.994 -22.223  0.00  0.00     0.153 A 
ENDBRANCH   1   4
BRANCH   2  14
ATOM     14  C   UNL d   1      32.184  17.674 -23.824  0.00  0.00     0.159 A 
ATOM     15  C   UNL d   1      32.485  17.018 -23.442  0.00  0.00     0.059 A 
ATOM     16  C   UNL d   1      32.137  16.265 -23.534  0.00  0.00     0.107 A 
ATOM     17  C   UNL d   1      31.455  16.198 -24.039  0.00  0.00     0.082 A 
ATOM     18  C   UNL d   1      31.154  16.854 -24.421  0.00  0.00     0.040 A 
ATOM     19 CL   UNL d   1      31.116  15.453 -24.126  0.00  0.00    -0.080 Cl
ATOM     20  C   UNL d   1      31.512  17.601 -24.320  0.00  0.00     0.125 A 
BRANCH  16  21
ATOM     21  O   UNL d   1      32.434  15.619 -23.159  0.00  0.00    -0.327 OA
ATOM     22  C   UNL d   1      33.241  15.569 -22.999  0.00  0.00     0.181 C 
ENDBRANCH  16  21
BRANCH  20  23
ATOM     23  O   UNL d   1      31.208  18.264 -24.705  0.00  0.00    -0.326 OA
ATOM     24  C   UNL d   1      30.436  18.235 -24.975  0.00  0.00     0.181 C 
ENDBRANCH  20  23
ENDBRANCH   2  14
TORSDOF 4
ENDMDL
MODEL 4
REMARK VINA RESULT:      -1.4      2.163      4.863
REMARK  4 active torsions:
REMARK  status: ('A' for Active; 'I' for Inactive)
REMARK    1  A    between atoms: C_2  and  C_1 
REMARK       I    between atoms: N_4  and  C_2 
REMARK    2  A    between atoms: C_5  and  N_4 
REMARK    3  A    between atoms: O_17  and  C_9 
REMARK    4  A    between atoms: O_18  and  C_12 
ROOT
ATOM      1  C   UNL d   1      33.029  19.788 -24.050  0.00  0.00     0.353 C 
ATOM      2  N   UNL d   1      33.076  20.316 -23.411  0.00  0.00    -0.361 NA
ATOM      3  O   UNL d   1      33.235  20.039 -24.796  0.00  0.00    -0.249 OA
ENDROOT
BRANCH   1   4
ATOM      4  C   UNL d   1      32.774  19.003 -23.935  0.00  0.00     0.195 A 
ATOM      5  O   UNL d   1      32.068  18.755 -24.276  0.00  0.00    -0.297 OA
ATOM      6  C   UNL d   1      31.836  17.980 -24.150  0.00  0.00     0.123 A 
ATOM      7  C   UNL d   1      31.111  17.712 -24.496  0.00  0.00     0.027 A 
ATOM      8  C   UNL d   1      32.278  17.452 -23.702  0.00  0.00     0.123 A 
ATOM      9  C   UNL d   1      30.888  16.945 -24.368  0.00  0.00     0.002 A 
ATOM     10  C   UNL d   1      31.345  16.430 -23.915  0.00  0.00     0.002 A 
ATOM     11  C   UNL d   1      32.034  16.673 -23.582  0.00  0.00     0.027 A 
ATOM     12  O   UNL d   1      32.991  17.717 -23.362  0.00  0.00    -0.301 OA
ATOM     13  C   UNL d   1      33.232  18.488 -23.481  0.00  0.00     0.153 A 
ENDBRANCH   1   4
BRANCH   2  14
ATOM     14  C   UNL d   1      33.116  20.826 -22.769  0.00  0.00     0.159 A 
ATOM     15  C   UNL d   1      33.091  20.541 -22.004  0.00  0.00     0.059 A 
ATOM     16  C   UNL d   1      33.131  21.055 -21.349  0.00  0.00     0.107 A 
ATOM     17  C   UNL d   1      33.201  21.890 -21.497  0.00  0.00     0.082 A 
ATOM     18  C   UNL d   1      33.227  22.176 -22.262  0.00  0.00     0.040 A 
ATOM     19 CL   UNL d   1      33.241  22.392 -20.846  0.00  0.00    -0.080 Cl
ATOM     20  C   UNL d   1      33.185  21.650 -22.909  0.00  0.00     0.125 A 
BRANCH  16  21
ATOM     21  O   UNL d   1      33.106  20.774 -20.596  0.00  0.00    -0.327 OA
ATOM     22  C   UNL d   1      33.241  19.975 -20.449  0.00  0.00     0.181 C 
ENDBRANCH  16  21
BRANCH  20  23
ATOM     23  O   UNL d   1      33.211  21.938 -23.682  0.00  0.00    -0.326 OA
ATOM     24  C   UNL d   1      33.169  22.748 -23.794  0.00  0.00     0.181 C 
ENDBRANCH  20  23
ENDBRANCH   2  14
TORSDOF 4
ENDMDL
MODEL 5
REMARK VINA RESULT:       0.2      2.419      4.804
REMARK  4 active torsions:
REMARK  status: ('A' for Active; 'I' for Inactive)
REMARK    1  A    between atoms: C_2  and  C_1 
REMARK       I    between atoms: N_4  and  C_2 
REMARK    2  A    between atoms: C_5  and  N_4 
REMARK    3  A    between atoms: O_17  and  C_9 
REMARK    4  A    between atoms: O_18  and  C_12 
ROOT
ATOM      1  C   UNL d   1      33.073  19.172 -22.265  0.00  0.00     0.353 C 
ATOM      2  N   UNL d   1      33.109  20.001 -22.301  0.00  0.00    -0.361 NA
ATOM      3  O   UNL d   1      33.179  18.794 -21.554  0.00  0.00    -0.249 OA
ENDROOT
BRANCH   1   4
ATOM      4  C   UNL d   1      32.930  18.723 -22.953  0.00  0.00     0.195 A 
ATOM      5  O   UNL d   1      32.481  18.036 -22.899  0.00  0.00    -0.297 OA
ATOM      6  C   UNL d   1      32.353  17.611 -23.587  0.00  0.00     0.123 A 
ATOM      7  C   UNL d   1      31.891  16.901 -23.546  0.00  0.00     0.027 A 
ATOM      8  C   UNL d   1      32.653  17.843 -24.315  0.00  0.00     0.123 A 
ATOM      9  C   UNL d   1      31.768  16.486 -24.228  0.00  0.00     0.002 A 
ATOM     10  C   UNL d   1      32.078  16.736 -24.950  0.00  0.00     0.002 A 
ATOM     11  C   UNL d   1      32.517  17.406 -25.002  0.00  0.00     0.027 A 
ATOM     12  O   UNL d   1      33.106  18.541 -24.355  0.00  0.00    -0.301 OA
ATOM     13  C   UNL d   1      33.240  18.973 -23.676  0.00  0.00     0.153 A 
ENDBRANCH   1   4
BRANCH   2  14
ATOM     14  C   UNL d   1      33.141  20.819 -22.352  0.00  0.00     0.159 A 
ATOM     15  C   UNL d   1      33.110  21.195 -23.076  0.00  0.00     0.059 A 
ATOM     16  C   UNL d   1      33.142  22.027 -23.134  0.00  0.00     0.107 A 
ATOM     17  C   UNL d   1      33.209  22.477 -22.414  0.00  0.00     0.082 A 
ATOM     18  C   UNL d   1      33.241  22.100 -21.690  0.00  0.00     0.040 A 
ATOM     19 CL   UNL d   1      33.241  23.297 -22.478  0.00  0.00    -0.080 Cl
ATOM     20  C   UNL d   1      33.207  21.267 -21.647  0.00  0.00     0.125 A 
BRANCH  16  21
ATOM     21  O   UNL d   1      33.111  22.397 -23.846  0.00  0.00    -0.327 OA
ATOM     22  C   UNL d   1      33.050  21.956 -24.539  0.00  0.00     0.181 C 
ENDBRANCH  16  21
BRANCH  20  23
ATOM     23  O   UNL d   1      33.239  20.887 -20.915  0.00  0.00    -0.326 OA
ATOM     24  C   UNL d   1      33.089  21.328 -20.243  0.00  0.00     0.181 C 
ENDBRANCH  20  23
ENDBRANCH   2  14
TORSDOF 4
ENDMDL
