MODEL 1
REMARK VINA RESULT:      23.4      0.000      0.000
REMARK  4 active torsions:
REMARK  status: ('A' for Active; 'I' for Inactive)
REMARK    1  A    between atoms: C_7  and  C_1 
REMARK    2  A    between atoms: N_8  and  C_7 
REMARK    3  A    between atoms: C_11  and  N_8 
REMARK    4  A    between atoms: O_13  and  C_12 
ROOT
ATOM      1  C   UNL d   1      45.598 -16.531  43.847  0.00  0.00     0.145 A 
ATOM      2  C   UNL d   1      46.026 -16.177  44.452  0.00  0.00     0.305 A 
ATOM      3  C   UNL d   1      45.123 -16.067  43.349  0.00  0.00     0.305 A 
ATOM      4  O   UNL d   1      45.083 -15.255  43.461  0.00  0.00    -0.269 OA
ATOM      5  O   UNL d   1      45.983 -15.370  44.561  0.00  0.00    -0.269 OA
ATOM      6  C   UNL d   1      45.509 -14.906  44.062  0.00  0.00     0.242 A 
ATOM      7  O   UNL d   1      44.680 -16.429  42.723  0.00  0.00    -0.259 OA
ATOM      8  O   UNL d   1      46.503 -16.644  44.954  0.00  0.00    -0.259 OA
ATOM      9  C   UNL d   1      45.112 -14.296  43.690  0.00  0.00     0.035 A 
ATOM     10  C   UNL d   1      45.992 -14.719  44.703  0.00  0.00     0.035 A 
ATOM     11  C   UNL d   1      46.066 -13.951  44.950  0.00  0.00     0.001 A 
ATOM     12  C   UNL d   1      45.195 -13.513  43.952  0.00  0.00     0.001 A 
ATOM     13  C   UNL d   1      45.683 -13.355  44.592  0.00  0.00    -0.000 A 
ENDROOT
BRANCH   1  14
ATOM     14  C   UNL d   1      45.660 -17.357  43.759  0.00  0.00     0.110 C 
BRANCH  14  15
ATOM     15  N   UNL d   1      46.417 -17.704  43.755  0.00  0.00    -0.242 NA
BRANCH  15  16
ATOM     16  C   UNL d   1      46.483 -18.530  43.791  0.00  0.00     0.104 A 
ATOM     17  C   UNL d   1      46.452 -18.976  43.095  0.00  0.00     0.112 A 
ATOM     18  C   UNL d   1      46.518 -19.800  43.126  0.00  0.00     0.026 A 
ATOM     19  C   UNL d   1      46.614 -20.198  43.854  0.00  0.00     0.002 A 
ATOM     20  C   UNL d   1      46.641 -19.722  44.541  0.00  0.00     0.002 A 
ATOM     21  C   UNL d   1      46.577 -18.905  44.513  0.00  0.00     0.021 A 
BRANCH  17  22
ATOM     22  O   UNL d   1      46.356 -18.593  42.359  0.00  0.00    -0.327 OA
ATOM     23  C   UNL d   1      46.575 -18.967  41.679  0.00  0.00     0.181 C 
ENDBRANCH  17  22
ENDBRANCH  15  16
ENDBRANCH  14  15
ENDBRANCH   1  14
TORSDOF 4
ENDMDL
MODEL 2
REMARK VINA RESULT:      25.8      0.946      4.567
REMARK  4 active torsions:
REMARK  status: ('A' for Active; 'I' for Inactive)
REMARK    1  A    between atoms: C_7  and  C_1 
REMARK    2  A    between atoms: N_8  and  C_7 
REMARK    3  A    between atoms: C_11  and  N_8 
REMARK    4  A    between atoms: O_13  and  C_12 
ROOT
ATOM      1  C   UNL d   1      46.121 -16.877  43.382  0.00  0.00     0.145 A 
ATOM      2  C   UNL d   1      45.905 -17.187  42.653  0.00  0.00     0.305 A 
ATOM      3  C   UNL d   1      46.335 -17.385  44.002  0.00  0.00     0.305 A 
ATOM      4  O   UNL d   1      46.330 -18.197  43.885  0.00  0.00    -0.269 OA
ATOM      5  O   UNL d   1      45.902 -17.995  42.541  0.00  0.00    -0.269 OA
ATOM      6  C   UNL d   1      46.116 -18.503  43.161  0.00  0.00     0.242 A 
ATOM      7  O   UNL d   1      46.558 -17.068  44.756  0.00  0.00    -0.259 OA
ATOM      8  O   UNL d   1      45.690 -16.676  42.029  0.00  0.00    -0.259 OA
ATOM      9  C   UNL d   1      46.288 -19.150  43.630  0.00  0.00     0.035 A 
ATOM     10  C   UNL d   1      45.878 -18.642  42.383  0.00  0.00     0.035 A 
ATOM     11  C   UNL d   1      45.820 -19.400  42.102  0.00  0.00     0.001 A 
ATOM     12  C   UNL d   1      46.225 -19.921  43.331  0.00  0.00     0.001 A 
ATOM     13  C   UNL d   1      45.986 -20.030  42.554  0.00  0.00    -0.000 A 
ENDROOT
BRANCH   1  14
ATOM     14  C   UNL d   1      46.115 -16.048  43.469  0.00  0.00     0.110 C 
BRANCH  14  15
ATOM     15  N   UNL d   1      45.673 -15.713  44.090  0.00  0.00    -0.242 NA
BRANCH  15  16
ATOM     16  C   UNL d   1      45.770 -14.908  44.266  0.00  0.00     0.104 A 
ATOM     17  C   UNL d   1      45.136 -14.387  44.169  0.00  0.00     0.112 A 
ATOM     18  C   UNL d   1      45.229 -13.583  44.344  0.00  0.00     0.026 A 
ATOM     19  C   UNL d   1      45.957 -13.283  44.620  0.00  0.00     0.002 A 
ATOM     20  C   UNL d   1      46.581 -13.833  44.709  0.00  0.00     0.002 A 
ATOM     21  C   UNL d   1      46.492 -14.629  44.536  0.00  0.00     0.021 A 
BRANCH  17  22
ATOM     22  O   UNL d   1      44.400 -14.672  43.894  0.00  0.00    -0.327 OA
ATOM     23  C   UNL d   1      43.753 -14.645  44.375  0.00  0.00     0.181 C 
ENDBRANCH  17  22
ENDBRANCH  15  16
ENDBRANCH  14  15
ENDBRANCH   1  14
TORSDOF 4
ENDMDL
