MODEL 1
REMARK VINA RESULT:      55.9      0.000      0.000
REMARK  5 active torsions:
REMARK  status: ('A' for Active; 'I' for Inactive)
REMARK    1  A    between atoms: C_7  and  N_1 
REMARK       I    between atoms: C_4  and  N_8 
REMARK       I    between atoms: N_10  and  C_4 
REMARK    2  A    between atoms: N_8  and  C_5 
REMARK    3  A    between atoms: C_15  and  N_10 
REMARK    4  A    between atoms: O_18  and  C_14 
REMARK    5  A    between atoms: C_19  and  C_15 
ROOT
ATOM      1  N   UNL d   1     -48.026  30.128  34.812  0.00  0.00    -0.272 N 
ATOM      2  C   UNL d   1     -47.726  29.683  35.443  0.00  0.00     0.266 A 
ATOM      3  C   UNL d   1     -48.008  28.907  35.347  0.00  0.00     0.082 A 
ATOM      4  C   UNL d   1     -48.473  28.881  34.667  0.00  0.00     0.108 A 
ATOM      5  C   UNL d   1     -48.481  29.640  34.340  0.00  0.00     0.102 A 
ATOM      6  O   UNL d   1     -47.244  29.955  36.046  0.00  0.00    -0.267 OA
ENDROOT
BRANCH   1   7
ATOM      7  C   UNL d   1     -47.887  30.931  34.686  0.00  0.00     0.067 A 
ATOM      8  C   UNL d   1     -47.232  31.295  35.036  0.00  0.00     0.020 A 
ATOM      9  C   UNL d   1     -47.092  32.099  34.909  0.00  0.00     0.026 A 
ATOM     10  C   UNL d   1     -47.604  32.537  34.435  0.00  0.00     0.094 A 
ATOM     11  C   UNL d   1     -48.256  32.179  34.084  0.00  0.00     0.026 A 
ATOM     12  C   UNL d   1     -48.397  31.368  34.212  0.00  0.00     0.020 A 
BRANCH  10  13
ATOM     13  O   UNL d   1     -47.457  33.340  34.313  0.00  0.00    -0.328 OA
ATOM     14  C   UNL d   1     -47.393  33.627  33.544  0.00  0.00     0.181 C 
ENDBRANCH  10  13
ENDBRANCH   1   7
BRANCH   4  15
ATOM     15  N   UNL d   1     -48.860  28.212  34.370  0.00  0.00    -0.189 NA
ATOM     16  C   UNL d   1     -49.183  27.666  34.891  0.00  0.00     0.369 C 
ATOM     17  N   UNL d   1     -49.571  26.997  34.600  0.00  0.00    -0.189 NA
ATOM     18  O   UNL d   1     -49.125  27.781  35.704  0.00  0.00    -0.242 OA
BRANCH  17  19
ATOM     19  C   UNL d   1     -49.627  26.886  33.794  0.00  0.00     0.104 C 
BRANCH  19  20
ATOM     20  C   UNL d   1     -50.216  26.402  33.479  0.00  0.00     0.019 C 
ATOM     21  C   UNL d   1     -50.071  25.605  33.335  0.00  0.00     0.002 C 
ATOM     22  C   UNL d   1     -50.962  26.717  33.306  0.00  0.00     0.002 C 
ENDBRANCH  19  20
ENDBRANCH  17  19
ENDBRANCH   4  15
TORSDOF 5
ENDMDL
