MODEL 1
REMARK VINA RESULT:      21.5      0.000      0.000
REMARK  2 active torsions:
REMARK  status: ('A' for Active; 'I' for Inactive)
REMARK    1  A    between atoms: C_5  and  C_1 
REMARK    2  A    between atoms: C_7  and  N_2 
ROOT
ATOM      1  C   UNL d   1      45.043 -16.227  37.100  0.00  0.00     0.129 A 
ATOM      2  N   UNL d   1      44.641 -15.500  37.038  0.00  0.00    -0.302 N 
ATOM      3  C   UNL d   1      45.854 -16.064  37.092  0.00  0.00     0.025 A 
ATOM      4  C   UNL d   1      45.202 -14.897  36.993  0.00  0.00     0.064 A 
ATOM      5  C   UNL d   1      45.956 -15.247  37.027  0.00  0.00     0.018 A 
ATOM      6  C   UNL d   1      45.134 -14.073  36.926  0.00  0.00     0.018 A 
ATOM      7  C   UNL d   1      46.634 -14.770  36.993  0.00  0.00     0.002 A 
ATOM      8  C   UNL d   1      45.808 -13.604  36.892  0.00  0.00     0.002 A 
ATOM      9  C   UNL d   1      46.554 -13.951  36.926  0.00  0.00     0.000 A 
ENDROOT
BRANCH   2  10
ATOM     10  C   UNL d   1      43.820 -15.399  37.024  0.00  0.00     0.064 A 
ATOM     11  C   UNL d   1      43.441 -15.095  37.689  0.00  0.00     0.018 A 
ATOM     12  C   UNL d   1      42.626 -14.994  37.676  0.00  0.00     0.002 A 
ATOM     13  C   UNL d   1      42.191 -15.193  37.004  0.00  0.00     0.000 A 
ATOM     14  C   UNL d   1      42.576 -15.498  36.337  0.00  0.00     0.002 A 
ATOM     15  C   UNL d   1      43.395 -15.598  36.354  0.00  0.00     0.018 A 
ENDBRANCH   2  10
BRANCH   1  16
ATOM     16  C   UNL d   1      44.694 -16.972  37.158  0.00  0.00     0.228 C 
ATOM     17  O   UNL d   1      44.651 -17.351  37.886  0.00  0.00    -0.643 OA
ATOM     18  O   UNL d   1      44.388 -17.337  36.480  0.00  0.00    -0.643 OA
ENDBRANCH   1  16
TORSDOF 2
ENDMDL
MODEL 2
REMARK VINA RESULT:      22.8      6.198      7.330
REMARK  2 active torsions:
REMARK  status: ('A' for Active; 'I' for Inactive)
REMARK    1  A    between atoms: C_5  and  C_1 
REMARK    2  A    between atoms: C_7  and  N_2 
ROOT
ATOM      1  C   UNL d   1      45.895 -18.071  42.757  0.00  0.00     0.129 A 
ATOM      2  N   UNL d   1      46.192 -18.837  42.620  0.00  0.00    -0.302 N 
ATOM      3  C   UNL d   1      45.831 -17.972  43.576  0.00  0.00     0.025 A 
ATOM      4  C   UNL d   1      46.308 -19.204  43.350  0.00  0.00     0.064 A 
ATOM      5  C   UNL d   1      46.084 -18.667  43.945  0.00  0.00     0.018 A 
ATOM      6  C   UNL d   1      46.588 -19.956  43.560  0.00  0.00     0.018 A 
ATOM      7  C   UNL d   1      46.142 -18.887  44.742  0.00  0.00     0.002 A 
ATOM      8  C   UNL d   1      46.644 -20.170  44.351  0.00  0.00     0.002 A 
ATOM      9  C   UNL d   1      46.422 -19.638  44.940  0.00  0.00     0.000 A 
ENDROOT
BRANCH   2  10
ATOM     10  C   UNL d   1      46.344 -19.174  41.880  0.00  0.00     0.064 A 
ATOM     11  C   UNL d   1      46.380 -19.993  41.812  0.00  0.00     0.018 A 
ATOM     12  C   UNL d   1      46.532 -20.330  41.077  0.00  0.00     0.002 A 
ATOM     13  C   UNL d   1      46.646 -19.850  40.415  0.00  0.00     0.000 A 
ATOM     14  C   UNL d   1      46.609 -19.026  40.488  0.00  0.00     0.002 A 
ATOM     15  C   UNL d   1      46.457 -18.693  41.227  0.00  0.00     0.018 A 
ENDBRANCH   2  10
BRANCH   1  16
ATOM     16  C   UNL d   1      45.701 -17.514  42.181  0.00  0.00     0.228 C 
ATOM     17  O   UNL d   1      44.952 -17.517  41.841  0.00  0.00    -0.643 OA
ATOM     18  O   UNL d   1      46.263 -16.953  41.945  0.00  0.00    -0.643 OA
ENDBRANCH   1  16
TORSDOF 2
ENDMDL
