MODEL 1
REMARK VINA RESULT:      34.7      0.000      0.000
REMARK  4 active torsions:
REMARK  status: ('A' for Active; 'I' for Inactive)
REMARK    1  A    between atoms: N_3  and  C_1 
REMARK    2  A    between atoms: C_6  and  C_2 
REMARK    3  A    between atoms: C_13  and  N_8 
REMARK    4  A    between atoms: C_16  and  C_13 
ROOT
ATOM      1  N   UNL d   1      13.300  12.419  -3.462  0.00  0.00    -0.286 N 
ATOM      2  N   UNL d   1      13.551  12.341  -1.820  0.00  0.00    -0.300 N 
ATOM      3  C   UNL d   1      13.785  12.973  -3.093  0.00  0.00     0.101 A 
ATOM      4  C   UNL d   1      12.932  11.817  -3.018  0.00  0.00     0.101 A 
ATOM      5  C   UNL d   1      13.058  11.780  -2.205  0.00  0.00     0.100 A 
ATOM      6  C   UNL d   1      13.911  12.934  -2.272  0.00  0.00     0.100 A 
ENDROOT
BRANCH   1   7
ATOM      7  C   UNL d   1      13.329  12.659  -4.256  0.00  0.00     0.149 A 
ATOM      8  C   UNL d   1      13.214  13.465  -4.442  0.00  0.00     0.056 A 
ATOM      9  C   UNL d   1      13.244  13.703  -5.229  0.00  0.00     0.006 A 
ATOM     10  C   UNL d   1      13.131  14.502  -5.434  0.00  0.00     0.000 C 
ATOM     11  C   UNL d   1      13.388  13.138  -5.827  0.00  0.00     0.019 A 
ATOM     12  C   UNL d   1      13.501  12.338  -5.631  0.00  0.00     0.083 A 
ATOM     13  N   UNL d   1      13.471  12.104  -4.843  0.00  0.00    -0.228 NA
ATOM     14  C   UNL d   1      13.643  11.781  -6.227  0.00  0.00     0.021 C 
BRANCH   8  15
ATOM     15  C   UNL d   1      13.073  14.015  -3.848  0.00  0.00     0.125 C 
ATOM     16  N   UNL d   1      13.113  14.821  -4.014  0.00  0.00    -0.146 N 
ENDBRANCH   8  15
ENDBRANCH   1   7
BRANCH   2  17
ATOM     17  C   UNL d   1      13.671  12.296  -1.005  0.00  0.00     0.080 C 
BRANCH  17  18
ATOM     18  C   UNL d   1      14.378  12.561  -0.673  0.00  0.00     0.018 A 
ATOM     19  C   UNL d   1      14.454  13.347  -0.447  0.00  0.00     0.002 A 
ATOM     20  C   UNL d   1      15.161  13.611  -0.115  0.00  0.00     0.000 A 
ATOM     21  C   UNL d   1      15.782  13.087  -0.014  0.00  0.00     0.000 A 
ATOM     22  C   UNL d   1      15.709  12.296  -0.241  0.00  0.00     0.000 A 
ATOM     23  C   UNL d   1      15.000  12.036  -0.573  0.00  0.00     0.002 A 
ENDBRANCH  17  18
ENDBRANCH   2  17
TORSDOF 4
ENDMDL
