MODEL 1
REMARK VINA RESULT:      15.3      0.000      0.000
REMARK  1 active torsions:
REMARK  status: ('A' for Active; 'I' for Inactive)
REMARK    1  A    between atoms: C_4  and  C_1 
ROOT
ATOM      1  C   UNL d   1      58.435  49.700  50.605  0.00  0.00     0.163 A 
ATOM      2  N   UNL d   1      59.057  49.707  50.062  0.00  0.00    -0.225 NA
ATOM      3  N   UNL d   1      58.762  49.691  51.370  0.00  0.00    -0.225 NA
ATOM      4  C   UNL d   1      59.768  49.703  50.483  0.00  0.00     0.101 A 
ATOM      5  C   UNL d   1      59.585  49.693  51.296  0.00  0.00     0.101 A 
ATOM      6  C   UNL d   1      60.563  49.707  50.239  0.00  0.00     0.021 A 
ATOM      7  C   UNL d   1      60.198  49.687  51.855  0.00  0.00     0.021 A 
ATOM      8  C   UNL d   1      60.982  49.691  51.611  0.00  0.00     0.002 A 
ATOM      9  C   UNL d   1      61.164  49.701  50.806  0.00  0.00     0.002 A 
ENDROOT
BRANCH   1  10
ATOM     10  C   UNL d   1      57.631  49.701  50.423  0.00  0.00     0.046 A 
ATOM     11  C   UNL d   1      57.393  49.697  49.641  0.00  0.00     0.061 A 
ATOM     12 CL   UNL d   1      57.964  49.692  49.038  0.00  0.00    -0.082 Cl
ATOM     13  C   UNL d   1      56.600  49.698  49.462  0.00  0.00     0.011 A 
ATOM     14  C   UNL d   1      56.033  49.703  50.063  0.00  0.00     0.001 A 
ATOM     15  C   UNL d   1      56.277  49.707  50.848  0.00  0.00     0.000 A 
ATOM     16  C   UNL d   1      57.079  49.706  51.029  0.00  0.00     0.004 A 
ENDBRANCH   1  10
TORSDOF 1
ENDMDL
