MODEL 1
REMARK VINA RESULT:      -4.4      0.000      0.000
REMARK  4 active torsions:
REMARK  status: ('A' for Active; 'I' for Inactive)
REMARK    1  A    between atoms: C_11  and  C_4 
REMARK    2  A    between atoms: C_9  and  C_5 
REMARK    3  A    between atoms: O_21  and  C_16 
REMARK    4  A    between atoms: O_22  and  C_17 
ROOT
ATOM      1  N   UNL d   1      58.321  -0.342  29.839  0.00  0.00    -0.185 N 
ATOM      2  C   UNL d   1      57.963   0.383  29.654  0.00  0.00     0.219 A 
ATOM      3  N   UNL d   1      58.066  -0.566  30.585  0.00  0.00    -0.153 NA
ATOM      4  C   UNL d   1      58.798  -0.563  29.202  0.00  0.00     0.187 A 
ATOM      5  C   UNL d   1      57.548   0.016  30.870  0.00  0.00     0.156 A 
ATOM      6  S   UNL d   1      57.486   0.604  30.291  0.00  0.00    -0.024 SA
ATOM      7  N   UNL d   1      58.733   0.026  28.626  0.00  0.00    -0.127 NA
ATOM      8  N   UNL d   1      58.222   0.610  28.898  0.00  0.00    -0.120 NA
ENDROOT
BRANCH   4   9
ATOM      9  C   UNL d   1      59.255  -1.244  29.148  0.00  0.00     0.040 A 
ATOM     10  C   UNL d   1      58.904  -1.948  28.903  0.00  0.00     0.029 A 
ATOM     11  C   UNL d   1      59.353  -2.629  28.848  0.00  0.00     0.116 A 
ATOM     12  C   UNL d   1      60.160  -2.616  29.037  0.00  0.00     0.116 A 
ATOM     13  C   UNL d   1      60.510  -1.906  29.283  0.00  0.00     0.026 A 
ATOM     14  C   UNL d   1      60.054  -1.223  29.337  0.00  0.00     0.005 A 
BRANCH  11  15
ATOM     15  O   UNL d   1      59.010  -3.341  28.603  0.00  0.00    -0.326 OA
ATOM     16  C   UNL d   1      58.203  -3.389  28.456  0.00  0.00     0.181 C 
ENDBRANCH  11  15
BRANCH  12  17
ATOM     17  O   UNL d   1      60.625  -3.303  28.983  0.00  0.00    -0.326 OA
ATOM     18  C   UNL d   1      61.133  -3.491  29.602  0.00  0.00     0.181 C 
ENDBRANCH  12  17
ENDBRANCH   4   9
BRANCH   5  19
ATOM     19  C   UNL d   1      57.164   0.011  31.600  0.00  0.00     0.126 A 
ATOM     20  O   UNL d   1      56.571  -0.506  31.834  0.00  0.00    -0.298 OA
ATOM     21  C   UNL d   1      56.350  -0.310  32.604  0.00  0.00     0.134 A 
ATOM     22 BR   UNL d   1      55.769  -0.692  33.051  0.00  0.00    -0.022 Br
ATOM     23  C   UNL d   1      56.804   0.329  32.849  0.00  0.00     0.034 A 
ATOM     24  C   UNL d   1      57.312   0.530  32.225  0.00  0.00     0.029 A 
ENDBRANCH   5  19
TORSDOF 4
ENDMDL
MODEL 2
REMARK VINA RESULT:      -4.2      1.768      4.389
REMARK  4 active torsions:
REMARK  status: ('A' for Active; 'I' for Inactive)
REMARK    1  A    between atoms: C_11  and  C_4 
REMARK    2  A    between atoms: C_9  and  C_5 
REMARK    3  A    between atoms: O_21  and  C_16 
REMARK    4  A    between atoms: O_22  and  C_17 
ROOT
ATOM      1  N   UNL d   1      58.484  -0.364  29.772  0.00  0.00    -0.185 N 
ATOM      2  C   UNL d   1      58.492  -0.212  28.957  0.00  0.00     0.219 A 
ATOM      3  N   UNL d   1      59.016  -0.970  29.920  0.00  0.00    -0.153 NA
ATOM      4  C   UNL d   1      57.945   0.152  30.124  0.00  0.00     0.187 A 
ATOM      5  C   UNL d   1      59.358  -1.200  29.200  0.00  0.00     0.156 A 
ATOM      6  S   UNL d   1      59.031  -0.728  28.604  0.00  0.00    -0.024 SA
ATOM      7  N   UNL d   1      57.621   0.622  29.526  0.00  0.00    -0.127 NA
ATOM      8  N   UNL d   1      57.954   0.402  28.807  0.00  0.00    -0.120 NA
ENDROOT
BRANCH   4   9
ATOM      9  C   UNL d   1      57.762   0.194  30.925  0.00  0.00     0.040 A 
ATOM     10  C   UNL d   1      57.108  -0.216  31.211  0.00  0.00     0.029 A 
ATOM     11  C   UNL d   1      56.920  -0.179  32.006  0.00  0.00     0.116 A 
ATOM     12  C   UNL d   1      57.384   0.269  32.527  0.00  0.00     0.116 A 
ATOM     13  C   UNL d   1      58.043   0.681  32.235  0.00  0.00     0.026 A 
ATOM     14  C   UNL d   1      58.227   0.640  31.434  0.00  0.00     0.005 A 
BRANCH  11  15
ATOM     15  O   UNL d   1      56.265  -0.587  32.304  0.00  0.00    -0.326 OA
ATOM     16  C   UNL d   1      56.203  -1.402  32.219  0.00  0.00     0.181 C 
ENDBRANCH  11  15
BRANCH  12  17
ATOM     17  O   UNL d   1      57.202   0.314  33.336  0.00  0.00    -0.326 OA
ATOM     18  C   UNL d   1      57.731   0.682  33.846  0.00  0.00     0.181 C 
ENDBRANCH  12  17
ENDBRANCH   4   9
BRANCH   5  19
ATOM     19  C   UNL d   1      59.922  -1.792  29.096  0.00  0.00     0.126 A 
ATOM     20  O   UNL d   1      59.774  -2.583  28.936  0.00  0.00    -0.298 OA
ATOM     21  C   UNL d   1      60.498  -2.974  28.876  0.00  0.00     0.134 A 
ATOM     22 BR   UNL d   1      60.601  -3.779  28.719  0.00  0.00    -0.022 Br
ATOM     23  C   UNL d   1      61.097  -2.425  28.999  0.00  0.00     0.034 A 
ATOM     24  C   UNL d   1      60.741  -1.689  29.136  0.00  0.00     0.029 A 
ENDBRANCH   5  19
TORSDOF 4
ENDMDL
MODEL 3
REMARK VINA RESULT:      -1.8      8.671      9.025
REMARK  4 active torsions:
REMARK  status: ('A' for Active; 'I' for Inactive)
REMARK    1  A    between atoms: C_11  and  C_4 
REMARK    2  A    between atoms: C_9  and  C_5 
REMARK    3  A    between atoms: O_21  and  C_16 
REMARK    4  A    between atoms: O_22  and  C_17 
ROOT
ATOM      1  N   UNL d   1      59.911  -9.339  32.814  0.00  0.00    -0.185 N 
ATOM      2  C   UNL d   1      60.710  -9.382  33.030  0.00  0.00     0.219 A 
ATOM      3  N   UNL d   1      59.491  -9.044  33.455  0.00  0.00    -0.153 NA
ATOM      4  C   UNL d   1      59.840  -9.609  32.038  0.00  0.00     0.187 A 
ATOM      5  C   UNL d   1      60.026  -8.902  34.073  0.00  0.00     0.156 A 
ATOM      6  S   UNL d   1      60.781  -9.112  33.808  0.00  0.00    -0.024 SA
ATOM      7  N   UNL d   1      60.595  -9.818  31.776  0.00  0.00    -0.127 NA
ATOM      8  N   UNL d   1      61.133  -9.681  32.382  0.00  0.00    -0.120 NA
ENDROOT
BRANCH   4   9
ATOM      9  C   UNL d   1      59.145  -9.661  31.601  0.00  0.00     0.040 A 
ATOM     10  C   UNL d   1      59.183  -9.651  30.778  0.00  0.00     0.029 A 
ATOM     11  C   UNL d   1      58.496  -9.702  30.339  0.00  0.00     0.116 A 
ATOM     12  C   UNL d   1      57.760  -9.765  30.715  0.00  0.00     0.116 A 
ATOM     13  C   UNL d   1      57.725  -9.775  31.543  0.00  0.00     0.026 A 
ATOM     14  C   UNL d   1      58.419  -9.723  31.981  0.00  0.00     0.005 A 
BRANCH  11  15
ATOM     15  O   UNL d   1      58.524  -9.693  29.511  0.00  0.00    -0.326 OA
ATOM     16  C   UNL d   1      59.238  -9.776  29.114  0.00  0.00     0.181 C 
ENDBRANCH  11  15
BRANCH  12  17
ATOM     17  O   UNL d   1      57.056  -9.818  30.276  0.00  0.00    -0.326 OA
ATOM     18  C   UNL d   1      56.335  -9.758  30.668  0.00  0.00     0.181 C 
ENDBRANCH  12  17
ENDBRANCH   4   9
BRANCH   5  19
ATOM     19  C   UNL d   1      59.839  -8.604  34.819  0.00  0.00     0.126 A 
ATOM     20  O   UNL d   1      59.788  -7.812  35.028  0.00  0.00    -0.298 OA
ATOM     21  C   UNL d   1      59.587  -7.770  35.827  0.00  0.00     0.134 A 
ATOM     22 BR   UNL d   1      59.479  -7.075  36.262  0.00  0.00    -0.022 Br
ATOM     23  C   UNL d   1      59.512  -8.535  36.115  0.00  0.00     0.034 A 
ATOM     24  C   UNL d   1      59.669  -9.056  35.489  0.00  0.00     0.029 A 
ENDBRANCH   5  19
TORSDOF 4
ENDMDL
