MODEL 1
REMARK VINA RESULT:      74.5      0.000      0.000
REMARK  5 active torsions:
REMARK  status: ('A' for Active; 'I' for Inactive)
REMARK    1  A    between atoms: C_3  and  C_1 
REMARK    2  A    between atoms: N_8  and  C_3 
REMARK    3  A    between atoms: C_9  and  C_3 
REMARK    4  A    between atoms: C_17  and  C_7 
REMARK    5  A    between atoms: C_10  and  N_8 
ROOT
ATOM      1  C   UNL d   1     -50.927  26.063  33.842  0.00  0.00     0.109 C 
ENDROOT
BRANCH   1   2
ATOM      2  C   UNL d   1     -50.711  26.425  34.552  0.00  0.00     0.160 A 
ATOM      3  C   UNL d   1     -50.053  26.931  34.599  0.00  0.00     0.258 A 
ATOM      4  C   UNL d   1     -49.858  27.284  35.337  0.00  0.00     0.238 A 
ATOM      5  O   UNL d   1     -49.603  27.081  33.935  0.00  0.00    -0.281 OA
ATOM      6  O   UNL d   1     -49.199  27.791  35.383  0.00  0.00    -0.283 OA
ATOM      7  C   UNL d   1     -50.308  27.134  36.000  0.00  0.00     0.073 A 
ATOM      8  C   UNL d   1     -50.966  26.628  35.954  0.00  0.00     0.146 A 
ATOM      9  O   UNL d   1     -51.167  26.278  35.244  0.00  0.00    -0.299 OA
BRANCH   8  10
ATOM     10  C   UNL d   1     -51.420  26.480  36.638  0.00  0.00     0.259 C 
ATOM     11  O   UNL d   1     -52.198  26.165  36.586  0.00  0.00    -0.281 OA
ENDBRANCH   8  10
ENDBRANCH   1   2
BRANCH   1  12
ATOM     12  N   UNL d   1     -50.358  25.788  33.306  0.00  0.00    -0.225 NA
BRANCH  12  13
ATOM     13  C   UNL d   1     -50.036  25.045  33.389  0.00  0.00     0.163 A 
ATOM     14  N   UNL d   1     -49.233  24.952  33.554  0.00  0.00    -0.225 NA
ATOM     15  C   UNL d   1     -48.916  24.197  33.636  0.00  0.00     0.101 A 
ATOM     16  C   UNL d   1     -49.397  23.535  33.554  0.00  0.00     0.021 A 
ATOM     17  C   UNL d   1     -50.203  23.607  33.388  0.00  0.00     0.005 A 
ATOM     18  C   UNL d   1     -50.524  24.358  33.306  0.00  0.00     0.039 A 
ENDBRANCH  12  13
ENDBRANCH   1  12
BRANCH   1  19
ATOM     19  C   UNL d   1     -51.739  25.974  33.665  0.00  0.00     0.022 A 
ATOM     20  C   UNL d   1     -52.219  26.639  33.574  0.00  0.00     0.031 A 
ATOM     21  C   UNL d   1     -53.016  26.543  33.400  0.00  0.00     0.140 A 
ATOM     22  F   UNL d   1     -53.507  27.213  33.307  0.00  0.00    -0.204 F 
ATOM     23  C   UNL d   1     -53.336  25.789  33.316  0.00  0.00     0.030 A 
ATOM     24  C   UNL d   1     -52.862  25.121  33.406  0.00  0.00     0.002 A 
ATOM     25  C   UNL d   1     -52.059  25.219  33.581  0.00  0.00     0.002 A 
ENDBRANCH   1  19
TORSDOF 5
ENDMDL
