MODEL 1
REMARK VINA RESULT:      56.7      0.000      0.000
REMARK  5 active torsions:
REMARK  status: ('A' for Active; 'I' for Inactive)
REMARK    1  A    between atoms: N_10  and  C_4 
REMARK    2  A    between atoms: C_11  and  N_5 
REMARK    3  A    between atoms: C_14  and  N_10 
REMARK    4  A    between atoms: C_15  and  C_11 
REMARK    5  A    between atoms: C_18  and  C_14 
ROOT
ATOM      1  C   UNL d   1      14.731  15.760  -3.059  0.00  0.00     0.191 A 
ATOM      2  C   UNL d   1      14.794  15.920  -2.294  0.00  0.00     0.174 A 
ATOM      3  N   UNL d   1      14.406  15.081  -3.315  0.00  0.00    -0.042 NA
ATOM      4  C   UNL d   1      14.145  14.564  -2.786  0.00  0.00     0.722 A 
ATOM      5  N   UNL d   1      14.205  14.719  -1.994  0.00  0.00    -0.132 N 
ATOM      6  N   UNL d   1      14.998  16.288  -3.603  0.00  0.00    -0.239 N 
ATOM      7  C   UNL d   1      15.325  16.970  -3.374  0.00  0.00     0.358 A 
ATOM      8  N   UNL d   1      15.389  17.133  -2.596  0.00  0.00    -0.152 NA
ATOM      9  C   UNL d   1      15.125  16.611  -2.056  0.00  0.00     0.303 A 
ATOM     10  O   UNL d   1      15.591  17.498  -3.918  0.00  0.00    -0.244 OA
ATOM     11  O   UNL d   1      15.191  16.778  -1.259  0.00  0.00    -0.263 OA
ATOM     12  C   UNL d   1      14.933  16.124  -4.389  0.00  0.00     0.105 C 
ENDROOT
BRANCH   4  13
ATOM     13  N   UNL d   1      13.818  13.881  -3.024  0.00  0.00    -0.137 N 
ATOM     14  C   UNL d   1      13.911  13.088  -2.819  0.00  0.00     0.118 C 
BRANCH  13  15
ATOM     15  C   UNL d   1      13.242  13.883  -3.611  0.00  0.00     0.098 C 
BRANCH  15  16
ATOM     16  C   UNL d   1      13.088  13.193  -4.043  0.00  0.00     0.018 A 
ATOM     17  C   UNL d   1      12.961  13.244  -4.863  0.00  0.00     0.002 A 
ATOM     18  C   UNL d   1      12.808  12.554  -5.295  0.00  0.00     0.000 A 
ATOM     19  C   UNL d   1      12.782  11.822  -4.909  0.00  0.00     0.000 A 
ATOM     20  C   UNL d   1      12.910  11.779  -4.089  0.00  0.00     0.000 A 
ATOM     21  C   UNL d   1      13.064  12.469  -3.657  0.00  0.00     0.002 A 
ENDBRANCH  15  16
ENDBRANCH  13  15
ENDBRANCH   4  13
BRANCH   5  22
ATOM     22  C   UNL d   1      14.084  14.501  -1.208  0.00  0.00     0.098 C 
BRANCH  22  23
ATOM     23  C   UNL d   1      14.601  13.972  -0.839  0.00  0.00     0.018 A 
ATOM     24  C   UNL d   1      14.462  13.169  -0.912  0.00  0.00     0.002 A 
ATOM     25  C   UNL d   1      14.979  12.640  -0.543  0.00  0.00     0.000 A 
ATOM     26  C   UNL d   1      15.031  11.819  -0.486  0.00  0.00     0.000 C 
ATOM     27  C   UNL d   1      15.627  12.923  -0.107  0.00  0.00     0.000 A 
ATOM     28  C   UNL d   1      15.748  13.739  -0.046  0.00  0.00     0.000 A 
ATOM     29  C   UNL d   1      15.236  14.262  -0.411  0.00  0.00     0.002 A 
ENDBRANCH  22  23
ENDBRANCH   5  22
TORSDOF 5
ENDMDL
