MODEL 1
REMARK VINA RESULT:      22.1      0.000      0.000
REMARK  2 active torsions:
REMARK  status: ('A' for Active; 'I' for Inactive)
REMARK       I    between atoms: N_2  and  C_1 
REMARK       I    between atoms: N_3  and  C_1 
REMARK    1  A    between atoms: C_6  and  N_2 
REMARK    2  A    between atoms: C_5  and  N_3 
ROOT
ATOM      1  C   UNL d   1     -57.148 -98.990 -45.080  0.00  0.00     0.369 C 
ATOM      2  N   UNL d   1     -56.375 -99.103 -45.299  0.00  0.00    -0.191 NA
ATOM      3  N   UNL d   1     -57.371 -99.098 -44.309  0.00  0.00    -0.191 NA
ATOM      4  O   UNL d   1     -57.769 -98.756 -45.622  0.00  0.00    -0.242 OA
ENDROOT
BRANCH   2   5
ATOM      5  C   UNL d   1     -55.827 -99.326 -44.737  0.00  0.00     0.086 A 
ATOM      6  C   UNL d   1     -55.671-100.121 -44.607  0.00  0.00     0.019 A 
ATOM      7  C   UNL d   1     -55.118-100.368 -44.040  0.00  0.00     0.002 A 
ATOM      8  C   UNL d   1     -54.711 -99.791 -43.593  0.00  0.00     0.000 A 
ATOM      9  C   UNL d   1     -54.871 -98.986 -43.726  0.00  0.00     0.002 A 
ATOM     10  C   UNL d   1     -55.425 -98.755 -44.294  0.00  0.00     0.019 A 
ENDBRANCH   2   5
BRANCH   3  11
ATOM     11  C   UNL d   1     -58.146 -98.985 -44.086  0.00  0.00     0.086 A 
ATOM     12  C   UNL d   1     -58.336 -98.901 -43.294  0.00  0.00     0.019 A 
ATOM     13  C   UNL d   1     -59.119 -98.787 -43.058  0.00  0.00     0.002 A 
ATOM     14  C   UNL d   1     -59.722 -98.756 -43.635  0.00  0.00     0.000 A 
ATOM     15  C   UNL d   1     -59.527 -98.840 -44.433  0.00  0.00     0.002 A 
ATOM     16  C   UNL d   1     -58.741 -98.955 -44.655  0.00  0.00     0.019 A 
ENDBRANCH   3  11
TORSDOF 2
ENDMDL
