MODEL 1
REMARK VINA RESULT:      57.9      0.000      0.000
REMARK  6 active torsions:
REMARK  status: ('A' for Active; 'I' for Inactive)
REMARK    1  A    between atoms: N_7  and  C_1 
REMARK    2  A    between atoms: C_6  and  C_4 
REMARK    3  A    between atoms: C_20  and  N_9 
REMARK    4  A    between atoms: C_23  and  C_13 
REMARK    5  A    between atoms: O_19  and  C_23 
REMARK    6  A    between atoms: C_21  and  O_19 
ROOT
ATOM      1  C   UNL d   1      45.794 -17.844  40.544  0.00  0.00     0.198 A 
ATOM      2  C   UNL d   1      45.984 -18.280  39.864  0.00  0.00     0.191 A 
ATOM      3  O   UNL d   1      45.490 -17.119  40.317  0.00  0.00    -0.268 OA
ATOM      4  C   UNL d   1      45.487 -17.093  39.515  0.00  0.00     0.208 A 
ATOM      5  N   UNL d   1      45.790 -17.805  39.219  0.00  0.00    -0.206 NA
ATOM      6  C   UNL d   1      46.311 -19.055  39.813  0.00  0.00     0.124 C 
ATOM      7  N   UNL d   1      46.637 -19.827  39.769  0.00  0.00    -0.190 NA
ENDROOT
BRANCH   1   8
ATOM      8  N   UNL d   1      45.929 -18.182  41.290  0.00  0.00    -0.280 N 
ATOM      9  C   UNL d   1      46.507 -17.876  41.765  0.00  0.00     0.101 A 
ATOM     10  C   UNL d   1      46.642 -18.212  42.507  0.00  0.00     0.100 A 
ATOM     11  N   UNL d   1      46.195 -18.846  42.753  0.00  0.00    -0.301 N 
ATOM     12  C   UNL d   1      45.596 -19.166  42.264  0.00  0.00     0.100 A 
ATOM     13  C   UNL d   1      45.461 -18.829  41.523  0.00  0.00     0.101 A 
BRANCH  11  14
ATOM     14  C   UNL d   1      46.328 -19.181  43.490  0.00  0.00     0.064 A 
ATOM     15  C   UNL d   1      46.370 -19.988  43.564  0.00  0.00     0.018 A 
ATOM     16  C   UNL d   1      46.505 -20.326  44.309  0.00  0.00     0.002 A 
ATOM     17  C   UNL d   1      46.594 -19.845  44.953  0.00  0.00     0.000 A 
ATOM     18  C   UNL d   1      46.554 -19.021  44.893  0.00  0.00     0.002 A 
ATOM     19  C   UNL d   1      46.419 -18.682  44.147  0.00  0.00     0.018 A 
ENDBRANCH  11  14
ENDBRANCH   1   8
BRANCH   4  20
ATOM     20  C   UNL d   1      45.378 -16.815  38.738  0.00  0.00     0.141 A 
ATOM     21  O   UNL d   1      44.951 -16.775  38.040  0.00  0.00    -0.301 OA
ATOM     22  C   UNL d   1      45.370 -16.284  37.540  0.00  0.00     0.125 A 
ATOM     23  C   UNL d   1      46.034 -16.012  37.880  0.00  0.00     0.029 A 
ATOM     24  C   UNL d   1      46.054 -16.335  38.630  0.00  0.00     0.030 A 
BRANCH  22  25
ATOM     25  C   UNL d   1      45.155 -16.074  36.765  0.00  0.00     0.147 C 
BRANCH  25  26
ATOM     26  O   UNL d   1      44.618 -15.471  36.599  0.00  0.00    -0.303 OA
BRANCH  26  27
ATOM     27  C   UNL d   1      43.830 -15.579  36.685  0.00  0.00     0.100 A 
ATOM     28  C   UNL d   1      43.377 -15.061  37.137  0.00  0.00     0.023 A 
ATOM     29  C   UNL d   1      43.750 -14.394  37.522  0.00  0.00     0.002 C 
ATOM     30  C   UNL d   1      42.577 -15.150  37.240  0.00  0.00     0.002 A 
ATOM     31  C   UNL d   1      42.203 -15.796  36.870  0.00  0.00     0.000 A 
ATOM     32  C   UNL d   1      42.635 -16.325  36.414  0.00  0.00     0.002 A 
ATOM     33  C   UNL d   1      43.442 -16.205  36.331  0.00  0.00     0.025 A 
ENDBRANCH  26  27
ENDBRANCH  25  26
ENDBRANCH  22  25
ENDBRANCH   4  20
TORSDOF 6
ENDMDL
