MODEL 1
REMARK VINA RESULT:      82.3      0.000      0.000
REMARK  1 active torsions:
REMARK  status: ('A' for Active; 'I' for Inactive)
REMARK    1  A    between atoms: C_24  and  N_4 
ROOT
ATOM      1  C   UNL d   1      14.050  13.054  -2.104  0.00  0.00     0.111 A 
ATOM      2  C   UNL d   1      13.654  13.187  -3.450  0.00  0.00     0.062 A 
ATOM      3  C   UNL d   1      13.955  13.498  -2.780  0.00  0.00     0.018 A 
ATOM      4  N   UNL d   1      14.992  17.082  -2.612  0.00  0.00    -0.305 N 
ATOM      5  C   UNL d   1      13.826  12.252  -2.117  0.00  0.00     0.213 A 
ATOM      6  C   UNL d   1      13.430  12.385  -3.463  0.00  0.00     0.101 A 
ATOM      7  C   UNL d   1      14.828  15.871  -2.086  0.00  0.00     0.018 A 
ATOM      8  C   UNL d   1      14.731  16.320  -2.771  0.00  0.00     0.064 A 
ATOM      9  O   UNL d   1      13.512  11.914  -2.806  0.00  0.00    -0.288 OA
ATOM     10  C   UNL d   1      13.557  13.632  -4.133  0.00  0.00     0.194 A 
ATOM     11  C   UNL d   1      15.244  17.103  -1.845  0.00  0.00     0.064 A 
ATOM     12  C   UNL d   1      14.298  14.727  -2.760  0.00  0.00     0.001 A 
ATOM     13  C   UNL d   1      15.147  16.359  -1.509  0.00  0.00     0.018 A 
ATOM     14  C   UNL d   1      14.609  15.066  -2.082  0.00  0.00     0.002 A 
ATOM     15  C   UNL d   1      14.364  13.385  -1.411  0.00  0.00     0.105 C 
ATOM     16  N   UNL d   1      14.687  13.723  -0.692  0.00  0.00    -0.191 NA
ATOM     17  C   UNL d   1      14.416  15.955  -3.441  0.00  0.00     0.018 A 
ATOM     18  C   UNL d   1      13.114  12.048  -4.159  0.00  0.00     0.002 A 
ATOM     19  C   UNL d   1      13.027  12.521  -4.833  0.00  0.00     0.042 A 
ATOM     20  C   UNL d   1      13.251  13.323  -4.819  0.00  0.00     0.019 A 
ATOM     21  C   UNL d   1      14.203  15.163  -3.428  0.00  0.00     0.002 A 
ATOM     22  O   UNL d   1      13.783  14.444  -4.120  0.00  0.00    -0.287 OA
ATOM     23  N   UNL d   1      13.915  11.779  -1.438  0.00  0.00    -0.120 N 
ATOM     24  C   UNL d   1      15.563  17.716  -1.373  0.00  0.00     0.018 A 
ATOM     25  C   UNL d   1      15.368  16.223  -0.707  0.00  0.00     0.002 A 
ATOM     26  C   UNL d   1      12.804  12.595  -5.589  0.00  0.00     0.009 C 
ATOM     27  C   UNL d   1      12.769  11.779  -5.004  0.00  0.00     0.009 C 
ATOM     28  C   UNL d   1      15.682  16.834  -0.252  0.00  0.00     0.000 A 
ATOM     29  C   UNL d   1      15.778  17.584  -0.593  0.00  0.00     0.002 A 
ENDROOT
BRANCH   4  30
ATOM     30  C   UNL d   1      15.005  17.722  -3.117  0.00  0.00     0.080 C 
ATOM     31  C   UNL d   1      15.241  17.636  -3.904  0.00  0.00     0.021 C 
ENDBRANCH   4  30
TORSDOF 1
ENDMDL
