MODEL 1
REMARK VINA RESULT:      -6.1      0.000      0.000
REMARK  4 active torsions:
REMARK  status: ('A' for Active; 'I' for Inactive)
REMARK    1  A    between atoms: C_7  and  C_1 
REMARK    2  A    between atoms: N_6  and  C_3 
REMARK       I    between atoms: C_8  and  N_6 
REMARK    3  A    between atoms: C_12  and  C_8 
REMARK    4  A    between atoms: C_15  and  C_12 
ROOT
ATOM      1  C   UNL d   1      58.676  -1.171  29.478  0.00  0.00     0.206 A 
ATOM      2  O   UNL d   1      58.867  -0.853  30.213  0.00  0.00    -0.253 OA
ATOM      3  C   UNL d   1      58.390  -0.169  30.337  0.00  0.00     0.297 A 
ATOM      4  N   UNL d   1      58.080  -0.690  29.139  0.00  0.00    -0.119 NA
ATOM      5  N   UNL d   1      57.912  -0.081  29.672  0.00  0.00    -0.101 NA
ENDROOT
BRANCH   3   6
ATOM      6  N   UNL d   1      58.406   0.302  30.988  0.00  0.00    -0.165 NA
ATOM      7  C   UNL d   1      57.845   0.193  31.575  0.00  0.00     0.282 C 
ATOM      8  O   UNL d   1      57.859   0.680  32.252  0.00  0.00    -0.265 OA
BRANCH   7   9
ATOM      9  C   UNL d   1      57.267  -0.386  31.510  0.00  0.00     0.063 C 
BRANCH   9  10
ATOM     10  C   UNL d   1      56.656  -0.434  32.060  0.00  0.00     0.005 A 
ATOM     11  C   UNL d   1      56.227   0.249  32.268  0.00  0.00     0.003 A 
ATOM     12  C   UNL d   1      55.616   0.189  32.821  0.00  0.00     0.030 A 
ATOM     13  C   UNL d   1      55.425  -0.529  33.166  0.00  0.00     0.140 A 
ATOM     14  C   UNL d   1      55.850  -1.205  32.960  0.00  0.00     0.030 A 
ATOM     15  F   UNL d   1      54.818  -0.584  33.713  0.00  0.00    -0.204 F 
ATOM     16  C   UNL d   1      56.465  -1.164  32.408  0.00  0.00     0.003 A 
ENDBRANCH   9  10
ENDBRANCH   7   9
ENDBRANCH   3   6
BRANCH   1  17
ATOM     17  C   UNL d   1      59.007  -1.833  29.142  0.00  0.00     0.043 A 
ATOM     18  C   UNL d   1      59.822  -1.829  28.934  0.00  0.00     0.004 A 
ATOM     19  C   UNL d   1      60.164  -2.496  28.594  0.00  0.00     0.000 A 
ATOM     20  C   UNL d   1      60.277  -1.163  29.069  0.00  0.00     0.000 C 
ATOM     21  C   UNL d   1      59.708  -3.174  28.455  0.00  0.00     0.000 A 
ATOM     22  C   UNL d   1      58.898  -3.168  28.666  0.00  0.00     0.000 A 
ATOM     23  C   UNL d   1      58.563  -2.491  29.008  0.00  0.00     0.004 A 
ATOM     24  C   UNL d   1      58.425  -3.831  28.537  0.00  0.00     0.000 C 
ENDBRANCH   1  17
TORSDOF 4
ENDMDL
MODEL 2
REMARK VINA RESULT:      -4.6      0.996      1.335
REMARK  4 active torsions:
REMARK  status: ('A' for Active; 'I' for Inactive)
REMARK    1  A    between atoms: C_7  and  C_1 
REMARK    2  A    between atoms: N_6  and  C_3 
REMARK       I    between atoms: C_8  and  N_6 
REMARK    3  A    between atoms: C_12  and  C_8 
REMARK    4  A    between atoms: C_15  and  C_12 
ROOT
ATOM      1  C   UNL d   1      59.503  -1.772  29.147  0.00  0.00     0.206 A 
ATOM      2  O   UNL d   1      58.803  -1.348  29.058  0.00  0.00    -0.253 OA
ATOM      3  C   UNL d   1      58.929  -0.566  29.350  0.00  0.00     0.297 A 
ATOM      4  N   UNL d   1      60.069  -1.260  29.495  0.00  0.00    -0.119 NA
ATOM      5  N   UNL d   1      59.707  -0.526  29.614  0.00  0.00    -0.101 NA
ENDROOT
BRANCH   3   6
ATOM      6  N   UNL d   1      58.381   0.022  29.362  0.00  0.00    -0.165 NA
ATOM      7  C   UNL d   1      57.850   0.062  29.984  0.00  0.00     0.282 C 
ATOM      8  O   UNL d   1      57.280   0.671  30.000  0.00  0.00    -0.265 OA
BRANCH   7   9
ATOM      9  C   UNL d   1      57.866  -0.487  30.594  0.00  0.00     0.063 C 
BRANCH   9  10
ATOM     10  C   UNL d   1      57.408  -0.379  31.271  0.00  0.00     0.005 A 
ATOM     11  C   UNL d   1      57.517   0.298  31.744  0.00  0.00     0.003 A 
ATOM     12  C   UNL d   1      57.053   0.397  32.420  0.00  0.00     0.030 A 
ATOM     13  C   UNL d   1      56.490  -0.159  32.633  0.00  0.00     0.140 A 
ATOM     14  C   UNL d   1      56.383  -0.830  32.164  0.00  0.00     0.030 A 
ATOM     15  F   UNL d   1      56.032  -0.058  33.304  0.00  0.00    -0.204 F 
ATOM     16  C   UNL d   1      56.839  -0.944  31.483  0.00  0.00     0.003 A 
ENDBRANCH   9  10
ENDBRANCH   7   9
ENDBRANCH   3   6
BRANCH   1  17
ATOM     17  C   UNL d   1      59.623  -2.547  28.937  0.00  0.00     0.043 A 
ATOM     18  C   UNL d   1      60.409  -2.839  28.858  0.00  0.00     0.004 A 
ATOM     19  C   UNL d   1      60.538  -3.623  28.645  0.00  0.00     0.000 A 
ATOM     20  C   UNL d   1      61.046  -2.343  28.993  0.00  0.00     0.000 C 
ATOM     21  C   UNL d   1      59.895  -4.129  28.506  0.00  0.00     0.000 A 
ATOM     22  C   UNL d   1      59.118  -3.829  28.587  0.00  0.00     0.000 A 
ATOM     23  C   UNL d   1      58.999  -3.037  28.803  0.00  0.00     0.004 A 
ATOM     24  C   UNL d   1      58.464  -4.313  28.455  0.00  0.00     0.000 C 
ENDBRANCH   1  17
TORSDOF 4
ENDMDL
