MODEL 1
REMARK VINA RESULT:      48.6      0.000      0.000
REMARK  7 active torsions:
REMARK  status: ('A' for Active; 'I' for Inactive)
REMARK    1  A    between atoms: C_3  and  C_1 
REMARK    2  A    between atoms: C_4  and  C_1 
REMARK    3  A    between atoms: N_2  and  C_6 
REMARK    4  A    between atoms: C_6  and  C_13 
REMARK    5  A    between atoms: O_12  and  C_14 
REMARK    6  A    between atoms: C_16  and  O_12 
REMARK    7  A    between atoms: C_13  and  C_16 
ROOT
ATOM      1  C   UNL d   1     -50.187  25.061  33.522  0.00  0.00     0.039 A 
ATOM      2  C   UNL d   1     -50.664  25.694  33.769  0.00  0.00     0.005 A 
ATOM      3  C   UNL d   1     -49.408  25.197  33.306  0.00  0.00     0.005 A 
ATOM      4  C   UNL d   1     -49.575  26.581  33.578  0.00  0.00     0.100 A 
ATOM      5  C   UNL d   1     -50.354  26.444  33.794  0.00  0.00     0.025 A 
ATOM      6  C   UNL d   1     -49.101  25.967  33.336  0.00  0.00     0.025 A 
ENDROOT
BRANCH   4   7
ATOM      7  O   UNL d   1     -49.269  27.359  33.609  0.00  0.00    -0.302 OA
BRANCH   7   8
ATOM      8  C   UNL d   1     -49.169  27.759  34.343  0.00  0.00     0.166 C 
BRANCH   8   9
ATOM      9  C   UNL d   1     -48.698  28.445  34.384  0.00  0.00     0.238 C 
ATOM     10  O   UNL d   1     -48.914  29.121  33.962  0.00  0.00    -0.283 OA
BRANCH   9  11
ATOM     11  C   UNL d   1     -48.012  28.448  34.849  0.00  0.00     0.125 C 
BRANCH  11  12
ATOM     12  N   UNL d   1     -47.871  29.071  35.380  0.00  0.00    -0.296 N 
ATOM     13  C   UNL d   1     -47.858  29.848  35.106  0.00  0.00     0.107 A 
ATOM     14  C   UNL d   1     -47.716  30.462  35.644  0.00  0.00     0.142 A 
ATOM     15  O   UNL d   1     -47.589  30.297  36.451  0.00  0.00    -0.300 OA
ATOM     16  C   UNL d   1     -47.605  29.514  36.711  0.00  0.00     0.142 A 
ATOM     17  C   UNL d   1     -47.745  28.898  36.185  0.00  0.00     0.107 A 
ENDBRANCH  11  12
ENDBRANCH   9  11
ENDBRANCH   8   9
ENDBRANCH   7   8
ENDBRANCH   4   7
BRANCH   1  18
ATOM     18  C   UNL d   1     -50.496  24.298  33.495  0.00  0.00     0.196 C 
ATOM     19  O   UNL d   1     -49.992  23.647  33.514  0.00  0.00    -0.287 OA
BRANCH  18  20
ATOM     20  C   UNL d   1     -51.311  24.189  33.448  0.00  0.00     0.039 A 
ATOM     21  C   UNL d   1     -51.626  23.424  33.463  0.00  0.00     0.004 A 
ATOM     22  C   UNL d   1     -52.438  23.310  33.416  0.00  0.00     0.011 A 
ATOM     23  C   UNL d   1     -52.942  23.965  33.353  0.00  0.00     0.058 A 
ATOM     24  C   UNL d   1     -52.627  24.728  33.338  0.00  0.00     0.011 A 
ATOM     25 CL   UNL d   1     -53.756  23.855  33.306  0.00  0.00    -0.082 Cl
ATOM     26  C   UNL d   1     -51.810  24.836  33.385  0.00  0.00     0.004 A 
ENDBRANCH  18  20
ENDBRANCH   1  18
TORSDOF 7
ENDMDL
MODEL 2
REMARK VINA RESULT:      49.9      1.316      1.829
REMARK  7 active torsions:
REMARK  status: ('A' for Active; 'I' for Inactive)
REMARK    1  A    between atoms: C_3  and  C_1 
REMARK    2  A    between atoms: C_4  and  C_1 
REMARK    3  A    between atoms: N_2  and  C_6 
REMARK    4  A    between atoms: C_6  and  C_13 
REMARK    5  A    between atoms: O_12  and  C_14 
REMARK    6  A    between atoms: C_16  and  O_12 
REMARK    7  A    between atoms: C_13  and  C_16 
ROOT
ATOM      1  C   UNL d   1     -50.907  26.900  33.775  0.00  0.00     0.039 A 
ATOM      2  C   UNL d   1     -50.477  26.559  34.397  0.00  0.00     0.005 A 
ATOM      3  C   UNL d   1     -50.636  27.588  33.420  0.00  0.00     0.005 A 
ATOM      4  C   UNL d   1     -49.518  27.598  34.294  0.00  0.00     0.100 A 
ATOM      5  C   UNL d   1     -49.789  26.910  34.649  0.00  0.00     0.025 A 
ATOM      6  C   UNL d   1     -49.933  27.939  33.685  0.00  0.00     0.025 A 
ENDROOT
BRANCH   4   7
ATOM      7  O   UNL d   1     -48.807  27.949  34.565  0.00  0.00    -0.302 OA
BRANCH   7   8
ATOM      8  C   UNL d   1     -48.759  28.775  34.717  0.00  0.00     0.166 C 
BRANCH   8   9
ATOM      9  C   UNL d   1     -48.054  29.105  35.012  0.00  0.00     0.238 C 
ATOM     10  O   UNL d   1     -47.764  28.873  35.749  0.00  0.00    -0.283 OA
BRANCH   9  11
ATOM     11  C   UNL d   1     -47.643  29.667  34.563  0.00  0.00     0.125 C 
BRANCH  11  12
ATOM     12  N   UNL d   1     -47.513  30.429  34.866  0.00  0.00    -0.296 N 
ATOM     13  C   UNL d   1     -47.474  31.075  34.355  0.00  0.00     0.107 A 
ATOM     14  C   UNL d   1     -47.344  31.830  34.668  0.00  0.00     0.142 A 
ATOM     15  O   UNL d   1     -47.254  31.939  35.490  0.00  0.00    -0.300 OA
ATOM     16  C   UNL d   1     -47.296  31.283  35.990  0.00  0.00     0.142 A 
ATOM     17  C   UNL d   1     -47.424  30.529  35.689  0.00  0.00     0.107 A 
ENDBRANCH  11  12
ENDBRANCH   9  11
ENDBRANCH   8   9
ENDBRANCH   7   8
ENDBRANCH   4   7
BRANCH   1  18
ATOM     18  C   UNL d   1     -51.605  26.549  33.515  0.00  0.00     0.196 C 
ATOM     19  O   UNL d   1     -52.251  27.016  33.307  0.00  0.00    -0.287 OA
BRANCH  18  20
ATOM     20  C   UNL d   1     -51.655  25.729  33.464  0.00  0.00     0.039 A 
ATOM     21  C   UNL d   1     -50.965  25.275  33.421  0.00  0.00     0.004 A 
ATOM     22  C   UNL d   1     -51.010  24.457  33.370  0.00  0.00     0.011 A 
ATOM     23  C   UNL d   1     -51.751  24.085  33.361  0.00  0.00     0.058 A 
ATOM     24  C   UNL d   1     -52.440  24.539  33.403  0.00  0.00     0.011 A 
ATOM     25 CL   UNL d   1     -51.800  23.266  33.310  0.00  0.00    -0.082 Cl
ATOM     26  C   UNL d   1     -52.388  25.361  33.455  0.00  0.00     0.004 A 
ENDBRANCH  18  20
ENDBRANCH   1  18
TORSDOF 7
ENDMDL
