MODEL 1
REMARK VINA RESULT:       0.1      0.000      0.000
REMARK  2 active torsions:
REMARK  status: ('A' for Active; 'I' for Inactive)
REMARK    1  A    between atoms: C_13  and  C_6 
REMARK    2  A    between atoms: N_7  and  C_12 
ROOT
ATOM      1  C   UNL d   1      59.500   0.369  30.907  0.00  0.00     0.095 A 
ATOM      2  C   UNL d   1      58.824   0.029  29.714  0.00  0.00     0.095 A 
ATOM      3  C   UNL d   1      60.209   0.458  30.479  0.00  0.00     0.143 A 
ATOM      4  C   UNL d   1      59.532   0.118  29.287  0.00  0.00     0.143 A 
ATOM      5  S   UNL d   1      60.212   0.330  29.672  0.00  0.00    -0.044 SA
ATOM      6  C   UNL d   1      58.822   0.155  30.511  0.00  0.00     0.023 A 
ATOM      7  C   UNL d   1      58.122  -0.190  29.316  0.00  0.00     0.103 C 
ATOM      8  C   UNL d   1      59.501   0.502  31.746  0.00  0.00     0.103 C 
ATOM      9  N   UNL d   1      59.480   0.630  32.582  0.00  0.00    -0.191 NA
ATOM     10  N   UNL d   1      57.405  -0.412  28.926  0.00  0.00    -0.191 NA
ATOM     11  N   UNL d   1      59.541  -0.012  28.459  0.00  0.00    -0.140 N 
ATOM     12  N   UNL d   1      60.920   0.681  30.890  0.00  0.00    -0.140 N 
ENDROOT
BRANCH   6  13
ATOM     13  C   UNL d   1      58.112   0.066  30.940  0.00  0.00     0.002 A 
ATOM     14  C   UNL d   1      57.576   0.682  30.997  0.00  0.00     0.002 A 
ATOM     15  C   UNL d   1      56.881   0.594  31.417  0.00  0.00     0.024 A 
ATOM     16  C   UNL d   1      56.703  -0.112  31.791  0.00  0.00     0.127 A 
ATOM     17  C   UNL d   1      57.240  -0.735  31.735  0.00  0.00     0.024 A 
ATOM     18  C   UNL d   1      57.936  -0.647  31.316  0.00  0.00     0.002 A 
BRANCH  16  19
ATOM     19  N   UNL d   1      56.008  -0.200  32.210  0.00  0.00    -0.114 N 
ATOM     20  O   UNL d   1      55.818  -0.927  32.531  0.00  0.00    -0.532 OA
ATOM     21  O   UNL d   1      55.510   0.434  32.305  0.00  0.00    -0.532 OA
ENDBRANCH  16  19
ENDBRANCH   6  13
TORSDOF 2
ENDMDL
MODEL 2
REMARK VINA RESULT:       0.3      0.202      1.982
REMARK  2 active torsions:
REMARK  status: ('A' for Active; 'I' for Inactive)
REMARK    1  A    between atoms: C_13  and  C_6 
REMARK    2  A    between atoms: N_7  and  C_12 
ROOT
ATOM      1  C   UNL d   1      58.855  -0.066  29.748  0.00  0.00     0.095 A 
ATOM      2  C   UNL d   1      59.564   0.344  30.900  0.00  0.00     0.095 A 
ATOM      3  C   UNL d   1      59.546   0.020  29.293  0.00  0.00     0.143 A 
ATOM      4  C   UNL d   1      60.255   0.429  30.444  0.00  0.00     0.143 A 
ATOM      5  S   UNL d   1      60.238   0.267  29.650  0.00  0.00    -0.044 SA
ATOM      6  C   UNL d   1      58.882   0.099  30.544  0.00  0.00     0.023 A 
ATOM      7  C   UNL d   1      59.582   0.511  31.719  0.00  0.00     0.103 C 
ATOM      8  C   UNL d   1      58.138  -0.323  29.372  0.00  0.00     0.103 C 
ATOM      9  N   UNL d   1      57.413  -0.578  29.018  0.00  0.00    -0.191 NA
ATOM     10  N   UNL d   1      59.586   0.677  32.548  0.00  0.00    -0.191 NA
ATOM     11  N   UNL d   1      60.967   0.682  30.806  0.00  0.00    -0.140 N 
ATOM     12  N   UNL d   1      59.522  -0.152  28.459  0.00  0.00    -0.140 N 
ENDROOT
BRANCH   6  13
ATOM     13  C   UNL d   1      58.188   0.013  31.002  0.00  0.00     0.002 A 
ATOM     14  C   UNL d   1      57.712   0.659  31.166  0.00  0.00     0.002 A 
ATOM     15  C   UNL d   1      57.034   0.575  31.614  0.00  0.00     0.024 A 
ATOM     16  C   UNL d   1      56.814  -0.156  31.908  0.00  0.00     0.127 A 
ATOM     17  C   UNL d   1      57.291  -0.808  31.744  0.00  0.00     0.024 A 
ATOM     18  C   UNL d   1      57.970  -0.725  31.297  0.00  0.00     0.002 A 
BRANCH  16  19
ATOM     19  N   UNL d   1      56.136  -0.240  32.355  0.00  0.00    -0.114 N 
ATOM     20  O   UNL d   1      55.895   0.369  32.843  0.00  0.00    -0.532 OA
ATOM     21  O   UNL d   1      55.706  -0.926  32.313  0.00  0.00    -0.532 OA
ENDBRANCH  16  19
ENDBRANCH   6  13
TORSDOF 2
ENDMDL
MODEL 3
REMARK VINA RESULT:       0.7      2.821      4.790
REMARK  2 active torsions:
REMARK  status: ('A' for Active; 'I' for Inactive)
REMARK    1  A    between atoms: C_13  and  C_6 
REMARK    2  A    between atoms: N_7  and  C_12 
ROOT
ATOM      1  C   UNL d   1      55.519   0.320  34.109  0.00  0.00     0.095 A 
ATOM      2  C   UNL d   1      56.872   0.378  34.511  0.00  0.00     0.095 A 
ATOM      3  C   UNL d   1      55.280   0.501  34.885  0.00  0.00     0.143 A 
ATOM      4  C   UNL d   1      56.634   0.560  35.287  0.00  0.00     0.143 A 
ATOM      5  S   UNL d   1      55.845   0.619  35.464  0.00  0.00    -0.044 SA
ATOM      6  C   UNL d   1      56.313   0.263  33.940  0.00  0.00     0.023 A 
ATOM      7  C   UNL d   1      57.686   0.318  34.329  0.00  0.00     0.103 C 
ATOM      8  C   UNL d   1      54.929   0.198  33.510  0.00  0.00     0.103 C 
ATOM      9  N   UNL d   1      54.358   0.073  32.898  0.00  0.00    -0.191 NA
ATOM     10  N   UNL d   1      58.506   0.253  34.131  0.00  0.00    -0.191 NA
ATOM     11  N   UNL d   1      57.208   0.682  35.884  0.00  0.00    -0.140 N 
ATOM     12  N   UNL d   1      54.451   0.562  35.065  0.00  0.00    -0.140 N 
ENDROOT
BRANCH   6  13
ATOM     13  C   UNL d   1      56.552   0.080  33.161  0.00  0.00     0.002 A 
ATOM     14  C   UNL d   1      56.615  -0.697  32.913  0.00  0.00     0.002 A 
ATOM     15  C   UNL d   1      56.849  -0.875  32.151  0.00  0.00     0.024 A 
ATOM     16  C   UNL d   1      57.027  -0.281  31.618  0.00  0.00     0.127 A 
ATOM     17  C   UNL d   1      56.964   0.504  31.864  0.00  0.00     0.024 A 
ATOM     18  C   UNL d   1      56.730   0.682  32.626  0.00  0.00     0.002 A 
BRANCH  16  19
ATOM     19  N   UNL d   1      57.260  -0.459  30.856  0.00  0.00    -0.114 N 
ATOM     20  O   UNL d   1      57.439   0.146  30.336  0.00  0.00    -0.532 OA
ATOM     21  O   UNL d   1      57.314  -1.233  30.620  0.00  0.00    -0.532 OA
ENDBRANCH  16  19
ENDBRANCH   6  13
TORSDOF 2
ENDMDL
MODEL 4
REMARK VINA RESULT:       0.7      3.150      3.793
REMARK  2 active torsions:
REMARK  status: ('A' for Active; 'I' for Inactive)
REMARK    1  A    between atoms: C_13  and  C_6 
REMARK    2  A    between atoms: N_7  and  C_12 
ROOT
ATOM      1  C   UNL d   1      60.061  -3.077  29.229  0.00  0.00     0.095 A 
ATOM      2  C   UNL d   1      58.770  -3.462  28.804  0.00  0.00     0.095 A 
ATOM      3  C   UNL d   1      60.324  -3.862  29.143  0.00  0.00     0.143 A 
ATOM      4  C   UNL d   1      59.033  -4.247  28.717  0.00  0.00     0.143 A 
ATOM      5  S   UNL d   1      59.803  -4.436  28.887  0.00  0.00    -0.044 SA
ATOM      6  C   UNL d   1      59.287  -2.896  29.057  0.00  0.00     0.023 A 
ATOM      7  C   UNL d   1      57.976  -3.268  28.629  0.00  0.00     0.103 C 
ATOM      8  C   UNL d   1      60.607  -2.482  29.495  0.00  0.00     0.103 C 
ATOM      9  N   UNL d   1      61.133  -1.875  29.759  0.00  0.00    -0.191 NA
ATOM     10  N   UNL d   1      57.175  -3.057  28.456  0.00  0.00    -0.191 NA
ATOM     11  N   UNL d   1      58.502  -4.840  28.456  0.00  0.00    -0.140 N 
ATOM     12  N   UNL d   1      61.133  -4.054  29.322  0.00  0.00    -0.140 N 
ENDROOT
BRANCH   6  13
ATOM     13  C   UNL d   1      59.023  -2.109  29.143  0.00  0.00     0.002 A 
ATOM     14  C   UNL d   1      59.084  -1.576  28.525  0.00  0.00     0.002 A 
ATOM     15  C   UNL d   1      58.826  -0.805  28.610  0.00  0.00     0.024 A 
ATOM     16  C   UNL d   1      58.500  -0.548  29.316  0.00  0.00     0.127 A 
ATOM     17  C   UNL d   1      58.437  -1.082  29.940  0.00  0.00     0.024 A 
ATOM     18  C   UNL d   1      58.695  -1.853  29.855  0.00  0.00     0.002 A 
BRANCH  16  19
ATOM     19  N   UNL d   1      58.243   0.222  29.400  0.00  0.00    -0.114 N 
ATOM     20  O   UNL d   1      58.329   0.601  30.119  0.00  0.00    -0.532 OA
ATOM     21  O   UNL d   1      57.903   0.607  28.772  0.00  0.00    -0.532 OA
ENDBRANCH  16  19
ENDBRANCH   6  13
TORSDOF 2
ENDMDL
MODEL 5
REMARK VINA RESULT:       0.7      2.857      4.555
REMARK  2 active torsions:
REMARK  status: ('A' for Active; 'I' for Inactive)
REMARK    1  A    between atoms: C_13  and  C_6 
REMARK    2  A    between atoms: N_7  and  C_12 
ROOT
ATOM      1  C   UNL d   1      56.606   0.389  34.523  0.00  0.00     0.095 A 
ATOM      2  C   UNL d   1      55.282   0.386  34.029  0.00  0.00     0.095 A 
ATOM      3  C   UNL d   1      56.322   0.581  35.281  0.00  0.00     0.143 A 
ATOM      4  C   UNL d   1      54.998   0.578  34.788  0.00  0.00     0.143 A 
ATOM      5  S   UNL d   1      55.520   0.673  35.401  0.00  0.00    -0.044 SA
ATOM      6  C   UNL d   1      56.076   0.296  33.913  0.00  0.00     0.023 A 
ATOM      7  C   UNL d   1      54.744   0.288  33.397  0.00  0.00     0.103 C 
ATOM      8  C   UNL d   1      57.442   0.295  34.403  0.00  0.00     0.103 C 
ATOM      9  N   UNL d   1      58.270   0.197  34.261  0.00  0.00    -0.191 NA
ATOM     10  N   UNL d   1      54.212   0.186  32.747  0.00  0.00    -0.191 NA
ATOM     11  N   UNL d   1      54.176   0.673  34.916  0.00  0.00    -0.140 N 
ATOM     12  N   UNL d   1      56.874   0.680  35.922  0.00  0.00    -0.140 N 
ENDROOT
BRANCH   6  13
ATOM     13  C   UNL d   1      56.360   0.103  33.152  0.00  0.00     0.002 A 
ATOM     14  C   UNL d   1      56.697   0.675  32.673  0.00  0.00     0.002 A 
ATOM     15  C   UNL d   1      56.975   0.487  31.929  0.00  0.00     0.024 A 
ATOM     16  C   UNL d   1      56.923  -0.279  31.643  0.00  0.00     0.127 A 
ATOM     17  C   UNL d   1      56.584  -0.857  32.123  0.00  0.00     0.024 A 
ATOM     18  C   UNL d   1      56.306  -0.669  32.867  0.00  0.00     0.002 A 
BRANCH  16  19
ATOM     19  N   UNL d   1      57.201  -0.467  30.900  0.00  0.00    -0.114 N 
ATOM     20  O   UNL d   1      57.336   0.128  30.355  0.00  0.00    -0.532 OA
ATOM     21  O   UNL d   1      57.342  -1.242  30.704  0.00  0.00    -0.532 OA
ENDBRANCH  16  19
ENDBRANCH   6  13
TORSDOF 2
ENDMDL
MODEL 6
REMARK VINA RESULT:       1.3      1.710      2.536
REMARK  2 active torsions:
REMARK  status: ('A' for Active; 'I' for Inactive)
REMARK    1  A    between atoms: C_13  and  C_6 
REMARK    2  A    between atoms: N_7  and  C_12 
ROOT
ATOM      1  C   UNL d   1      58.975  -2.025  29.222  0.00  0.00     0.095 A 
ATOM      2  C   UNL d   1      59.824  -0.895  29.205  0.00  0.00     0.095 A 
ATOM      3  C   UNL d   1      59.507  -2.433  28.730  0.00  0.00     0.143 A 
ATOM      4  C   UNL d   1      60.356  -1.303  28.712  0.00  0.00     0.143 A 
ATOM      5  S   UNL d   1      60.193  -2.063  28.482  0.00  0.00    -0.044 SA
ATOM      6  C   UNL d   1      59.148  -1.263  29.448  0.00  0.00     0.023 A 
ATOM      7  C   UNL d   1      59.994  -0.112  29.442  0.00  0.00     0.103 C 
ATOM      8  C   UNL d   1      58.264  -2.413  29.477  0.00  0.00     0.103 C 
ATOM      9  N   UNL d   1      57.550  -2.780  29.743  0.00  0.00    -0.191 NA
ATOM     10  N   UNL d   1      60.152   0.681  29.690  0.00  0.00    -0.191 NA
ATOM     11  N   UNL d   1      61.060  -0.929  28.455  0.00  0.00    -0.140 N 
ATOM     12  N   UNL d   1      59.330  -3.230  28.491  0.00  0.00    -0.140 N 
ENDROOT
BRANCH   6  13
ATOM     13  C   UNL d   1      58.613  -0.853  29.942  0.00  0.00     0.002 A 
ATOM     14  C   UNL d   1      58.137  -0.260  29.643  0.00  0.00     0.002 A 
ATOM     15  C   UNL d   1      57.614   0.141  30.126  0.00  0.00     0.024 A 
ATOM     16  C   UNL d   1      57.555  -0.042  30.922  0.00  0.00     0.127 A 
ATOM     17  C   UNL d   1      58.034  -0.640  31.227  0.00  0.00     0.024 A 
ATOM     18  C   UNL d   1      58.556  -1.040  30.743  0.00  0.00     0.002 A 
BRANCH  16  19
ATOM     19  N   UNL d   1      57.032   0.358  31.405  0.00  0.00    -0.114 N 
ATOM     20  O   UNL d   1      56.353   0.681  31.086  0.00  0.00    -0.532 OA
ATOM     21  O   UNL d   1      57.190   0.433  32.197  0.00  0.00    -0.532 OA
ENDBRANCH  16  19
ENDBRANCH   6  13
TORSDOF 2
ENDMDL
MODEL 7
REMARK VINA RESULT:       2.0      0.879      2.283
REMARK  2 active torsions:
REMARK  status: ('A' for Active; 'I' for Inactive)
REMARK    1  A    between atoms: C_13  and  C_6 
REMARK    2  A    between atoms: N_7  and  C_12 
ROOT
ATOM      1  C   UNL d   1      58.352  -0.003  30.639  0.00  0.00     0.095 A 
ATOM      2  C   UNL d   1      58.957   0.357  31.864  0.00  0.00     0.095 A 
ATOM      3  C   UNL d   1      59.083   0.090  30.251  0.00  0.00     0.143 A 
ATOM      4  C   UNL d   1      59.687   0.450  31.477  0.00  0.00     0.143 A 
ATOM      5  S   UNL d   1      59.741   0.316  30.679  0.00  0.00    -0.044 SA
ATOM      6  C   UNL d   1      58.308   0.134  31.439  0.00  0.00     0.023 A 
ATOM      7  C   UNL d   1      58.902   0.496  32.687  0.00  0.00     0.103 C 
ATOM      8  C   UNL d   1      57.670  -0.238  30.190  0.00  0.00     0.103 C 
ATOM      9  N   UNL d   1      56.979  -0.472  29.762  0.00  0.00    -0.191 NA
ATOM     10  N   UNL d   1      58.831   0.632  33.518  0.00  0.00    -0.191 NA
ATOM     11  N   UNL d   1      60.365   0.681  31.910  0.00  0.00    -0.140 N 
ATOM     12  N   UNL d   1      59.134  -0.053  29.414  0.00  0.00    -0.140 N 
ENDROOT
BRANCH   6  13
ATOM     13  C   UNL d   1      57.575   0.041  31.828  0.00  0.00     0.002 A 
ATOM     14  C   UNL d   1      57.349  -0.687  32.128  0.00  0.00     0.002 A 
ATOM     15  C   UNL d   1      56.631  -0.777  32.509  0.00  0.00     0.024 A 
ATOM     16  C   UNL d   1      56.122  -0.144  32.599  0.00  0.00     0.127 A 
ATOM     17  C   UNL d   1      56.346   0.590  32.298  0.00  0.00     0.024 A 
ATOM     18  C   UNL d   1      57.063   0.681  31.917  0.00  0.00     0.002 A 
BRANCH  16  19
ATOM     19  N   UNL d   1      55.405  -0.235  32.979  0.00  0.00    -0.114 N 
ATOM     20  O   UNL d   1      55.108  -0.985  33.109  0.00  0.00    -0.532 OA
ATOM     21  O   UNL d   1      54.992   0.419  33.226  0.00  0.00    -0.532 OA
ENDBRANCH  16  19
ENDBRANCH   6  13
TORSDOF 2
ENDMDL
MODEL 8
REMARK VINA RESULT:       2.7      2.171      3.442
REMARK  2 active torsions:
REMARK  status: ('A' for Active; 'I' for Inactive)
REMARK    1  A    between atoms: C_13  and  C_6 
REMARK    2  A    between atoms: N_7  and  C_12 
ROOT
ATOM      1  C   UNL d   1      57.975   0.353  32.973  0.00  0.00     0.095 A 
ATOM      2  C   UNL d   1      56.681  -0.041  32.563  0.00  0.00     0.095 A 
ATOM      3  C   UNL d   1      57.702   0.434  33.755  0.00  0.00     0.143 A 
ATOM      4  C   UNL d   1      56.409   0.040  33.345  0.00  0.00     0.143 A 
ATOM      5  S   UNL d   1      56.920   0.275  33.928  0.00  0.00    -0.044 SA
ATOM      6  C   UNL d   1      57.455   0.116  32.394  0.00  0.00     0.023 A 
ATOM      7  C   UNL d   1      56.154  -0.284  31.961  0.00  0.00     0.103 C 
ATOM      8  C   UNL d   1      58.789   0.519  32.797  0.00  0.00     0.103 C 
ATOM      9  N   UNL d   1      59.596   0.679  32.600  0.00  0.00    -0.191 NA
ATOM     10  N   UNL d   1      55.631  -0.529  31.343  0.00  0.00    -0.191 NA
ATOM     11  N   UNL d   1      55.608  -0.122  33.528  0.00  0.00    -0.140 N 
ATOM     12  N   UNL d   1      58.243   0.681  34.364  0.00  0.00    -0.140 N 
ENDROOT
BRANCH   6  13
ATOM     13  C   UNL d   1      57.728   0.035  31.609  0.00  0.00     0.002 A 
ATOM     14  C   UNL d   1      57.754   0.679  31.105  0.00  0.00     0.002 A 
ATOM     15  C   UNL d   1      58.022   0.600  30.338  0.00  0.00     0.024 A 
ATOM     16  C   UNL d   1      58.271  -0.127  30.054  0.00  0.00     0.127 A 
ATOM     17  C   UNL d   1      58.246  -0.778  30.558  0.00  0.00     0.024 A 
ATOM     18  C   UNL d   1      57.978  -0.698  31.326  0.00  0.00     0.002 A 
BRANCH  16  19
ATOM     19  N   UNL d   1      58.538  -0.206  29.287  0.00  0.00    -0.114 N 
ATOM     20  O   UNL d   1      59.335  -0.323  29.146  0.00  0.00    -0.532 OA
ATOM     21  O   UNL d   1      58.013  -0.169  28.669  0.00  0.00    -0.532 OA
ENDBRANCH  16  19
ENDBRANCH   6  13
TORSDOF 2
ENDMDL
MODEL 9
REMARK VINA RESULT:       3.0      1.126      1.442
REMARK  2 active torsions:
REMARK  status: ('A' for Active; 'I' for Inactive)
REMARK    1  A    between atoms: C_13  and  C_6 
REMARK    2  A    between atoms: N_7  and  C_12 
ROOT
ATOM      1  C   UNL d   1      58.572   0.387  32.024  0.00  0.00     0.095 A 
ATOM      2  C   UNL d   1      57.904   0.082  30.816  0.00  0.00     0.095 A 
ATOM      3  C   UNL d   1      59.287   0.474  31.607  0.00  0.00     0.143 A 
ATOM      4  C   UNL d   1      58.619   0.169  30.399  0.00  0.00     0.143 A 
ATOM      5  S   UNL d   1      59.298   0.363  30.797  0.00  0.00    -0.044 SA
ATOM      6  C   UNL d   1      57.896   0.192  31.616  0.00  0.00     0.023 A 
ATOM      7  C   UNL d   1      57.205  -0.119  30.406  0.00  0.00     0.103 C 
ATOM      8  C   UNL d   1      58.565   0.504  32.865  0.00  0.00     0.103 C 
ATOM      9  N   UNL d   1      58.535   0.616  33.703  0.00  0.00    -0.191 NA
ATOM     10  N   UNL d   1      56.489  -0.321  30.003  0.00  0.00    -0.191 NA
ATOM     11  N   UNL d   1      58.636   0.056  29.570  0.00  0.00    -0.140 N 
ATOM     12  N   UNL d   1      59.996   0.679  32.030  0.00  0.00    -0.140 N 
ENDROOT
BRANCH   6  13
ATOM     13  C   UNL d   1      57.178   0.105  32.035  0.00  0.00     0.002 A 
ATOM     14  C   UNL d   1      56.598   0.680  31.996  0.00  0.00     0.002 A 
ATOM     15  C   UNL d   1      55.896   0.595  32.406  0.00  0.00     0.024 A 
ATOM     16  C   UNL d   1      55.757  -0.069  32.864  0.00  0.00     0.127 A 
ATOM     17  C   UNL d   1      56.340  -0.650  32.905  0.00  0.00     0.024 A 
ATOM     18  C   UNL d   1      57.041  -0.565  32.496  0.00  0.00     0.002 A 
BRANCH  16  19
ATOM     19  N   UNL d   1      55.056  -0.154  33.274  0.00  0.00    -0.114 N 
ATOM     20  O   UNL d   1      54.781  -0.902  33.454  0.00  0.00    -0.532 OA
ATOM     21  O   UNL d   1      54.636   0.503  33.499  0.00  0.00    -0.532 OA
ENDBRANCH  16  19
ENDBRANCH   6  13
TORSDOF 2
ENDMDL
