MODEL 1
REMARK VINA RESULT:     108.7      0.000      0.000
REMARK  4 active torsions:
REMARK  status: ('A' for Active; 'I' for Inactive)
REMARK    1  A    between atoms: C_12  and  N_3 
REMARK    2  A    between atoms: C_10  and  C_5 
REMARK       I    between atoms: N_11  and  C_10 
REMARK    3  A    between atoms: C_24  and  C_12 
REMARK    4  A    between atoms: C_25  and  N_14 
ROOT
ATOM      1  C   UNL d   1     -47.929  30.498  34.539  0.00  0.00     0.154 A 
ATOM      2  C   UNL d   1     -48.636  30.530  34.116  0.00  0.00     0.093 A 
ATOM      3  N   UNL d   1     -47.831  29.723  34.811  0.00  0.00    -0.286 N 
ATOM      4  N   UNL d   1     -47.474  31.175  34.617  0.00  0.00    -0.210 NA
ATOM      5  C   UNL d   1     -48.472  29.280  34.559  0.00  0.00     0.122 A 
ATOM      6  C   UNL d   1     -48.882  31.239  33.775  0.00  0.00     0.269 A 
ATOM      7  N   UNL d   1     -48.419  31.915  33.858  0.00  0.00    -0.258 N 
ATOM      8  C   UNL d   1     -47.712  31.883  34.281  0.00  0.00     0.152 A 
ATOM      9  C   UNL d   1     -48.977  29.775  34.125  0.00  0.00     0.030 A 
ATOM     10  C   UNL d   1     -48.665  32.624  33.518  0.00  0.00     0.084 A 
ATOM     11  O   UNL d   1     -49.588  31.271  33.352  0.00  0.00    -0.266 OA
ATOM     12  C   UNL d   1     -47.257  32.560  34.360  0.00  0.00     0.038 A 
ATOM     13  C   UNL d   1     -48.202  33.303  33.600  0.00  0.00     0.019 A 
ATOM     14  C   UNL d   1     -47.494  33.271  34.023  0.00  0.00     0.005 A 
ENDROOT
BRANCH   5  15
ATOM     15  C   UNL d   1     -48.598  28.477  34.708  0.00  0.00     0.281 C 
ATOM     16  N   UNL d   1     -49.233  28.088  34.359  0.00  0.00    -0.268 N 
ATOM     17  C   UNL d   1     -49.743  28.499  33.861  0.00  0.00     0.102 A 
ATOM     18  C   UNL d   1     -49.360  27.282  34.508  0.00  0.00     0.102 A 
ATOM     19  C   UNL d   1     -50.382  28.110  33.509  0.00  0.00     0.100 A 
ATOM     20  N   UNL d   1     -50.508  27.304  33.658  0.00  0.00    -0.300 N 
ATOM     21  C   UNL d   1     -49.995  26.892  34.159  0.00  0.00     0.100 A 
ATOM     22  O   UNL d   1     -48.088  28.066  35.206  0.00  0.00    -0.265 OA
BRANCH  20  23
ATOM     23  C   UNL d   1     -51.152  26.906  33.306  0.00  0.00     0.080 C 
ATOM     24  C   UNL d   1     -51.203  26.080  33.342  0.00  0.00     0.021 C 
ENDBRANCH  20  23
ENDBRANCH   5  15
BRANCH   3  25
ATOM     25  C   UNL d   1     -47.193  29.450  35.261  0.00  0.00     0.082 C 
BRANCH  25  26
ATOM     26  C   UNL d   1     -47.098  29.696  36.037  0.00  0.00     0.018 A 
ATOM     27  C   UNL d   1     -47.731  29.657  36.566  0.00  0.00     0.002 A 
ATOM     28  C   UNL d   1     -47.640  29.904  37.346  0.00  0.00     0.000 A 
ATOM     29  C   UNL d   1     -46.916  30.190  37.600  0.00  0.00     0.000 A 
ATOM     30  C   UNL d   1     -46.280  30.231  37.073  0.00  0.00     0.000 A 
ATOM     31  C   UNL d   1     -46.372  29.984  36.293  0.00  0.00     0.002 A 
ENDBRANCH  25  26
ENDBRANCH   3  25
TORSDOF 4
ENDMDL
