MODEL 1
REMARK VINA RESULT:      -1.4      0.000      0.000
REMARK  4 active torsions:
REMARK  status: ('A' for Active; 'I' for Inactive)
REMARK    1  A    between atoms: C_6  and  N_1 
REMARK    2  A    between atoms: C_8  and  C_2 
REMARK    3  A    between atoms: C_16  and  C_5 
REMARK    4  A    between atoms: C_7  and  C_8 
ROOT
ATOM      1  N   UNL d   1      30.783  17.319 -24.461  0.00  0.00    -0.251 N 
ATOM      2  C   UNL d   1      31.849  18.115 -24.411  0.00  0.00     0.101 A 
ATOM      3  C   UNL d   1      30.565  18.057 -24.757  0.00  0.00     0.305 A 
ATOM      4  C   UNL d   1      31.229  18.553 -24.725  0.00  0.00     0.256 A 
ATOM      5  C   UNL d   1      31.577  17.360 -24.249  0.00  0.00     0.075 A 
ATOM      6  O   UNL d   1      29.815  18.270 -25.038  0.00  0.00    -0.263 OA
ATOM      7  O   UNL d   1      31.246  19.340 -24.970  0.00  0.00    -0.281 OA
ENDROOT
BRANCH   2   8
ATOM      8  C   UNL d   1      32.616  18.400 -24.283  0.00  0.00     0.223 C 
ATOM      9  O   UNL d   1      33.241  18.117 -24.742  0.00  0.00    -0.284 OA
BRANCH   8  10
ATOM     10  C   UNL d   1      32.759  18.960 -23.703  0.00  0.00     0.139 A 
ATOM     11  O   UNL d   1      32.825  18.817 -22.894  0.00  0.00    -0.304 OA
ATOM     12  C   UNL d   1      32.970  19.534 -22.512  0.00  0.00     0.100 A 
ATOM     13  C   UNL d   1      33.081  19.719 -21.723  0.00  0.00     0.025 A 
ATOM     14  C   UNL d   1      32.992  20.116 -23.087  0.00  0.00     0.025 A 
ATOM     15  C   UNL d   1      33.217  20.499 -21.505  0.00  0.00     0.002 A 
ATOM     16  C   UNL d   1      33.241  21.093 -22.082  0.00  0.00     0.000 A 
ATOM     17  C   UNL d   1      33.128  20.895 -22.870  0.00  0.00     0.002 A 
ATOM     18  C   UNL d   1      32.863  19.769 -23.821  0.00  0.00     0.030 A 
ENDBRANCH   8  10
ENDBRANCH   2   8
BRANCH   5  19
ATOM     19  C   UNL d   1      32.030  16.741 -23.924  0.00  0.00     0.017 A 
ATOM     20  C   UNL d   1      32.470  16.245 -24.427  0.00  0.00     0.002 A 
ATOM     21  C   UNL d   1      32.924  15.627 -24.111  0.00  0.00     0.000 A 
ATOM     22  C   UNL d   1      32.941  15.499 -23.285  0.00  0.00     0.000 A 
ATOM     23  C   UNL d   1      32.496  16.002 -22.785  0.00  0.00     0.000 A 
ATOM     24  C   UNL d   1      32.041  16.622 -23.107  0.00  0.00     0.002 A 
ENDBRANCH   5  19
BRANCH   1  25
ATOM     25  C   UNL d   1      30.295  16.665 -24.393  0.00  0.00     0.182 A 
ATOM     26  N   UNL d   1      29.761  16.512 -23.778  0.00  0.00    -0.220 NA
ATOM     27  C   UNL d   1      29.389  15.797 -23.935  0.00  0.00     0.108 A 
ATOM     28  C   UNL d   1      29.687  15.503 -24.645  0.00  0.00     0.059 A 
ATOM     29  S   UNL d   1      30.247  16.039 -24.928  0.00  0.00    -0.048 SA
ENDBRANCH   1  25
TORSDOF 4
ENDMDL
