MODEL 1
REMARK VINA RESULT:       9.4      0.000      0.000
REMARK  3 active torsions:
REMARK  status: ('A' for Active; 'I' for Inactive)
REMARK    1  A    between atoms: S_6  and  C_1 
REMARK    2  A    between atoms: C_8  and  S_6 
REMARK    3  A    between atoms: C_7  and  C_8 
ROOT
ATOM      1  C   UNL d   1      45.765 -16.286  44.684  0.00  0.00     0.194 A 
ATOM      2  N   UNL d   1      46.303 -15.689  44.484  0.00  0.00    -0.220 NA
ATOM      3  N   UNL d   1      45.039 -15.923  44.896  0.00  0.00    -0.220 NA
ATOM      4  C   UNL d   1      45.915 -14.959  44.571  0.00  0.00     0.101 A 
ATOM      5  C   UNL d   1      45.134 -15.104  44.826  0.00  0.00     0.101 A 
ATOM      6  C   UNL d   1      46.175 -14.179  44.451  0.00  0.00     0.021 A 
ATOM      7  C   UNL d   1      44.628 -14.459  44.955  0.00  0.00     0.021 A 
ATOM      8  C   UNL d   1      44.890 -13.688  44.834  0.00  0.00     0.002 A 
ATOM      9  C   UNL d   1      45.663 -13.548  44.582  0.00  0.00     0.002 A 
ENDROOT
BRANCH   1  10
ATOM     10  S   UNL d   1      45.910 -17.098  44.677  0.00  0.00    -0.048 SA
BRANCH  10  11
ATOM     11  C   UNL d   1      46.091 -17.488  43.970  0.00  0.00     0.041 C 
BRANCH  11  12
ATOM     12  C   UNL d   1      46.262 -18.295  43.980  0.00  0.00     0.034 A 
ATOM     13  C   UNL d   1      46.425 -18.685  43.270  0.00  0.00     0.141 A 
ATOM     14  F   UNL d   1      46.414 -18.263  42.564  0.00  0.00    -0.204 F 
ATOM     15  C   UNL d   1      46.597 -19.492  43.273  0.00  0.00     0.030 A 
ATOM     16  C   UNL d   1      46.604 -19.901  43.988  0.00  0.00     0.002 A 
ATOM     17  C   UNL d   1      46.442 -19.515  44.698  0.00  0.00     0.000 A 
ATOM     18  C   UNL d   1      46.271 -18.708  44.687  0.00  0.00     0.003 A 
ENDBRANCH  11  12
ENDBRANCH  10  11
ENDBRANCH   1  10
TORSDOF 3
ENDMDL
MODEL 2
REMARK VINA RESULT:      10.7      1.354      4.412
REMARK  3 active torsions:
REMARK  status: ('A' for Active; 'I' for Inactive)
REMARK    1  A    between atoms: S_6  and  C_1 
REMARK    2  A    between atoms: C_8  and  S_6 
REMARK    3  A    between atoms: C_7  and  C_8 
ROOT
ATOM      1  C   UNL d   1      46.263 -17.469  44.192  0.00  0.00     0.194 A 
ATOM      2  N   UNL d   1      46.273 -17.704  43.398  0.00  0.00    -0.220 NA
ATOM      3  N   UNL d   1      46.271 -18.160  44.669  0.00  0.00    -0.220 NA
ATOM      4  C   UNL d   1      46.286 -18.534  43.379  0.00  0.00     0.101 A 
ATOM      5  C   UNL d   1      46.285 -18.815  44.165  0.00  0.00     0.101 A 
ATOM      6  C   UNL d   1      46.299 -19.071  42.746  0.00  0.00     0.021 A 
ATOM      7  C   UNL d   1      46.298 -19.634  44.297  0.00  0.00     0.021 A 
ATOM      8  C   UNL d   1      46.311 -20.162  43.666  0.00  0.00     0.002 A 
ATOM      9  C   UNL d   1      46.312 -19.881  42.891  0.00  0.00     0.002 A 
ENDROOT
BRANCH   1  10
ATOM     10  S   UNL d   1      46.249 -16.693  44.473  0.00  0.00    -0.048 SA
BRANCH  10  11
ATOM     11  C   UNL d   1      45.530 -16.291  44.561  0.00  0.00     0.041 C 
BRANCH  11  12
ATOM     12  C   UNL d   1      45.530 -15.471  44.658  0.00  0.00     0.034 A 
ATOM     13  C   UNL d   1      44.827 -15.086  44.857  0.00  0.00     0.141 A 
ATOM     14  F   UNL d   1      44.138 -15.525  44.955  0.00  0.00    -0.204 F 
ATOM     15  C   UNL d   1      44.820 -14.267  44.955  0.00  0.00     0.030 A 
ATOM     16  C   UNL d   1      45.517 -13.841  44.853  0.00  0.00     0.002 A 
ATOM     17  C   UNL d   1      46.220 -14.222  44.655  0.00  0.00     0.000 A 
ATOM     18  C   UNL d   1      46.220 -15.042  44.558  0.00  0.00     0.003 A 
ENDBRANCH  11  12
ENDBRANCH  10  11
ENDBRANCH   1  10
TORSDOF 3
ENDMDL
