MODEL 1
REMARK VINA RESULT:       1.6      0.000      0.000
REMARK  3 active torsions:
REMARK  status: ('A' for Active; 'I' for Inactive)
REMARK    1  A    between atoms: C_5  and  N_1 
REMARK    2  A    between atoms: C_13  and  C_6 
REMARK    3  A    between atoms: O_24  and  C_19 
ROOT
ATOM      1  N   UNL d   1      32.978  21.870 -20.465  0.00  0.00    -0.256 N 
ATOM      2  C   UNL d   1      32.826  21.244 -21.642  0.00  0.00     0.083 A 
ATOM      3  C   UNL d   1      32.983  20.676 -21.068  0.00  0.00     0.161 A 
ATOM      4  C   UNL d   1      33.078  21.058 -20.337  0.00  0.00     0.289 A 
ATOM      5  C   UNL d   1      32.822  21.984 -21.273  0.00  0.00     0.075 A 
ATOM      6  C   UNL d   1      32.706  21.022 -22.427  0.00  0.00     0.201 A 
ATOM      7  O   UNL d   1      33.021  19.873 -21.282  0.00  0.00    -0.302 OA
ATOM      8  C   UNL d   1      32.745  20.225 -22.635  0.00  0.00     0.063 A 
ATOM      9  C   UNL d   1      32.902  19.655 -22.063  0.00  0.00     0.103 A 
ATOM     10  O   UNL d   1      33.241  20.700 -19.619  0.00  0.00    -0.264 OA
ATOM     11  O   UNL d   1      32.550  21.589 -23.001  0.00  0.00    -0.286 OA
ATOM     12  C   UNL d   1      32.625  20.000 -23.423  0.00  0.00     0.017 A 
ATOM     13  C   UNL d   1      32.939  18.850 -22.282  0.00  0.00     0.026 A 
ATOM     14  C   UNL d   1      32.662  19.209 -23.636  0.00  0.00     0.058 A 
ATOM     15  C   UNL d   1      32.819  18.633 -23.065  0.00  0.00     0.013 A 
ATOM     16 CL   UNL d   1      32.543  18.986 -24.415  0.00  0.00    -0.082 Cl
ENDROOT
BRANCH   5  17
ATOM     17  C   UNL d   1      32.665  22.555 -21.845  0.00  0.00     0.039 A 
ATOM     18  C   UNL d   1      31.937  22.947 -21.859  0.00  0.00     0.096 A 
ATOM     19  C   UNL d   1      31.784  23.516 -22.432  0.00  0.00     0.024 A 
ATOM     20  C   UNL d   1      32.361  23.702 -23.001  0.00  0.00     0.002 A 
ATOM     21  C   UNL d   1      33.090  23.311 -22.988  0.00  0.00     0.000 A 
ATOM     22  C   UNL d   1      33.240  22.736 -22.407  0.00  0.00     0.003 A 
BRANCH  18  23
ATOM     23  O   UNL d   1      31.368  22.759 -21.293  0.00  0.00    -0.328 OA
ATOM     24  C   UNL d   1      30.687  23.218 -21.231  0.00  0.00     0.181 C 
ENDBRANCH  18  23
ENDBRANCH   5  17
BRANCH   1  25
ATOM     25  C   UNL d   1      33.024  22.461 -19.894  0.00  0.00     0.179 A 
ATOM     26  N   UNL d   1      33.240  23.240 -20.021  0.00  0.00    -0.108 NA
ATOM     27  O   UNL d   1      33.212  23.637 -19.299  0.00  0.00    -0.210 OA
ATOM     28  C   UNL d   1      32.977  23.098 -18.724  0.00  0.00     0.128 A 
ATOM     29  C   UNL d   1      32.859  22.368 -19.087  0.00  0.00     0.067 A 
ATOM     30  C   UNL d   1      32.875  23.256 -17.921  0.00  0.00     0.029 C 
ENDBRANCH   1  25
TORSDOF 3
ENDMDL
