MODEL 1
REMARK VINA RESULT:      -3.1      0.000      0.000
REMARK  2 active torsions:
REMARK  status: ('A' for Active; 'I' for Inactive)
REMARK    1  A    between atoms: C_8  and  N_1 
REMARK    2  A    between atoms: O_15  and  C_14 
ROOT
ATOM      1  N   UNL d   1      30.981  16.182 -23.927  0.00  0.00    -0.243 N 
ATOM      2  C   UNL d   1      30.832  15.815 -23.241  0.00  0.00     0.251 A 
ATOM      3  C   UNL d   1      30.305  16.460 -24.254  0.00  0.00     0.264 A 
ATOM      4  C   UNL d   1      30.000  15.855 -23.111  0.00  0.00     0.129 A 
ATOM      5  C   UNL d   1      29.673  16.256 -23.739  0.00  0.00     0.047 A 
ATOM      6  C   UNL d   1      28.888  16.491 -23.964  0.00  0.00     0.001 A 
ATOM      7  C   UNL d   1      29.038  16.286 -23.637  0.00  0.00    -0.009 A 
ATOM      8  C   UNL d   1      28.052  16.398 -23.596  0.00  0.00    -0.000 A 
ATOM      9  C   UNL d   1      28.221  16.191 -23.272  0.00  0.00    -0.004 A 
ATOM     10  C   UNL d   1      29.121  16.846 -24.648  0.00  0.00    -0.004 A 
ATOM     11  O   UNL d   1      31.414  15.454 -22.745  0.00  0.00    -0.271 OA
ATOM     12  O   UNL d   1      30.384  16.885 -25.024  0.00  0.00    -0.267 OA
ENDROOT
BRANCH   1  13
ATOM     13  C   UNL d   1      31.730  16.258 -24.243  0.00  0.00     0.092 A 
ATOM     14  C   UNL d   1      32.214  16.892 -24.020  0.00  0.00     0.110 A 
ATOM     15  C   UNL d   1      32.962  16.962 -24.339  0.00  0.00     0.026 A 
ATOM     16  C   UNL d   1      33.237  16.406 -24.881  0.00  0.00     0.002 A 
ATOM     17  C   UNL d   1      32.758  15.787 -25.096  0.00  0.00     0.002 A 
ATOM     18  C   UNL d   1      32.004  15.711 -24.778  0.00  0.00     0.020 A 
BRANCH  14  19
ATOM     19  O   UNL d   1      31.920  17.432 -23.479  0.00  0.00    -0.327 OA
ATOM     20  C   UNL d   1      32.317  18.026 -23.260  0.00  0.00     0.181 C 
ENDBRANCH  14  19
ENDBRANCH   1  13
TORSDOF 2
ENDMDL
MODEL 2
REMARK VINA RESULT:      -3.1      0.643      1.263
REMARK  2 active torsions:
REMARK  status: ('A' for Active; 'I' for Inactive)
REMARK    1  A    between atoms: C_8  and  N_1 
REMARK    2  A    between atoms: O_15  and  C_14 
ROOT
ATOM      1  N   UNL d   1      31.055  16.436 -23.653  0.00  0.00    -0.243 N 
ATOM      2  C   UNL d   1      30.956  15.813 -23.175  0.00  0.00     0.251 A 
ATOM      3  C   UNL d   1      30.365  16.635 -24.010  0.00  0.00     0.264 A 
ATOM      4  C   UNL d   1      30.145  15.587 -23.222  0.00  0.00     0.129 A 
ATOM      5  C   UNL d   1      29.779  16.096 -23.739  0.00  0.00     0.047 A 
ATOM      6  C   UNL d   1      28.989  16.190 -24.040  0.00  0.00     0.001 A 
ATOM      7  C   UNL d   1      29.160  15.922 -23.774  0.00  0.00    -0.009 A 
ATOM      8  C   UNL d   1      28.191  15.754 -23.914  0.00  0.00    -0.000 A 
ATOM      9  C   UNL d   1      28.380  15.491 -23.646  0.00  0.00    -0.004 A 
ATOM     10  C   UNL d   1      29.171  16.824 -24.502  0.00  0.00    -0.004 A 
ATOM     11  O   UNL d   1      31.565  15.453 -22.710  0.00  0.00    -0.271 OA
ATOM     12  O   UNL d   1      30.389  17.324 -24.562  0.00  0.00    -0.267 OA
ENDROOT
BRANCH   1  13
ATOM     13  C   UNL d   1      31.771  16.815 -23.756  0.00  0.00     0.092 A 
ATOM     14  C   UNL d   1      32.342  16.494 -24.263  0.00  0.00     0.110 A 
ATOM     15  C   UNL d   1      33.057  16.876 -24.362  0.00  0.00     0.026 A 
ATOM     16  C   UNL d   1      33.211  17.580 -23.960  0.00  0.00     0.002 A 
ATOM     17  C   UNL d   1      32.648  17.889 -23.466  0.00  0.00     0.002 A 
ATOM     18  C   UNL d   1      31.926  17.508 -23.362  0.00  0.00     0.020 A 
BRANCH  14  19
ATOM     19  O   UNL d   1      32.167  15.794 -24.651  0.00  0.00    -0.327 OA
ATOM     20  C   UNL d   1      32.663  15.455 -25.095  0.00  0.00     0.181 C 
ENDBRANCH  14  19
ENDBRANCH   1  13
TORSDOF 2
ENDMDL
MODEL 3
REMARK VINA RESULT:      -2.4      1.320      2.120
REMARK  2 active torsions:
REMARK  status: ('A' for Active; 'I' for Inactive)
REMARK    1  A    between atoms: C_8  and  N_1 
REMARK    2  A    between atoms: O_15  and  C_14 
ROOT
ATOM      1  N   UNL d   1      31.965  17.559 -24.412  0.00  0.00    -0.243 N 
ATOM      2  C   UNL d   1      32.303  16.846 -24.474  0.00  0.00     0.251 A 
ATOM      3  C   UNL d   1      31.168  17.493 -24.352  0.00  0.00     0.264 A 
ATOM      4  C   UNL d   1      31.685  16.273 -24.452  0.00  0.00     0.129 A 
ATOM      5  C   UNL d   1      30.982  16.674 -24.377  0.00  0.00     0.047 A 
ATOM      6  C   UNL d   1      30.162  16.454 -24.322  0.00  0.00     0.001 A 
ATOM      7  C   UNL d   1      30.511  16.234 -24.360  0.00  0.00    -0.009 A 
ATOM      8  C   UNL d   1      29.702  15.660 -24.324  0.00  0.00    -0.000 A 
ATOM      9  C   UNL d   1      30.065  15.453 -24.363  0.00  0.00    -0.004 A 
ATOM     10  C   UNL d   1      29.896  17.212 -24.264  0.00  0.00    -0.004 A 
ATOM     11  O   UNL d   1      33.134  16.705 -24.547  0.00  0.00    -0.271 OA
ATOM     12  O   UNL d   1      30.713  18.246 -24.279  0.00  0.00    -0.267 OA
ENDROOT
BRANCH   1  13
ATOM     13  C   UNL d   1      32.387  18.258 -24.412  0.00  0.00     0.092 A 
ATOM     14  C   UNL d   1      32.742  18.530 -23.715  0.00  0.00     0.110 A 
ATOM     15  C   UNL d   1      33.163  19.230 -23.721  0.00  0.00     0.026 A 
ATOM     16  C   UNL d   1      33.234  19.666 -24.417  0.00  0.00     0.002 A 
ATOM     17  C   UNL d   1      32.884  19.395 -25.097  0.00  0.00     0.002 A 
ATOM     18  C   UNL d   1      32.459  18.691 -25.097  0.00  0.00     0.020 A 
BRANCH  14  19
ATOM     19  O   UNL d   1      32.657  18.080 -23.036  0.00  0.00    -0.327 OA
ATOM     20  C   UNL d   1      33.032  18.238 -22.410  0.00  0.00     0.181 C 
ENDBRANCH  14  19
ENDBRANCH   1  13
TORSDOF 2
ENDMDL
MODEL 4
REMARK VINA RESULT:      -1.8      1.083      3.398
REMARK  2 active torsions:
REMARK  status: ('A' for Active; 'I' for Inactive)
REMARK    1  A    between atoms: C_8  and  N_1 
REMARK    2  A    between atoms: O_15  and  C_14 
ROOT
ATOM      1  N   UNL d   1      30.286  16.630 -24.453  0.00  0.00    -0.243 N 
ATOM      2  C   UNL d   1      30.383  17.391 -24.257  0.00  0.00     0.251 A 
ATOM      3  C   UNL d   1      30.982  16.304 -24.681  0.00  0.00     0.264 A 
ATOM      4  C   UNL d   1      31.198  17.577 -24.365  0.00  0.00     0.129 A 
ATOM      5  C   UNL d   1      31.569  16.903 -24.628  0.00  0.00     0.047 A 
ATOM      6  C   UNL d   1      32.366  16.695 -24.843  0.00  0.00     0.001 A 
ATOM      7  C   UNL d   1      32.192  17.047 -24.710  0.00  0.00    -0.009 A 
ATOM      8  C   UNL d   1      33.167  17.142 -24.875  0.00  0.00    -0.000 A 
ATOM      9  C   UNL d   1      32.975  17.490 -24.739  0.00  0.00    -0.004 A 
ATOM     10  C   UNL d   1      32.186  15.931 -25.023  0.00  0.00    -0.004 A 
ATOM     11  O   UNL d   1      29.768  17.908 -23.990  0.00  0.00    -0.271 OA
ATOM     12  O   UNL d   1      30.962  15.453 -24.917  0.00  0.00    -0.267 OA
ENDROOT
BRANCH   1  13
ATOM     13  C   UNL d   1      29.567  16.245 -24.420  0.00  0.00     0.092 A 
ATOM     14  C   UNL d   1      29.341  15.843 -23.732  0.00  0.00     0.110 A 
ATOM     15  C   UNL d   1      28.621  15.459 -23.705  0.00  0.00     0.026 A 
ATOM     16  C   UNL d   1      28.119  15.471 -24.359  0.00  0.00     0.002 A 
ATOM     17  C   UNL d   1      28.346  15.867 -25.030  0.00  0.00     0.002 A 
ATOM     18  C   UNL d   1      29.070  16.255 -25.063  0.00  0.00     0.020 A 
BRANCH  14  19
ATOM     19  O   UNL d   1      29.856  15.845 -23.095  0.00  0.00    -0.327 OA
ATOM     20  C   UNL d   1      29.717  15.453 -22.474  0.00  0.00     0.181 C 
ENDBRANCH  14  19
ENDBRANCH   1  13
TORSDOF 2
ENDMDL
MODEL 5
REMARK VINA RESULT:      -1.8      1.517      3.610
REMARK  2 active torsions:
REMARK  status: ('A' for Active; 'I' for Inactive)
REMARK    1  A    between atoms: C_8  and  N_1 
REMARK    2  A    between atoms: O_15  and  C_14 
ROOT
ATOM      1  N   UNL d   1      32.756  17.862 -23.601  0.00  0.00    -0.243 N 
ATOM      2  C   UNL d   1      32.835  17.792 -22.816  0.00  0.00     0.251 A 
ATOM      3  C   UNL d   1      32.836  18.627 -23.828  0.00  0.00     0.264 A 
ATOM      4  C   UNL d   1      32.976  18.564 -22.508  0.00  0.00     0.129 A 
ATOM      5  C   UNL d   1      32.976  19.081 -23.135  0.00  0.00     0.047 A 
ATOM      6  C   UNL d   1      33.080  19.920 -23.228  0.00  0.00     0.001 A 
ATOM      7  C   UNL d   1      33.083  19.670 -22.898  0.00  0.00    -0.009 A 
ATOM      8  C   UNL d   1      33.241  20.621 -22.657  0.00  0.00    -0.000 A 
ATOM      9  C   UNL d   1      33.241  20.354 -22.333  0.00  0.00    -0.004 A 
ATOM     10  C   UNL d   1      32.989  19.908 -24.028  0.00  0.00    -0.004 A 
ATOM     11  O   UNL d   1      32.784  17.066 -22.384  0.00  0.00    -0.271 OA
ATOM     12  O   UNL d   1      32.761  18.793 -24.692  0.00  0.00    -0.267 OA
ENDROOT
BRANCH   1  13
ATOM     13  C   UNL d   1      32.614  17.230 -24.097  0.00  0.00     0.092 A 
ATOM     14  C   UNL d   1      31.841  16.950 -24.204  0.00  0.00     0.110 A 
ATOM     15  C   UNL d   1      31.705  16.318 -24.702  0.00  0.00     0.026 A 
ATOM     16  C   UNL d   1      32.332  15.957 -25.097  0.00  0.00     0.002 A 
ATOM     17  C   UNL d   1      33.086  16.234 -24.988  0.00  0.00     0.002 A 
ATOM     18  C   UNL d   1      33.230  16.871 -24.488  0.00  0.00     0.020 A 
BRANCH  14  19
ATOM     19  O   UNL d   1      31.235  17.325 -23.801  0.00  0.00    -0.327 OA
ATOM     20  C   UNL d   1      30.518  17.142 -23.910  0.00  0.00     0.181 C 
ENDBRANCH  14  19
ENDBRANCH   1  13
TORSDOF 2
ENDMDL
MODEL 6
REMARK VINA RESULT:      -1.4      1.225      1.726
REMARK  2 active torsions:
REMARK  status: ('A' for Active; 'I' for Inactive)
REMARK    1  A    between atoms: C_8  and  N_1 
REMARK    2  A    between atoms: O_15  and  C_14 
ROOT
ATOM      1  N   UNL d   1      29.889  16.833 -24.341  0.00  0.00    -0.243 N 
ATOM      2  C   UNL d   1      29.842  16.100 -24.636  0.00  0.00     0.251 A 
ATOM      3  C   UNL d   1      29.225  17.019 -23.932  0.00  0.00     0.264 A 
ATOM      4  C   UNL d   1      29.096  15.783 -24.404  0.00  0.00     0.129 A 
ATOM      5  C   UNL d   1      28.713  16.353 -23.967  0.00  0.00     0.047 A 
ATOM      6  C   UNL d   1      27.963  16.411 -23.571  0.00  0.00     0.001 A 
ATOM      7  C   UNL d   1      28.144  16.109 -23.791  0.00  0.00    -0.009 A 
ATOM      8  C   UNL d   1      27.244  15.850 -23.458  0.00  0.00    -0.000 A 
ATOM      9  C   UNL d   1      27.442  15.556 -23.684  0.00  0.00    -0.004 A 
ATOM     10  C   UNL d   1      28.087  17.161 -23.307  0.00  0.00    -0.004 A 
ATOM     11  O   UNL d   1      30.441  15.721 -25.097  0.00  0.00    -0.271 OA
ATOM     12  O   UNL d   1      29.196  17.824 -23.569  0.00  0.00    -0.267 OA
ENDROOT
BRANCH   1  13
ATOM     13  C   UNL d   1      30.534  17.321 -24.449  0.00  0.00     0.092 A 
ATOM     14  C   UNL d   1      31.227  17.199 -24.011  0.00  0.00     0.110 A 
ATOM     15  C   UNL d   1      31.869  17.690 -24.123  0.00  0.00     0.026 A 
ATOM     16  C   UNL d   1      31.831  18.305 -24.671  0.00  0.00     0.002 A 
ATOM     17  C   UNL d   1      31.151  18.420 -25.097  0.00  0.00     0.002 A 
ATOM     18  C   UNL d   1      30.500  17.929 -24.988  0.00  0.00     0.020 A 
BRANCH  14  19
ATOM     19  O   UNL d   1      31.241  16.581 -23.474  0.00  0.00    -0.327 OA
ATOM     20  C   UNL d   1      31.832  16.454 -23.035  0.00  0.00     0.181 C 
ENDBRANCH  14  19
ENDBRANCH   1  13
TORSDOF 2
ENDMDL
