MODEL 1
REMARK VINA RESULT:      -2.8      0.000      0.000
REMARK  6 active torsions:
REMARK  status: ('A' for Active; 'I' for Inactive)
REMARK    1  A    between atoms: S_2  and  C_1 
REMARK    2  A    between atoms: N_3  and  C_1 
REMARK    3  A    between atoms: C_4  and  C_1 
REMARK    4  A    between atoms: C_6  and  S_2 
REMARK       I    between atoms: C_5  and  N_3 
REMARK    5  A    between atoms: C_9  and  C_5 
REMARK    6  A    between atoms: O_23  and  C_17 
ROOT
ATOM      1  C   UNL d   1      32.167  16.988 -23.798  0.00  0.00     0.193 C 
ENDROOT
BRANCH   1   2
ATOM      2  S   UNL d   1      31.404  16.741 -23.958  0.00  0.00     0.228 S 
ATOM      3  O   UNL d   1      31.454  17.071 -24.718  0.00  0.00    -0.216 OA
ATOM      4  O   UNL d   1      31.345  16.409 -23.201  0.00  0.00    -0.216 OA
BRANCH   2   5
ATOM      5  C   UNL d   1      30.624  16.491 -24.127  0.00  0.00     0.089 A 
ATOM      6  C   UNL d   1      30.187  16.883 -24.696  0.00  0.00     0.011 A 
ATOM      7  C   UNL d   1      29.417  16.635 -24.862  0.00  0.00     0.001 A 
ATOM      8  C   UNL d   1      29.093  15.995 -24.455  0.00  0.00     0.000 A 
ATOM      9  C   UNL d   1      29.538  15.603 -23.881  0.00  0.00     0.001 A 
ATOM     10  C   UNL d   1      28.312  15.742 -24.622  0.00  0.00     0.000 C 
ATOM     11  C   UNL d   1      30.300  15.851 -23.720  0.00  0.00     0.011 A 
ENDBRANCH   2   5
ENDBRANCH   1   2
BRANCH   1  12
ATOM     12  N   UNL d   1      32.290  17.665 -23.341  0.00  0.00    -0.195 NA
ATOM     13  C   UNL d   1      32.750  18.279 -23.636  0.00  0.00     0.280 C 
ATOM     14  O   UNL d   1      33.088  18.220 -24.386  0.00  0.00    -0.265 OA
BRANCH  13  15
ATOM     15  C   UNL d   1      32.873  18.960 -23.175  0.00  0.00     0.058 A 
ATOM     16  C   UNL d   1      33.050  19.679 -23.538  0.00  0.00     0.007 A 
ATOM     17  C   UNL d   1      33.172  20.354 -23.079  0.00  0.00     0.024 A 
ATOM     18  C   UNL d   1      33.117  20.308 -22.260  0.00  0.00     0.094 A 
ATOM     19  C   UNL d   1      32.940  19.588 -21.897  0.00  0.00     0.024 A 
ATOM     20  C   UNL d   1      32.819  18.916 -22.353  0.00  0.00     0.007 A 
BRANCH  18  21
ATOM     21  O   UNL d   1      33.241  20.993 -21.801  0.00  0.00    -0.328 OA
ATOM     22  C   UNL d   1      32.607  21.343 -21.393  0.00  0.00     0.181 C 
ENDBRANCH  18  21
ENDBRANCH  13  15
ENDBRANCH   1  12
BRANCH   1  23
ATOM     23  C   UNL d   1      32.812  16.565 -24.091  0.00  0.00     0.144 C 
ATOM     24 CL   UNL d   1      33.027  16.638 -24.884  0.00  0.00    -0.068 Cl
ATOM     25 CL   UNL d   1      33.240  16.070 -23.593  0.00  0.00    -0.068 Cl
ENDBRANCH   1  23
TORSDOF 6
ENDMDL
MODEL 2
REMARK VINA RESULT:      -1.3      3.855      7.042
REMARK  6 active torsions:
REMARK  status: ('A' for Active; 'I' for Inactive)
REMARK    1  A    between atoms: S_2  and  C_1 
REMARK    2  A    between atoms: N_3  and  C_1 
REMARK    3  A    between atoms: C_4  and  C_1 
REMARK    4  A    between atoms: C_6  and  S_2 
REMARK       I    between atoms: C_5  and  N_3 
REMARK    5  A    between atoms: C_9  and  C_5 
REMARK    6  A    between atoms: O_23  and  C_17 
ROOT
ATOM      1  C   UNL d   1      32.826  22.665 -20.356  0.00  0.00     0.193 C 
ENDROOT
BRANCH   1   2
ATOM      2  S   UNL d   1      32.903  22.766 -19.548  0.00  0.00     0.228 S 
ATOM      3  O   UNL d   1      33.183  21.988 -19.475  0.00  0.00    -0.216 OA
ATOM      4  O   UNL d   1      32.624  23.544 -19.612  0.00  0.00    -0.216 OA
BRANCH   2   5
ATOM      5  C   UNL d   1      32.983  22.864 -18.722  0.00  0.00     0.089 A 
ATOM      6  C   UNL d   1      32.884  23.605 -18.390  0.00  0.00     0.011 A 
ATOM      7  C   UNL d   1      32.963  23.700 -17.573  0.00  0.00     0.001 A 
ATOM      8  C   UNL d   1      33.141  23.051 -17.097  0.00  0.00     0.000 A 
ATOM      9  C   UNL d   1      33.240  22.305 -17.437  0.00  0.00     0.001 A 
ATOM     10  C   UNL d   1      33.222  23.145 -16.269  0.00  0.00     0.000 C 
ATOM     11  C   UNL d   1      33.161  22.214 -18.245  0.00  0.00     0.011 A 
ENDBRANCH   2   5
ENDBRANCH   1   2
BRANCH   1  12
ATOM     12  N   UNL d   1      33.026  21.941 -20.698  0.00  0.00    -0.195 NA
ATOM     13  C   UNL d   1      32.436  21.460 -21.010  0.00  0.00     0.280 C 
ATOM     14  O   UNL d   1      31.648  21.700 -20.983  0.00  0.00    -0.265 OA
BRANCH  13  15
ATOM     15  C   UNL d   1      32.638  20.731 -21.354  0.00  0.00     0.058 A 
ATOM     16  C   UNL d   1      32.462  20.584 -22.147  0.00  0.00     0.007 A 
ATOM     17  C   UNL d   1      32.664  19.859 -22.487  0.00  0.00     0.024 A 
ATOM     18  C   UNL d   1      33.040  19.285 -22.034  0.00  0.00     0.094 A 
ATOM     19  C   UNL d   1      33.216  19.431 -21.242  0.00  0.00     0.024 A 
ATOM     20  C   UNL d   1      33.016  20.152 -20.902  0.00  0.00     0.007 A 
BRANCH  18  21
ATOM     21  O   UNL d   1      33.241  18.555 -22.383  0.00  0.00    -0.328 OA
ATOM     22  C   UNL d   1      32.885  18.320 -23.097  0.00  0.00     0.181 C 
ENDBRANCH  18  21
ENDBRANCH  13  15
ENDBRANCH   1  12
BRANCH   1  23
ATOM     23  C   UNL d   1      32.552  23.283 -20.829  0.00  0.00     0.144 C 
ATOM     24 CL   UNL d   1      33.046  23.616 -21.399  0.00  0.00    -0.068 Cl
ATOM     25 CL   UNL d   1      31.787  23.567 -20.732  0.00  0.00    -0.068 Cl
ENDBRANCH   1  23
TORSDOF 6
ENDMDL
