MODEL 1
REMARK VINA RESULT:       6.0      0.000      0.000
REMARK  4 active torsions:
REMARK  status: ('A' for Active; 'I' for Inactive)
REMARK       I    between atoms: C_2  and  N_1 
REMARK    1  A    between atoms: C_3  and  N_1 
REMARK       I    between atoms: N_6  and  C_2 
REMARK    2  A    between atoms: C_9  and  N_6 
REMARK    3  A    between atoms: C_10  and  C_9 
REMARK    4  A    between atoms: C_11  and  C_10 
ROOT
ATOM      1  N   UNL d   1      46.616 -18.165  44.033  0.00  0.00    -0.172 NA
ATOM      2  C   UNL d   1      46.089 -17.537  43.940  0.00  0.00     0.370 C 
ATOM      3  O   UNL d   1      45.515 -17.563  43.354  0.00  0.00    -0.242 OA
ATOM      4  N   UNL d   1      46.140 -16.879  44.443  0.00  0.00    -0.189 NA
ENDROOT
BRANCH   1   5
ATOM      5  C   UNL d   1      46.564 -18.822  43.531  0.00  0.00     0.167 A 
ATOM      6  N   UNL d   1      46.431 -19.569  43.844  0.00  0.00    -0.225 NA
ATOM      7  C   UNL d   1      46.380 -20.220  43.343  0.00  0.00     0.101 A 
ATOM      8  C   UNL d   1      46.462 -20.127  42.526  0.00  0.00     0.021 A 
ATOM      9  C   UNL d   1      46.596 -19.371  42.219  0.00  0.00     0.005 A 
ATOM     10  C   UNL d   1      46.647 -18.722  42.716  0.00  0.00     0.039 A 
ENDBRANCH   1   5
BRANCH   4  11
ATOM     11  C   UNL d   1      45.613 -16.252  44.350  0.00  0.00     0.104 C 
BRANCH  11  12
ATOM     12  C   UNL d   1      45.681 -15.592  44.835  0.00  0.00     0.021 C 
BRANCH  12  13
ATOM     13  C   UNL d   1      45.329 -14.878  44.606  0.00  0.00     0.002 C 
ATOM     14  C   UNL d   1      45.571 -14.175  44.952  0.00  0.00     0.000 C 
ENDBRANCH  12  13
ENDBRANCH  11  12
ENDBRANCH   4  11
TORSDOF 4
ENDMDL
MODEL 2
REMARK VINA RESULT:       6.7      2.098      5.036
REMARK  4 active torsions:
REMARK  status: ('A' for Active; 'I' for Inactive)
REMARK       I    between atoms: C_2  and  N_1 
REMARK    1  A    between atoms: C_3  and  N_1 
REMARK       I    between atoms: N_6  and  C_2 
REMARK    2  A    between atoms: C_9  and  N_6 
REMARK    3  A    between atoms: C_10  and  C_9 
REMARK    4  A    between atoms: C_11  and  C_10 
ROOT
ATOM      1  N   UNL d   1      45.118 -14.403  44.635  0.00  0.00    -0.172 NA
ATOM      2  C   UNL d   1      45.684 -15.002  44.601  0.00  0.00     0.370 C 
ATOM      3  O   UNL d   1      46.448 -14.835  44.352  0.00  0.00    -0.242 OA
ATOM      4  N   UNL d   1      45.479 -15.775  44.820  0.00  0.00    -0.189 NA
ENDROOT
BRANCH   1   5
ATOM      5  C   UNL d   1      45.324 -13.631  44.417  0.00  0.00     0.167 A 
ATOM      6  N   UNL d   1      45.137 -13.351  43.668  0.00  0.00    -0.225 NA
ATOM      7  C   UNL d   1      45.342 -12.584  43.453  0.00  0.00     0.101 A 
ATOM      8  C   UNL d   1      45.736 -12.092  43.988  0.00  0.00     0.021 A 
ATOM      9  C   UNL d   1      45.921 -12.381  44.739  0.00  0.00     0.005 A 
ATOM     10  C   UNL d   1      45.717 -13.144  44.955  0.00  0.00     0.039 A 
ENDBRANCH   1   5
BRANCH   4  11
ATOM     11  C   UNL d   1      46.045 -16.375  44.786  0.00  0.00     0.104 C 
BRANCH  11  12
ATOM     12  C   UNL d   1      45.810 -17.157  44.871  0.00  0.00     0.021 C 
BRANCH  12  13
ATOM     13  C   UNL d   1      46.184 -17.748  44.427  0.00  0.00     0.002 C 
ATOM     14  C   UNL d   1      46.177 -18.523  44.691  0.00  0.00     0.000 C 
ENDBRANCH  12  13
ENDBRANCH  11  12
ENDBRANCH   4  11
TORSDOF 4
ENDMDL
MODEL 3
REMARK VINA RESULT:       7.6      1.108      4.435
REMARK  4 active torsions:
REMARK  status: ('A' for Active; 'I' for Inactive)
REMARK       I    between atoms: C_2  and  N_1 
REMARK    1  A    between atoms: C_3  and  N_1 
REMARK       I    between atoms: N_6  and  C_2 
REMARK    2  A    between atoms: C_9  and  N_6 
REMARK    3  A    between atoms: C_10  and  C_9 
REMARK    4  A    between atoms: C_11  and  C_10 
ROOT
ATOM      1  N   UNL d   1      45.479 -15.893  44.953  0.00  0.00    -0.172 NA
ATOM      2  C   UNL d   1      45.874 -16.390  44.426  0.00  0.00     0.370 C 
ATOM      3  O   UNL d   1      46.271 -16.075  43.780  0.00  0.00    -0.242 OA
ATOM      4  N   UNL d   1      45.868 -17.210  44.551  0.00  0.00    -0.189 NA
ENDROOT
BRANCH   1   5
ATOM      5  C   UNL d   1      45.485 -15.074  44.828  0.00  0.00     0.167 A 
ATOM      6  N   UNL d   1      46.173 -14.644  44.953  0.00  0.00    -0.225 NA
ATOM      7  C   UNL d   1      46.177 -13.831  44.828  0.00  0.00     0.101 A 
ATOM      8  C   UNL d   1      45.491 -13.443  44.578  0.00  0.00     0.021 A 
ATOM      9  C   UNL d   1      44.803 -13.883  44.455  0.00  0.00     0.005 A 
ATOM     10  C   UNL d   1      44.797 -14.693  44.579  0.00  0.00     0.039 A 
ENDBRANCH   1   5
BRANCH   4  11
ATOM     11  C   UNL d   1      46.263 -17.707  44.024  0.00  0.00     0.104 C 
BRANCH  11  12
ATOM     12  C   UNL d   1      46.133 -18.518  44.060  0.00  0.00     0.021 C 
BRANCH  12  13
ATOM     13  C   UNL d   1      46.637 -19.031  43.647  0.00  0.00     0.002 C 
ATOM     14  C   UNL d   1      46.499 -19.838  43.664  0.00  0.00     0.000 C 
ENDBRANCH  12  13
ENDBRANCH  11  12
ENDBRANCH   4  11
TORSDOF 4
ENDMDL
