MODEL 1
REMARK VINA RESULT:       6.8      0.000      0.000
REMARK  4 active torsions:
REMARK  status: ('A' for Active; 'I' for Inactive)
REMARK    1  A    between atoms: N_2  and  S_1 
REMARK    2  A    between atoms: C_6  and  S_1 
REMARK    3  A    between atoms: C_3  and  C_11 
REMARK       I    between atoms: N_4  and  C_3 
REMARK    4  A    between atoms: C_17  and  N_5 
ROOT
ATOM      1  C   UNL d   1     -42.036-122.166 -49.747  0.00  0.00     0.104 A 
ATOM      2  C   UNL d   1     -41.766-121.325 -51.171  0.00  0.00     0.057 A 
ATOM      3  C   UNL d   1     -41.260-121.885 -49.943  0.00  0.00     0.013 A 
ATOM      4  C   UNL d   1     -42.632-122.008 -50.277  0.00  0.00     0.013 A 
ATOM      5  C   UNL d   1     -41.123-121.474 -50.637  0.00  0.00     0.005 A 
ATOM      6  C   UNL d   1     -42.492-121.594 -50.976  0.00  0.00     0.005 A 
ENDROOT
BRANCH   2   7
ATOM      7  C   UNL d   1     -41.618-120.926 -51.839  0.00  0.00     0.265 C 
ATOM      8  N   UNL d   1     -41.764-121.307 -52.536  0.00  0.00    -0.269 N 
ATOM      9  C   UNL d   1     -41.612-120.899 -53.224  0.00  0.00     0.102 A 
ATOM     10  C   UNL d   1     -42.055-122.082 -52.580  0.00  0.00     0.102 A 
ATOM     11  C   UNL d   1     -41.745-121.246 -53.965  0.00  0.00     0.100 A 
ATOM     12  N   UNL d   1     -42.031-122.007 -53.993  0.00  0.00    -0.301 N 
ATOM     13  C   UNL d   1     -42.189-122.433 -53.326  0.00  0.00     0.100 A 
ATOM     14  O   UNL d   1     -41.327-120.151 -51.826  0.00  0.00    -0.267 OA
BRANCH  12  15
ATOM     15  C   UNL d   1     -42.162-122.349 -54.729  0.00  0.00     0.064 A 
ATOM     16  C   UNL d   1     -42.664-122.018 -55.288  0.00  0.00     0.018 A 
ATOM     17  C   UNL d   1     -42.791-122.351 -56.003  0.00  0.00     0.002 A 
ATOM     18  C   UNL d   1     -42.392-123.072 -56.188  0.00  0.00     0.000 A 
ATOM     19  C   UNL d   1     -41.910-123.385 -55.643  0.00  0.00     0.002 A 
ATOM     20  C   UNL d   1     -41.779-123.043 -54.907  0.00  0.00     0.018 A 
ENDBRANCH  12  15
ENDBRANCH   2   7
BRANCH   1  21
ATOM     21  S   UNL d   1     -42.167-122.569 -49.063  0.00  0.00     0.271 S 
ATOM     22  O   UNL d   1     -42.177-123.266 -49.469  0.00  0.00    -0.200 OA
ATOM     23  O   UNL d   1     -42.157-121.833 -48.627  0.00  0.00    -0.200 OA
BRANCH  21  24
ATOM     24  N   UNL d   1     -42.303-122.988 -48.355  0.00  0.00    -0.229 N 
ATOM     25  C   UNL d   1     -41.672-123.179 -47.896  0.00  0.00     0.092 A 
ATOM     26  C   UNL d   1     -41.795-123.596 -47.189  0.00  0.00     0.018 A 
ATOM     27  C   UNL d   1     -41.179-123.817 -46.678  0.00  0.00     0.002 C 
ATOM     28  C   UNL d   1     -42.571-123.812 -46.965  0.00  0.00     0.003 A 
ATOM     29  C   UNL d   1     -43.226-123.611 -47.448  0.00  0.00     0.018 A 
ATOM     30  C   UNL d   1     -43.087-123.206 -48.131  0.00  0.00     0.092 A 
ATOM     31  C   UNL d   1     -44.006-123.817 -47.243  0.00  0.00     0.002 C 
ENDBRANCH  21  24
ENDBRANCH   1  21
TORSDOF 4
ENDMDL
