MODEL 1
REMARK VINA RESULT:       1.4      0.000      0.000
REMARK  5 active torsions:
REMARK  status: ('A' for Active; 'I' for Inactive)
REMARK    1  A    between atoms: C_11  and  N_5 
REMARK    2  A    between atoms: C_15  and  C_8 
REMARK    3  A    between atoms: C_12  and  C_11 
REMARK    4  A    between atoms: O_20  and  C_15 
REMARK    5  A    between atoms: C_23  and  O_20 
ROOT
ATOM      1  C   UNL d   1      32.976  19.916 -23.760  0.00  0.00     0.130 A 
ATOM      2  C   UNL d   1      32.872  19.795 -22.954  0.00  0.00     0.157 A 
ATOM      3  C   UNL d   1      33.099  20.680 -24.052  0.00  0.00     0.272 A 
ATOM      4  N   UNL d   1      32.891  20.434 -22.439  0.00  0.00    -0.208 NA
ATOM      5  N   UNL d   1      33.118  21.319 -23.537  0.00  0.00    -0.254 N 
ATOM      6  C   UNL d   1      32.957  19.274 -24.283  0.00  0.00     0.204 A 
ATOM      7  N   UNL d   1      32.748  19.027 -22.661  0.00  0.00    -0.289 N 
ATOM      8  C   UNL d   1      33.015  21.199 -22.731  0.00  0.00     0.177 A 
ATOM      9  C   UNL d   1      32.833  18.505 -23.989  0.00  0.00     0.055 A 
ATOM     10  C   UNL d   1      32.729  18.388 -23.176  0.00  0.00     0.069 A 
ATOM     11  O   UNL d   1      33.205  20.808 -24.874  0.00  0.00    -0.266 OA
ATOM     12  O   UNL d   1      33.061  19.397 -25.094  0.00  0.00    -0.286 OA
ATOM     13  C   UNL d   1      32.643  18.904 -21.850  0.00  0.00     0.101 C 
ATOM     14  C   UNL d   1      32.814  17.865 -24.509  0.00  0.00     0.005 A 
ATOM     15  C   UNL d   1      32.606  17.628 -22.886  0.00  0.00     0.018 A 
ATOM     16  C   UNL d   1      32.691  17.105 -24.218  0.00  0.00     0.000 A 
ATOM     17  C   UNL d   1      32.587  16.988 -23.401  0.00  0.00     0.002 A 
ENDROOT
BRANCH   8  18
ATOM     18  C   UNL d   1      33.034  21.851 -22.208  0.00  0.00     0.160 C 
BRANCH  18  19
ATOM     19  O   UNL d   1      32.958  21.728 -21.395  0.00  0.00    -0.302 OA
BRANCH  19  20
ATOM     20  C   UNL d   1      32.773  22.362 -20.902  0.00  0.00     0.100 A 
ATOM     21  C   UNL d   1      32.193  22.897 -21.130  0.00  0.00     0.025 A 
ATOM     22  C   UNL d   1      32.002  23.536 -20.639  0.00  0.00     0.002 A 
ATOM     23  C   UNL d   1      32.399  23.627 -19.924  0.00  0.00     0.000 A 
ATOM     24  C   UNL d   1      32.981  23.089 -19.698  0.00  0.00     0.002 A 
ATOM     25  C   UNL d   1      33.169  22.456 -20.186  0.00  0.00     0.025 A 
ENDBRANCH  19  20
ENDBRANCH  18  19
ENDBRANCH   8  18
BRANCH   5  26
ATOM     26  C   UNL d   1      33.241  22.079 -23.828  0.00  0.00     0.109 C 
BRANCH  26  27
ATOM     27  C   UNL d   1      32.652  22.456 -24.259  0.00  0.00     0.118 A 
ATOM     28  O   UNL d   1      31.878  22.240 -24.447  0.00  0.00    -0.304 OA
ATOM     29  C   UNL d   1      31.552  22.846 -24.898  0.00  0.00     0.123 A 
ATOM     30  C   UNL d   1      32.106  23.435 -24.996  0.00  0.00     0.029 A 
ATOM     31  C   UNL d   1      32.795  23.197 -24.600  0.00  0.00     0.028 A 
ENDBRANCH  26  27
ENDBRANCH   5  26
TORSDOF 5
ENDMDL
MODEL 2
REMARK VINA RESULT:       3.6      1.146      3.081
REMARK  5 active torsions:
REMARK  status: ('A' for Active; 'I' for Inactive)
REMARK    1  A    between atoms: C_11  and  N_5 
REMARK    2  A    between atoms: C_15  and  C_8 
REMARK    3  A    between atoms: C_12  and  C_11 
REMARK    4  A    between atoms: O_20  and  C_15 
REMARK    5  A    between atoms: C_23  and  O_20 
ROOT
ATOM      1  C   UNL d   1      33.151  19.326 -22.211  0.00  0.00     0.130 A 
ATOM      2  C   UNL d   1      33.108  19.507 -23.011  0.00  0.00     0.157 A 
ATOM      3  C   UNL d   1      33.195  19.934 -21.651  0.00  0.00     0.272 A 
ATOM      4  N   UNL d   1      33.109  20.291 -23.255  0.00  0.00    -0.208 NA
ATOM      5  N   UNL d   1      33.196  20.719 -21.895  0.00  0.00    -0.254 N 
ATOM      6  C   UNL d   1      33.150  18.537 -21.961  0.00  0.00     0.204 A 
ATOM      7  N   UNL d   1      33.063  18.896 -23.574  0.00  0.00    -0.289 N 
ATOM      8  C   UNL d   1      33.153  20.899 -22.695  0.00  0.00     0.177 A 
ATOM      9  C   UNL d   1      33.105  17.926 -22.524  0.00  0.00     0.055 A 
ATOM     10  C   UNL d   1      33.062  18.112 -23.330  0.00  0.00     0.069 A 
ATOM     11  O   UNL d   1      33.239  19.755 -20.833  0.00  0.00    -0.266 OA
ATOM     12  O   UNL d   1      33.194  18.357 -21.155  0.00  0.00    -0.286 OA
ATOM     13  C   UNL d   1      33.019  19.076 -24.380  0.00  0.00     0.101 C 
ATOM     14  C   UNL d   1      33.105  17.139 -22.277  0.00  0.00     0.005 A 
ATOM     15  C   UNL d   1      33.018  17.507 -23.887  0.00  0.00     0.018 A 
ATOM     16  C   UNL d   1      33.060  16.534 -22.834  0.00  0.00     0.000 A 
ATOM     17  C   UNL d   1      33.017  16.722 -23.644  0.00  0.00     0.002 A 
ENDROOT
BRANCH   8  18
ATOM     18  C   UNL d   1      33.154  21.698 -22.941  0.00  0.00     0.160 C 
BRANCH  18  19
ATOM     19  O   UNL d   1      32.476  22.025 -23.279  0.00  0.00    -0.302 OA
BRANCH  19  20
ATOM     20  C   UNL d   1      32.547  22.584 -23.879  0.00  0.00     0.100 A 
ATOM     21  C   UNL d   1      33.162  23.130 -23.855  0.00  0.00     0.025 A 
ATOM     22  C   UNL d   1      33.240  23.695 -24.456  0.00  0.00     0.002 A 
ATOM     23  C   UNL d   1      32.697  23.702 -25.074  0.00  0.00     0.000 A 
ATOM     24  C   UNL d   1      32.081  23.154 -25.096  0.00  0.00     0.002 A 
ATOM     25  C   UNL d   1      32.006  22.595 -24.499  0.00  0.00     0.025 A 
ENDBRANCH  19  20
ENDBRANCH  18  19
ENDBRANCH   8  18
BRANCH   5  26
ATOM     26  C   UNL d   1      33.240  21.323 -21.338  0.00  0.00     0.109 C 
BRANCH  26  27
ATOM     27  C   UNL d   1      32.598  21.482 -20.851  0.00  0.00     0.118 A 
ATOM     28  O   UNL d   1      31.796  21.299 -20.912  0.00  0.00    -0.304 OA
ATOM     29  C   UNL d   1      31.418  21.607 -20.249  0.00  0.00     0.123 A 
ATOM     30  C   UNL d   1      31.967  21.979 -19.776  0.00  0.00     0.029 A 
ATOM     31  C   UNL d   1      32.706  21.904 -20.146  0.00  0.00     0.028 A 
ENDBRANCH  26  27
ENDBRANCH   5  26
TORSDOF 5
ENDMDL
