MODEL 1
REMARK VINA RESULT:      62.6      0.000      0.000
REMARK  4 active torsions:
REMARK  status: ('A' for Active; 'I' for Inactive)
REMARK    1  A    between atoms: C_8  and  N_1 
REMARK    2  A    between atoms: C_11  and  C_13 
REMARK       I    between atoms: N_14  and  C_11 
REMARK    3  A    between atoms: C_18  and  N_14 
REMARK    4  A    between atoms: C_20  and  C_18 
ROOT
ATOM      1  C   UNL d   1      46.067 -16.322  43.505  0.00  0.00     0.066 A 
ATOM      2  C   UNL d   1      45.577 -15.693  43.294  0.00  0.00     0.022 A 
ATOM      3  C   UNL d   1      45.459 -15.071  43.830  0.00  0.00     0.059 A 
ATOM      4  C   UNL d   1      46.440 -16.336  44.246  0.00  0.00     0.017 A 
ATOM      5  C   UNL d   1      45.833 -15.086  44.570  0.00  0.00     0.005 A 
ATOM      6  C   UNL d   1      46.319 -15.718  44.773  0.00  0.00     0.002 A 
ENDROOT
BRANCH   1   7
ATOM      7  N   UNL d   1      46.187 -16.941  42.979  0.00  0.00    -0.261 N 
ATOM      8  C   UNL d   1      46.104 -17.678  43.333  0.00  0.00     0.174 A 
ATOM      9  O   UNL d   1      46.164 -18.463  43.068  0.00  0.00    -0.316 OA
ATOM     10  C   UNL d   1      46.378 -17.363  42.153  0.00  0.00     0.079 A 
ATOM     11  C   UNL d   1      45.921 -17.797  44.124  0.00  0.00     0.055 C 
ATOM     12  C   UNL d   1      46.330 -18.826  42.349  0.00  0.00     0.094 A 
ATOM     13  C   UNL d   1      46.295 -19.643  42.494  0.00  0.00     0.024 A 
ATOM     14  C   UNL d   1      46.506 -18.560  41.588  0.00  0.00     0.022 A 
ATOM     15  C   UNL d   1      46.435 -20.179  41.885  0.00  0.00     0.002 A 
ATOM     16  C   UNL d   1      46.611 -19.905  41.126  0.00  0.00    -0.000 A 
ATOM     17  C   UNL d   1      46.647 -19.095  40.977  0.00  0.00    -0.001 A 
ATOM     18  C   UNL d   1      46.590 -17.822  41.233  0.00  0.00     0.137 A 
ATOM     19  N   UNL d   1      46.531 -17.031  41.493  0.00  0.00    -0.216 NA
ATOM     20  C   UNL d   1      46.366 -16.668  42.211  0.00  0.00     0.348 A 
ATOM     21  O   UNL d   1      46.378 -15.850  42.165  0.00  0.00    -0.245 OA
ENDBRANCH   1   7
BRANCH   3  22
ATOM     22  C   UNL d   1      44.969 -14.442  43.618  0.00  0.00     0.279 C 
ATOM     23  N   UNL d   1      45.263 -13.674  43.621  0.00  0.00    -0.206 NA
ATOM     24  O   UNL d   1      44.185 -14.589  43.403  0.00  0.00    -0.265 OA
BRANCH  23  25
ATOM     25  C   UNL d   1      44.769 -13.044  43.408  0.00  0.00     0.102 C 
BRANCH  25  26
ATOM     26  C   UNL d   1      44.815 -12.729  42.649  0.00  0.00     0.019 A 
ATOM     27  C   UNL d   1      44.144 -12.415  42.284  0.00  0.00     0.002 A 
ATOM     28  C   UNL d   1      44.200 -12.101  41.525  0.00  0.00     0.000 A 
ATOM     29  C   UNL d   1      44.918 -12.096  41.121  0.00  0.00     0.000 A 
ATOM     30  C   UNL d   1      45.591 -12.412  41.491  0.00  0.00     0.000 A 
ATOM     31  C   UNL d   1      45.541 -12.726  42.249  0.00  0.00     0.002 A 
ENDBRANCH  25  26
ENDBRANCH  23  25
ENDBRANCH   3  22
TORSDOF 4
ENDMDL
