MODEL 1
REMARK VINA RESULT:      -8.7      0.000      0.000
REMARK  3 active torsions:
REMARK  status: ('A' for Active; 'I' for Inactive)
REMARK    1  A    between atoms: C_9  and  C_3 
REMARK    2  A    between atoms: C_8  and  C_5 
REMARK    3  A    between atoms: O_19  and  C_9 
ROOT
ATOM      1  N   UNL d   1     -47.838  12.421  23.281  0.00  0.00    -0.278 N 
ATOM      2  C   UNL d   1     -47.063  12.705  23.283  0.00  0.00     0.178 A 
ATOM      3  C   UNL d   1     -48.310  13.712  22.882  0.00  0.00     0.075 A 
ATOM      4  N   UNL d   1     -46.897  13.500  23.084  0.00  0.00    -0.223 NA
ATOM      5  C   UNL d   1     -48.456  12.929  23.080  0.00  0.00     0.178 A 
ATOM      6  C   UNL d   1     -47.535  13.996  22.884  0.00  0.00     0.086 A 
ATOM      7  C   UNL d   1     -47.983  11.638  23.478  0.00  0.00     0.263 A 
ATOM      8  S   UNL d   1     -46.425  12.209  23.482  0.00  0.00    -0.050 SA
ATOM      9  C   UNL d   1     -47.364  11.127  23.680  0.00  0.00     0.068 A 
ATOM     10  O   UNL d   1     -48.757  11.354  23.476  0.00  0.00    -0.267 OA
ATOM     11  C   UNL d   1     -46.589  11.411  23.682  0.00  0.00     0.043 A 
ATOM     12  C   UNL d   1     -47.360  14.818  22.679  0.00  0.00     0.021 C 
ENDROOT
BRANCH   5  13
ATOM     13  C   UNL d   1     -49.229  12.645  23.078  0.00  0.00     0.024 A 
ATOM     14  S   UNL d   1     -49.808  12.591  23.664  0.00  0.00    -0.089 SA
ATOM     15  C   UNL d   1     -50.474  12.259  23.336  0.00  0.00     0.035 A 
ATOM     16  C   UNL d   1     -50.317  12.107  22.560  0.00  0.00     0.007 A 
ATOM     17  C   UNL d   1     -49.566  12.335  22.385  0.00  0.00     0.004 A 
ENDBRANCH   5  13
BRANCH   3  18
ATOM     18  C   UNL d   1     -48.935  14.240  22.675  0.00  0.00     0.295 C 
ATOM     19  O   UNL d   1     -49.196  14.258  21.893  0.00  0.00    -0.259 OA
BRANCH  18  20
ATOM     20  O   UNL d   1     -49.286  14.732  23.231  0.00  0.00    -0.296 OA
ATOM     21  C   UNL d   1     -49.644  15.435  23.003  0.00  0.00     0.185 C 
ENDBRANCH  18  20
ENDBRANCH   3  18
TORSDOF 3
ENDMDL
MODEL 2
REMARK VINA RESULT:      -8.1      1.342      2.781
REMARK  3 active torsions:
REMARK  status: ('A' for Active; 'I' for Inactive)
REMARK    1  A    between atoms: C_9  and  C_3 
REMARK    2  A    between atoms: C_8  and  C_5 
REMARK    3  A    between atoms: O_19  and  C_9 
ROOT
ATOM      1  N   UNL d   1     -49.022  12.656  23.183  0.00  0.00    -0.278 N 
ATOM      2  C   UNL d   1     -48.921  11.907  23.514  0.00  0.00     0.178 A 
ATOM      3  C   UNL d   1     -47.602  12.836  23.160  0.00  0.00     0.075 A 
ATOM      4  N   UNL d   1     -48.157  11.608  23.675  0.00  0.00    -0.223 NA
ATOM      5  C   UNL d   1     -48.359  13.115  23.009  0.00  0.00     0.178 A 
ATOM      6  C   UNL d   1     -47.502  12.087  23.491  0.00  0.00     0.086 A 
ATOM      7  C   UNL d   1     -49.778  12.935  23.032  0.00  0.00     0.263 A 
ATOM      8  S   UNL d   1     -49.576  11.428  23.698  0.00  0.00    -0.050 SA
ATOM      9  C   UNL d   1     -50.445  12.476  23.207  0.00  0.00     0.068 A 
ATOM     10  O   UNL d   1     -49.879  13.683  22.702  0.00  0.00    -0.267 OA
ATOM     11  C   UNL d   1     -50.345  11.727  23.538  0.00  0.00     0.043 A 
ATOM     12  C   UNL d   1     -46.713  11.774  23.658  0.00  0.00     0.021 C 
ENDROOT
BRANCH   5  13
ATOM     13  C   UNL d   1     -48.459  13.863  22.679  0.00  0.00     0.024 A 
ATOM     14  S   UNL d   1     -48.529  14.127  21.900  0.00  0.00    -0.089 SA
ATOM     15  C   UNL d   1     -48.618  14.935  21.910  0.00  0.00     0.035 A 
ATOM     16  C   UNL d   1     -48.604  15.175  22.680  0.00  0.00     0.007 A 
ATOM     17  C   UNL d   1     -48.509  14.537  23.160  0.00  0.00     0.004 A 
ENDBRANCH   5  13
BRANCH   3  18
ATOM     18  C   UNL d   1     -46.917  13.298  22.985  0.00  0.00     0.295 C 
ATOM     19  O   UNL d   1     -46.656  13.847  23.542  0.00  0.00    -0.259 OA
BRANCH  18  20
ATOM     20  O   UNL d   1     -46.509  13.212  22.278  0.00  0.00    -0.296 OA
ATOM     21  C   UNL d   1     -45.707  13.385  22.233  0.00  0.00     0.185 C 
ENDBRANCH  18  20
ENDBRANCH   3  18
TORSDOF 3
ENDMDL
MODEL 3
REMARK VINA RESULT:      -8.1      1.083      2.372
REMARK  3 active torsions:
REMARK  status: ('A' for Active; 'I' for Inactive)
REMARK    1  A    between atoms: C_9  and  C_3 
REMARK    2  A    between atoms: C_8  and  C_5 
REMARK    3  A    between atoms: O_19  and  C_9 
ROOT
ATOM      1  N   UNL d   1     -47.831  13.420  23.002  0.00  0.00    -0.278 N 
ATOM      2  C   UNL d   1     -47.373  12.777  23.241  0.00  0.00     0.178 A 
ATOM      3  C   UNL d   1     -49.010  12.614  23.094  0.00  0.00     0.075 A 
ATOM      4  N   UNL d   1     -47.726  12.038  23.412  0.00  0.00    -0.223 NA
ATOM      5  C   UNL d   1     -48.648  13.332  22.931  0.00  0.00     0.178 A 
ATOM      6  C   UNL d   1     -48.552  11.971  23.333  0.00  0.00     0.086 A 
ATOM      7  C   UNL d   1     -47.469  14.138  22.839  0.00  0.00     0.263 A 
ATOM      8  S   UNL d   1     -46.547  12.844  23.320  0.00  0.00    -0.050 SA
ATOM      9  C   UNL d   1     -46.649  14.228  22.910  0.00  0.00     0.068 A 
ATOM     10  O   UNL d   1     -47.927  14.781  22.600  0.00  0.00    -0.267 OA
ATOM     11  C   UNL d   1     -46.191  13.585  23.149  0.00  0.00     0.043 A 
ATOM     12  C   UNL d   1     -48.914  11.205  23.510  0.00  0.00     0.021 C 
ENDROOT
BRANCH   5  13
ATOM     13  C   UNL d   1     -49.106  13.975  22.692  0.00  0.00     0.024 A 
ATOM     14  S   UNL d   1     -49.468  14.589  23.107  0.00  0.00    -0.089 SA
ATOM     15  C   UNL d   1     -49.851  15.068  22.572  0.00  0.00     0.035 A 
ATOM     16  C   UNL d   1     -49.732  14.760  21.837  0.00  0.00     0.007 A 
ATOM     17  C   UNL d   1     -49.282  14.096  21.890  0.00  0.00     0.004 A 
ENDBRANCH   5  13
BRANCH   3  18
ATOM     18  C   UNL d   1     -49.846  12.513  23.024  0.00  0.00     0.295 C 
ATOM     19  O   UNL d   1     -50.162  12.331  22.285  0.00  0.00    -0.259 OA
BRANCH  18  20
ATOM     20  O   UNL d   1     -50.345  12.593  23.671  0.00  0.00    -0.296 OA
ATOM     21  C   UNL d   1     -51.064  12.198  23.697  0.00  0.00     0.185 C 
ENDBRANCH  18  20
ENDBRANCH   3  18
TORSDOF 3
ENDMDL
MODEL 4
REMARK VINA RESULT:      -7.9      1.262      2.706
REMARK  3 active torsions:
REMARK  status: ('A' for Active; 'I' for Inactive)
REMARK    1  A    between atoms: C_9  and  C_3 
REMARK    2  A    between atoms: C_8  and  C_5 
REMARK    3  A    between atoms: O_19  and  C_9 
ROOT
ATOM      1  N   UNL d   1     -49.253  14.118  22.976  0.00  0.00    -0.278 N 
ATOM      2  C   UNL d   1     -48.810  14.811  22.912  0.00  0.00     0.178 A 
ATOM      3  C   UNL d   1     -48.049  13.345  22.933  0.00  0.00     0.075 A 
ATOM      4  N   UNL d   1     -47.976  14.784  22.858  0.00  0.00    -0.223 NA
ATOM      5  C   UNL d   1     -48.867  13.389  22.986  0.00  0.00     0.178 A 
ATOM      6  C   UNL d   1     -47.607  14.039  22.869  0.00  0.00     0.086 A 
ATOM      7  C   UNL d   1     -50.071  14.162  23.029  0.00  0.00     0.263 A 
ATOM      8  S   UNL d   1     -49.180  15.557  22.900  0.00  0.00    -0.050 SA
ATOM      9  C   UNL d   1     -50.460  14.893  23.019  0.00  0.00     0.068 A 
ATOM     10  O   UNL d   1     -50.513  13.470  23.093  0.00  0.00    -0.267 OA
ATOM     11  C   UNL d   1     -50.017  15.586  22.955  0.00  0.00     0.043 A 
ATOM     12  C   UNL d   1     -46.743  14.014  22.812  0.00  0.00     0.021 C 
ENDROOT
BRANCH   5  13
ATOM     13  C   UNL d   1     -49.309  12.697  23.050  0.00  0.00     0.024 A 
ATOM     14  S   UNL d   1     -49.579  12.262  23.698  0.00  0.00    -0.089 SA
ATOM     15  C   UNL d   1     -49.993  11.620  23.421  0.00  0.00     0.035 A 
ATOM     16  C   UNL d   1     -49.984  11.650  22.615  0.00  0.00     0.007 A 
ATOM     17  C   UNL d   1     -49.574  12.297  22.373  0.00  0.00     0.004 A 
ENDBRANCH   5  13
BRANCH   3  18
ATOM     18  C   UNL d   1     -47.644  12.604  22.943  0.00  0.00     0.295 C 
ATOM     19  O   UNL d   1     -47.554  12.193  22.234  0.00  0.00    -0.259 OA
BRANCH  18  20
ATOM     20  O   UNL d   1     -47.341  12.288  23.637  0.00  0.00    -0.296 OA
ATOM     21  C   UNL d   1     -46.698  11.777  23.620  0.00  0.00     0.185 C 
ENDBRANCH  18  20
ENDBRANCH   3  18
TORSDOF 3
ENDMDL
MODEL 5
REMARK VINA RESULT:      -7.7      1.245      3.477
REMARK  3 active torsions:
REMARK  status: ('A' for Active; 'I' for Inactive)
REMARK    1  A    between atoms: C_9  and  C_3 
REMARK    2  A    between atoms: C_8  and  C_5 
REMARK    3  A    between atoms: O_19  and  C_9 
ROOT
ATOM      1  N   UNL d   1     -48.994  14.097  23.007  0.00  0.00    -0.278 N 
ATOM      2  C   UNL d   1     -49.786  13.997  23.216  0.00  0.00     0.178 A 
ATOM      3  C   UNL d   1     -48.791  12.683  23.097  0.00  0.00     0.075 A 
ATOM      4  N   UNL d   1     -50.096  13.235  23.369  0.00  0.00    -0.223 NA
ATOM      5  C   UNL d   1     -48.503  13.437  22.950  0.00  0.00     0.178 A 
ATOM      6  C   UNL d   1     -49.583  12.583  23.305  0.00  0.00     0.086 A 
ATOM      7  C   UNL d   1     -48.705  14.851  22.860  0.00  0.00     0.263 A 
ATOM      8  S   UNL d   1     -50.299  14.649  23.279  0.00  0.00    -0.050 SA
ATOM      9  C   UNL d   1     -49.197  15.515  22.918  0.00  0.00     0.068 A 
ATOM     10  O   UNL d   1     -47.914  14.951  22.653  0.00  0.00    -0.267 OA
ATOM     11  C   UNL d   1     -49.989  15.415  23.126  0.00  0.00     0.043 A 
ATOM     12  C   UNL d   1     -49.908  11.797  23.464  0.00  0.00     0.021 C 
ENDROOT
BRANCH   5  13
ATOM     13  C   UNL d   1     -47.711  13.537  22.742  0.00  0.00     0.024 A 
ATOM     14  S   UNL d   1     -47.316  13.520  22.018  0.00  0.00    -0.089 SA
ATOM     15  C   UNL d   1     -46.526  13.658  22.154  0.00  0.00     0.035 A 
ATOM     16  C   UNL d   1     -46.427  13.759  22.948  0.00  0.00     0.007 A 
ATOM     17  C   UNL d   1     -47.136  13.689  23.321  0.00  0.00     0.004 A 
ENDBRANCH   5  13
BRANCH   3  18
ATOM     18  C   UNL d   1     -48.297  12.001  23.041  0.00  0.00     0.295 C 
ATOM     19  O   UNL d   1     -48.199  11.642  22.306  0.00  0.00    -0.259 OA
BRANCH  18  20
ATOM     20  O   UNL d   1     -47.915  11.691  23.698  0.00  0.00    -0.296 OA
ATOM     21  C   UNL d   1     -47.642  10.916  23.698  0.00  0.00     0.185 C 
ENDBRANCH  18  20
ENDBRANCH   3  18
TORSDOF 3
ENDMDL
MODEL 6
REMARK VINA RESULT:      -6.6      1.129      2.308
REMARK  3 active torsions:
REMARK  status: ('A' for Active; 'I' for Inactive)
REMARK    1  A    between atoms: C_9  and  C_3 
REMARK    2  A    between atoms: C_8  and  C_5 
REMARK    3  A    between atoms: O_19  and  C_9 
ROOT
ATOM      1  N   UNL d   1     -48.363  12.447  23.114  0.00  0.00    -0.278 N 
ATOM      2  C   UNL d   1     -49.148  12.195  23.142  0.00  0.00     0.178 A 
ATOM      3  C   UNL d   1     -48.783  13.697  22.560  0.00  0.00     0.075 A 
ATOM      4  N   UNL d   1     -49.767  12.692  22.879  0.00  0.00    -0.223 NA
ATOM      5  C   UNL d   1     -48.187  13.198  22.822  0.00  0.00     0.178 A 
ATOM      6  C   UNL d   1     -49.568  13.446  22.588  0.00  0.00     0.086 A 
ATOM      7  C   UNL d   1     -47.767  11.947  23.376  0.00  0.00     0.263 A 
ATOM      8  S   UNL d   1     -49.347  11.442  23.433  0.00  0.00    -0.050 SA
ATOM      9  C   UNL d   1     -47.942  11.192  23.670  0.00  0.00     0.068 A 
ATOM     10  O   UNL d   1     -46.983  12.198  23.348  0.00  0.00    -0.267 OA
ATOM     11  C   UNL d   1     -48.727  10.941  23.698  0.00  0.00     0.043 A 
ATOM     12  C   UNL d   1     -50.211  13.958  22.316  0.00  0.00     0.021 C 
ENDROOT
BRANCH   5  13
ATOM     13  C   UNL d   1     -47.403  13.448  22.793  0.00  0.00     0.024 A 
ATOM     14  S   UNL d   1     -46.930  13.869  23.323  0.00  0.00    -0.089 SA
ATOM     15  C   UNL d   1     -46.191  13.956  22.993  0.00  0.00     0.035 A 
ATOM     16  C   UNL d   1     -46.200  13.597  22.271  0.00  0.00     0.007 A 
ATOM     17  C   UNL d   1     -46.927  13.284  22.133  0.00  0.00     0.004 A 
ENDBRANCH   5  13
BRANCH   3  18
ATOM     18  C   UNL d   1     -48.614  14.468  22.259  0.00  0.00     0.295 C 
ATOM     19  O   UNL d   1     -48.404  14.547  21.466  0.00  0.00    -0.259 OA
BRANCH  18  20
ATOM     20  O   UNL d   1     -48.654  15.135  22.736  0.00  0.00    -0.296 OA
ATOM     21  C   UNL d   1     -48.920  15.851  22.434  0.00  0.00     0.185 C 
ENDBRANCH  18  20
ENDBRANCH   3  18
TORSDOF 3
ENDMDL
MODEL 7
REMARK VINA RESULT:      -6.1      1.580      2.756
REMARK  3 active torsions:
REMARK  status: ('A' for Active; 'I' for Inactive)
REMARK    1  A    between atoms: C_9  and  C_3 
REMARK    2  A    between atoms: C_8  and  C_5 
REMARK    3  A    between atoms: O_19  and  C_9 
ROOT
ATOM      1  N   UNL d   1     -48.848  13.913  22.810  0.00  0.00    -0.278 N 
ATOM      2  C   UNL d   1     -48.843  14.726  22.673  0.00  0.00     0.178 A 
ATOM      3  C   UNL d   1     -47.417  13.901  22.798  0.00  0.00     0.075 A 
ATOM      4  N   UNL d   1     -48.122  15.143  22.595  0.00  0.00    -0.223 NA
ATOM      5  C   UNL d   1     -48.133  13.507  22.871  0.00  0.00     0.178 A 
ATOM      6  C   UNL d   1     -47.412  14.715  22.660  0.00  0.00     0.086 A 
ATOM      7  C   UNL d   1     -49.564  13.518  22.884  0.00  0.00     0.263 A 
ATOM      8  S   UNL d   1     -49.553  15.155  22.608  0.00  0.00    -0.050 SA
ATOM      9  C   UNL d   1     -50.283  13.925  22.822  0.00  0.00     0.068 A 
ATOM     10  O   UNL d   1     -49.570  12.706  23.021  0.00  0.00    -0.267 OA
ATOM     11  C   UNL d   1     -50.278  14.738  22.685  0.00  0.00     0.043 A 
ATOM     12  C   UNL d   1     -46.668  15.149  22.580  0.00  0.00     0.021 C 
ENDROOT
BRANCH   5  13
ATOM     13  C   UNL d   1     -48.139  12.694  23.008  0.00  0.00     0.024 A 
ATOM     14  S   UNL d   1     -48.109  12.242  23.698  0.00  0.00    -0.089 SA
ATOM     15  C   UNL d   1     -48.132  11.456  23.490  0.00  0.00     0.035 A 
ATOM     16  C   UNL d   1     -48.176  11.415  22.686  0.00  0.00     0.007 A 
ATOM     17  C   UNL d   1     -48.181  12.157  22.377  0.00  0.00     0.004 A 
ENDBRANCH   5  13
BRANCH   3  18
ATOM     18  C   UNL d   1     -46.679  13.495  22.859  0.00  0.00     0.295 C 
ATOM     19  O   UNL d   1     -46.375  13.336  23.608  0.00  0.00    -0.259 OA
BRANCH  18  20
ATOM     20  O   UNL d   1     -46.263  13.257  22.193  0.00  0.00    -0.296 OA
ATOM     21  C   UNL d   1     -45.443  13.218  22.203  0.00  0.00     0.185 C 
ENDBRANCH  18  20
ENDBRANCH   3  18
TORSDOF 3
ENDMDL
