MODEL 1
REMARK VINA RESULT:      -1.7      0.000      0.000
REMARK  6 active torsions:
REMARK  status: ('A' for Active; 'I' for Inactive)
REMARK    1  A    between atoms: C_6  and  N_1 
REMARK    2  A    between atoms: C_13  and  C_6 
REMARK    3  A    between atoms: N_12  and  C_22 
REMARK    4  A    between atoms: C_23  and  N_12 
REMARK    5  A    between atoms: C_22  and  C_13 
REMARK    6  A    between atoms: C_20  and  C_23 
ROOT
ATOM      1  N   UNL d   1      33.236  20.030 -22.994  0.00  0.00    -0.303 N 
ATOM      2  C   UNL d   1      33.233  21.353 -23.151  0.00  0.00     0.018 A 
ATOM      3  C   UNL d   1      33.231  21.195 -22.337  0.00  0.00     0.018 A 
ATOM      4  C   UNL d   1      33.235  20.635 -23.556  0.00  0.00     0.064 A 
ATOM      5  C   UNL d   1      33.233  20.370 -22.248  0.00  0.00     0.064 A 
ATOM      6  C   UNL d   1      33.232  20.038 -21.498  0.00  0.00     0.018 A 
ATOM      7  C   UNL d   1      33.237  20.630 -24.378  0.00  0.00     0.018 A 
ATOM      8  C   UNL d   1      33.228  21.682 -21.675  0.00  0.00     0.008 A 
ATOM      9  C   UNL d   1      33.232  22.066 -23.567  0.00  0.00     0.008 A 
ATOM     10  C   UNL d   1      33.234  22.054 -24.392  0.00  0.00     0.035 A 
ATOM     11  C   UNL d   1      33.227  21.353 -20.913  0.00  0.00     0.035 A 
ATOM     12  C   UNL d   1      33.229  20.526 -20.821  0.00  0.00     0.008 A 
ATOM     13  C   UNL d   1      33.236  21.335 -24.797  0.00  0.00     0.008 A 
ATOM     14 BR   UNL d   1      33.233  22.762 -24.810  0.00  0.00    -0.049 Br
ATOM     15 BR   UNL d   1      33.225  21.840 -20.251  0.00  0.00    -0.049 Br
ENDROOT
BRANCH   1  16
ATOM     16  C   UNL d   1      33.238  19.223 -23.164  0.00  0.00     0.124 C 
BRANCH  16  17
ATOM     17  C   UNL d   1      32.532  18.807 -23.226  0.00  0.00     0.232 C 
ATOM     18  O   UNL d   1      31.810  19.200 -23.107  0.00  0.00    -0.283 OA
BRANCH  17  19
ATOM     19  C   UNL d   1      32.535  18.001 -23.407  0.00  0.00     0.142 C 
BRANCH  19  20
ATOM     20  N   UNL d   1      31.818  17.600 -23.496  0.00  0.00    -0.237 NA
BRANCH  20  21
ATOM     21  C   UNL d   1      31.767  16.947 -23.998  0.00  0.00     0.124 C 
BRANCH  21  22
ATOM     22  C   UNL d   1      31.131  16.438 -23.950  0.00  0.00     0.119 A 
ATOM     23  O   UNL d   1      30.728  16.229 -23.254  0.00  0.00    -0.304 OA
ATOM     24  C   UNL d   1      30.122  15.701 -23.462  0.00  0.00     0.123 A 
ATOM     25  C   UNL d   1      30.155  15.588 -24.279  0.00  0.00     0.029 A 
ATOM     26  C   UNL d   1      30.772  16.039 -24.578  0.00  0.00     0.028 A 
ENDBRANCH  21  22
ENDBRANCH  20  21
ENDBRANCH  19  20
ENDBRANCH  17  19
ENDBRANCH  16  17
ENDBRANCH   1  16
TORSDOF 6
ENDMDL
