MODEL 1
REMARK VINA RESULT:      19.5      0.000      0.000
REMARK  2 active torsions:
REMARK  status: ('A' for Active; 'I' for Inactive)
REMARK    1  A    between atoms: C_9  and  N_1 
REMARK    2  A    between atoms: C_2  and  C_10 
ROOT
ATOM      1  C   UNL d   1      46.172 -18.224  43.810  0.00  0.00     0.070 A 
ATOM      2  C   UNL d   1      45.879 -16.620  44.166  0.00  0.00     0.024 A 
ATOM      3  C   UNL d   1      45.852 -18.017  44.535  0.00  0.00     0.018 A 
ATOM      4  C   UNL d   1      46.355 -17.658  43.249  0.00  0.00     0.018 A 
ATOM      5  C   UNL d   1      45.703 -17.202  44.716  0.00  0.00     0.004 A 
ATOM      6  C   UNL d   1      46.206 -16.847  43.429  0.00  0.00     0.004 A 
ENDROOT
BRANCH   2   7
ATOM      7  C   UNL d   1      45.758 -15.957  44.313  0.00  0.00     0.111 A 
ATOM      8  N   UNL d   1      46.406 -15.314  44.341  0.00  0.00    -0.239 NA
ATOM      9  C   UNL d   1      45.980 -14.601  44.544  0.00  0.00     0.088 A 
ATOM     10  C   UNL d   1      46.275 -13.893  44.637  0.00  0.00     0.020 A 
ATOM     11  C   UNL d   1      45.177 -14.767  44.632  0.00  0.00     0.049 A 
ATOM     12  C   UNL d   1      45.735 -13.262  44.841  0.00  0.00     0.002 A 
ATOM     13  C   UNL d   1      44.953 -13.424  44.926  0.00  0.00     0.001 A 
ATOM     14  C   UNL d   1      44.644 -14.177  44.826  0.00  0.00     0.008 A 
ATOM     15  S   UNL d   1      45.080 -15.665  44.472  0.00  0.00    -0.066 SA
ENDBRANCH   2   7
BRANCH   1  16
ATOM     16  N   UNL d   1      46.319 -19.026  43.632  0.00  0.00    -0.242 N 
ATOM     17  C   UNL d   1      46.257 -19.302  42.859  0.00  0.00     0.267 A 
ATOM     18  C   UNL d   1      46.435 -20.108  42.871  0.00  0.00     0.066 A 
ATOM     19  O   UNL d   1      46.049 -18.863  42.145  0.00  0.00    -0.267 OA
ATOM     20  C   UNL d   1      46.607 -20.319  43.671  0.00  0.00     0.066 A 
ATOM     21  C   UNL d   1      46.528 -19.625  44.134  0.00  0.00     0.267 A 
ATOM     22  O   UNL d   1      46.647 -19.582  44.946  0.00  0.00    -0.267 OA
ENDBRANCH   1  16
TORSDOF 2
ENDMDL
MODEL 2
REMARK VINA RESULT:      20.8      1.849      4.760
REMARK  2 active torsions:
REMARK  status: ('A' for Active; 'I' for Inactive)
REMARK    1  A    between atoms: C_9  and  N_1 
REMARK    2  A    between atoms: C_2  and  C_10 
ROOT
ATOM      1  C   UNL d   1      45.576 -15.282  44.353  0.00  0.00     0.070 A 
ATOM      2  C   UNL d   1      45.925 -16.900  44.145  0.00  0.00     0.024 A 
ATOM      3  C   UNL d   1      45.379 -15.822  44.936  0.00  0.00     0.018 A 
ATOM      4  C   UNL d   1      45.944 -15.518  43.662  0.00  0.00     0.018 A 
ATOM      5  C   UNL d   1      45.557 -16.644  44.831  0.00  0.00     0.004 A 
ATOM      6  C   UNL d   1      46.120 -16.336  43.557  0.00  0.00     0.004 A 
ENDROOT
BRANCH   2   7
ATOM      7  C   UNL d   1      46.070 -17.570  44.059  0.00  0.00     0.111 A 
ATOM      8  N   UNL d   1      46.155 -17.972  43.244  0.00  0.00    -0.239 NA
ATOM      9  C   UNL d   1      46.332 -18.787  43.434  0.00  0.00     0.088 A 
ATOM     10  C   UNL d   1      46.455 -19.365  42.937  0.00  0.00     0.020 A 
ATOM     11  C   UNL d   1      46.355 -18.887  44.253  0.00  0.00     0.049 A 
ATOM     12  C   UNL d   1      46.623 -20.138  43.261  0.00  0.00     0.002 A 
ATOM     13  C   UNL d   1      46.647 -20.235  44.058  0.00  0.00     0.001 A 
ATOM     14  C   UNL d   1      46.515 -19.619  44.582  0.00  0.00     0.008 A 
ATOM     15  S   UNL d   1      46.178 -18.064  44.618  0.00  0.00    -0.066 SA
ENDBRANCH   2   7
BRANCH   1  16
ATOM     16  N   UNL d   1      45.401 -14.472  44.457  0.00  0.00    -0.242 N 
ATOM     17  C   UNL d   1      44.663 -14.235  44.735  0.00  0.00     0.267 A 
ATOM     18  C   UNL d   1      44.669 -13.411  44.775  0.00  0.00     0.066 A 
ATOM     19  O   UNL d   1      43.987 -14.725  44.955  0.00  0.00    -0.267 OA
ATOM     20  C   UNL d   1      45.429 -13.148  44.513  0.00  0.00     0.066 A 
ATOM     21  C   UNL d   1      45.874 -13.831  44.318  0.00  0.00     0.267 A 
ATOM     22  O   UNL d   1      46.647 -13.828  44.039  0.00  0.00    -0.267 OA
ENDBRANCH   1  16
TORSDOF 2
ENDMDL
