MODEL 1
REMARK VINA RESULT:      -8.3      0.000      0.000
REMARK  2 active torsions:
REMARK  status: ('A' for Active; 'I' for Inactive)
REMARK    1  A    between atoms: C_7  and  C_2 
REMARK    2  A    between atoms: C_6  and  N_3 
ROOT
ATOM      1  C   UNL d   1     -48.829  12.503  22.584  0.00  0.00     0.085 A 
ATOM      2  C   UNL d   1     -49.169  13.175  22.889  0.00  0.00     0.019 A 
ATOM      3  C   UNL d   1     -49.796  13.540  22.498  0.00  0.00     0.002 A 
ATOM      4  C   UNL d   1     -49.128  12.182  21.858  0.00  0.00     0.019 A 
ATOM      5  C   UNL d   1     -50.087  13.228  21.791  0.00  0.00     0.000 A 
ATOM      6  C   UNL d   1     -49.757  12.544  21.461  0.00  0.00     0.002 A 
ATOM      7  C   UNL d   1     -50.118  14.209  22.823  0.00  0.00     0.000 A 
ATOM      8  C   UNL d   1     -50.705  13.578  21.394  0.00  0.00     0.000 A 
ATOM      9  C   UNL d   1     -50.736  14.582  22.450  0.00  0.00     0.000 A 
ATOM     10  C   UNL d   1     -51.035  14.261  21.724  0.00  0.00     0.000 A 
ENDROOT
BRANCH   1  11
ATOM     11  N   UNL d   1     -48.202  12.121  22.958  0.00  0.00    -0.210 N 
ATOM     12  C   UNL d   1     -47.404  12.294  22.971  0.00  0.00     0.191 A 
ATOM     13  C   UNL d   1     -47.041  11.740  23.420  0.00  0.00     0.118 A 
ATOM     14  N   UNL d   1     -47.051  12.927  22.588  0.00  0.00    -0.127 N 
ATOM     15  C   UNL d   1     -47.606  11.207  23.698  0.00  0.00     0.129 A 
ATOM     16  N   UNL d   1     -48.310  11.444  23.413  0.00  0.00    -0.162 NA
BRANCH  13  17
ATOM     17  C   UNL d   1     -46.229  11.716  23.575  0.00  0.00     0.301 C 
ATOM     18  O   UNL d   1     -45.853  12.409  23.698  0.00  0.00    -0.263 OA
ATOM     19  N   UNL d   1     -45.841  11.019  23.599  0.00  0.00    -0.102 N 
ENDBRANCH  13  17
ENDBRANCH   1  11
TORSDOF 2
ENDMDL
MODEL 2
REMARK VINA RESULT:      -8.2      1.419      1.683
REMARK  2 active torsions:
REMARK  status: ('A' for Active; 'I' for Inactive)
REMARK    1  A    between atoms: C_7  and  C_2 
REMARK    2  A    between atoms: C_6  and  N_3 
ROOT
ATOM      1  C   UNL d   1     -48.140  12.533  22.974  0.00  0.00     0.085 A 
ATOM      2  C   UNL d   1     -48.646  13.075  23.309  0.00  0.00     0.019 A 
ATOM      3  C   UNL d   1     -49.459  12.934  23.323  0.00  0.00     0.002 A 
ATOM      4  C   UNL d   1     -48.459  11.823  22.639  0.00  0.00     0.019 A 
ATOM      5  C   UNL d   1     -49.769  12.242  22.996  0.00  0.00     0.000 A 
ATOM      6  C   UNL d   1     -49.274  11.676  22.649  0.00  0.00     0.002 A 
ATOM      7  C   UNL d   1     -49.941  13.489  23.663  0.00  0.00     0.000 A 
ATOM      8  C   UNL d   1     -50.569  12.091  23.003  0.00  0.00     0.000 A 
ATOM      9  C   UNL d   1     -50.744  13.367  23.685  0.00  0.00     0.000 A 
ATOM     10  C   UNL d   1     -51.063  12.656  23.349  0.00  0.00     0.000 A 
ENDROOT
BRANCH   1  11
ATOM     11  N   UNL d   1     -47.326  12.652  22.949  0.00  0.00    -0.210 N 
ATOM     12  C   UNL d   1     -46.867  13.092  22.436  0.00  0.00     0.191 A 
ATOM     13  C   UNL d   1     -46.104  13.015  22.664  0.00  0.00     0.118 A 
ATOM     14  N   UNL d   1     -47.150  13.530  21.804  0.00  0.00    -0.127 N 
ATOM     15  C   UNL d   1     -46.070  12.524  23.326  0.00  0.00     0.129 A 
ATOM     16  N   UNL d   1     -46.816  12.307  23.494  0.00  0.00    -0.162 NA
BRANCH  13  17
ATOM     17  C   UNL d   1     -45.460  13.375  22.289  0.00  0.00     0.301 C 
ATOM     18  O   UNL d   1     -45.304  14.137  22.469  0.00  0.00    -0.263 OA
ATOM     19  N   UNL d   1     -45.014  12.968  21.767  0.00  0.00    -0.102 N 
ENDBRANCH  13  17
ENDBRANCH   1  11
TORSDOF 2
ENDMDL
MODEL 3
REMARK VINA RESULT:      -6.7      9.093     10.189
REMARK  2 active torsions:
REMARK  status: ('A' for Active; 'I' for Inactive)
REMARK    1  A    between atoms: C_7  and  C_2 
REMARK    2  A    between atoms: C_6  and  N_3 
ROOT
ATOM      1  C   UNL d   1     -39.979  14.368  19.672  0.00  0.00     0.085 A 
ATOM      2  C   UNL d   1     -39.233  14.133  19.893  0.00  0.00     0.019 A 
ATOM      3  C   UNL d   1     -39.049  14.023  20.690  0.00  0.00     0.002 A 
ATOM      4  C   UNL d   1     -40.566  14.498  20.271  0.00  0.00     0.019 A 
ATOM      5  C   UNL d   1     -39.620  14.151  21.273  0.00  0.00     0.000 A 
ATOM      6  C   UNL d   1     -40.387  14.390  21.071  0.00  0.00     0.002 A 
ATOM      7  C   UNL d   1     -38.298  13.789  20.884  0.00  0.00     0.000 A 
ATOM      8  C   UNL d   1     -39.452  14.046  22.062  0.00  0.00     0.000 A 
ATOM      9  C   UNL d   1     -38.099  13.677  21.664  0.00  0.00     0.000 A 
ATOM     10  C   UNL d   1     -38.686  13.807  22.263  0.00  0.00     0.000 A 
ENDROOT
BRANCH   1  11
ATOM     11  N   UNL d   1     -40.186  14.483  18.884  0.00  0.00    -0.210 N 
ATOM     12  C   UNL d   1     -40.231  15.167  18.439  0.00  0.00     0.191 A 
ATOM     13  C   UNL d   1     -40.461  14.963  17.700  0.00  0.00     0.118 A 
ATOM     14  N   UNL d   1     -40.068  15.922  18.714  0.00  0.00    -0.127 N 
ATOM     15  C   UNL d   1     -40.564  14.145  17.667  0.00  0.00     0.129 A 
ATOM     16  N   UNL d   1     -40.395  13.860  18.390  0.00  0.00    -0.162 NA
BRANCH  13  17
ATOM     17  C   UNL d   1     -40.574  15.496  17.076  0.00  0.00     0.301 C 
ATOM     18  O   UNL d   1     -39.935  15.703  16.646  0.00  0.00    -0.263 OA
ATOM     19  N   UNL d   1     -41.299  15.787  16.917  0.00  0.00    -0.102 N 
ENDBRANCH  13  17
ENDBRANCH   1  11
TORSDOF 2
ENDMDL
MODEL 4
REMARK VINA RESULT:      -6.6      8.788     10.388
REMARK  2 active torsions:
REMARK  status: ('A' for Active; 'I' for Inactive)
REMARK    1  A    between atoms: C_7  and  C_2 
REMARK    2  A    between atoms: C_6  and  N_3 
ROOT
ATOM      1  C   UNL d   1     -39.887  14.376  18.342  0.00  0.00     0.085 A 
ATOM      2  C   UNL d   1     -39.294  13.826  18.263  0.00  0.00     0.019 A 
ATOM      3  C   UNL d   1     -38.914  13.723  17.538  0.00  0.00     0.002 A 
ATOM      4  C   UNL d   1     -40.111  14.842  17.669  0.00  0.00     0.019 A 
ATOM      5  C   UNL d   1     -39.132  14.177  16.883  0.00  0.00     0.000 A 
ATOM      6  C   UNL d   1     -39.734  14.743  16.939  0.00  0.00     0.002 A 
ATOM      7  C   UNL d   1     -38.326  13.169  17.485  0.00  0.00     0.000 A 
ATOM      8  C   UNL d   1     -38.766  14.086  16.162  0.00  0.00     0.000 A 
ATOM      9  C   UNL d   1     -37.941  13.055  16.778  0.00  0.00     0.000 A 
ATOM     10  C   UNL d   1     -38.164  13.520  16.106  0.00  0.00     0.000 A 
ENDROOT
BRANCH   1  11
ATOM     11  N   UNL d   1     -40.281  14.496  19.055  0.00  0.00    -0.210 N 
ATOM     12  C   UNL d   1     -40.188  15.075  19.624  0.00  0.00     0.191 A 
ATOM     13  C   UNL d   1     -40.715  14.929  20.209  0.00  0.00     0.118 A 
ATOM     14  N   UNL d   1     -39.648  15.691  19.589  0.00  0.00    -0.127 N 
ATOM     15  C   UNL d   1     -41.149  14.254  20.017  0.00  0.00     0.129 A 
ATOM     16  N   UNL d   1     -40.880  13.995  19.315  0.00  0.00    -0.162 NA
BRANCH  13  17
ATOM     17  C   UNL d   1     -40.802  15.389  20.891  0.00  0.00     0.301 C 
ATOM     18  O   UNL d   1     -40.277  15.278  21.482  0.00  0.00    -0.263 OA
ATOM     19  N   UNL d   1     -41.393  15.922  20.949  0.00  0.00    -0.102 N 
ENDBRANCH  13  17
ENDBRANCH   1  11
TORSDOF 2
ENDMDL
