MODEL 1
REMARK VINA RESULT:      51.3      0.000      0.000
REMARK  5 active torsions:
REMARK  status: ('A' for Active; 'I' for Inactive)
REMARK    1  A    between atoms: C_11  and  C_5 
REMARK    2  A    between atoms: C_25  and  N_6 
REMARK    3  A    between atoms: N_14  and  C_27 
REMARK    4  A    between atoms: C_26  and  C_25 
REMARK    5  A    between atoms: C_27  and  C_26 
ROOT
ATOM      1  C   UNL d   1     -51.406  25.899  33.355  0.00  0.00     0.082 A 
ATOM      2  C   UNL d   1     -50.624  26.167  33.372  0.00  0.00     0.267 A 
ATOM      3  C   UNL d   1     -52.036  26.437  33.347  0.00  0.00     0.108 A 
ATOM      4  C   UNL d   1     -52.343  24.810  33.331  0.00  0.00     0.113 A 
ATOM      5  C   UNL d   1     -51.555  25.078  33.347  0.00  0.00     0.043 A 
ATOM      6  N   UNL d   1     -50.481  26.982  33.380  0.00  0.00    -0.273 N 
ATOM      7  C   UNL d   1     -52.967  25.348  33.322  0.00  0.00     0.213 A 
ATOM      8  O   UNL d   1     -52.812  26.165  33.331  0.00  0.00    -0.287 OA
ATOM      9  C   UNL d   1     -51.883  27.244  33.355  0.00  0.00     0.043 A 
ATOM     10  C   UNL d   1     -51.111  27.520  33.372  0.00  0.00     0.069 A 
ATOM     11  C   UNL d   1     -52.492  24.000  33.322  0.00  0.00     0.105 C 
ATOM     12  N   UNL d   1     -52.641  23.191  33.314  0.00  0.00    -0.191 NA
ATOM     13  O   UNL d   1     -49.994  25.628  33.380  0.00  0.00    -0.267 OA
ATOM     14  N   UNL d   1     -53.749  25.081  33.306  0.00  0.00    -0.120 N 
ATOM     15  C   UNL d   1     -50.953  28.339  33.380  0.00  0.00     0.019 C 
ENDROOT
BRANCH   5  16
ATOM     16  C   UNL d   1     -50.931  24.539  33.355  0.00  0.00     0.101 A 
ATOM     17  O   UNL d   1     -50.134  24.723  33.353  0.00  0.00    -0.305 OA
ATOM     18  C   UNL d   1     -49.706  24.017  33.363  0.00  0.00     0.123 A 
ATOM     19  C   UNL d   1     -50.248  23.395  33.373  0.00  0.00     0.029 A 
ATOM     20  C   UNL d   1     -51.007  23.710  33.368  0.00  0.00     0.027 A 
ENDBRANCH   5  16
BRANCH   6  21
ATOM     21  C   UNL d   1     -49.690  27.259  33.397  0.00  0.00     0.085 C 
BRANCH  21  22
ATOM     22  C   UNL d   1     -49.420  27.696  34.044  0.00  0.00     0.038 C 
BRANCH  22  23
ATOM     23  C   UNL d   1     -48.639  27.616  34.294  0.00  0.00     0.083 C 
BRANCH  23  24
ATOM     24  N   UNL d   1     -48.262  28.234  34.693  0.00  0.00    -0.285 N 
ATOM     25  C   UNL d   1     -48.585  28.700  35.288  0.00  0.00     0.183 A 
ATOM     26  N   UNL d   1     -48.014  29.244  35.523  0.00  0.00    -0.222 NA
ATOM     27  C   UNL d   1     -47.336  29.116  35.076  0.00  0.00     0.120 A 
ATOM     28  C   UNL d   1     -47.485  28.497  34.566  0.00  0.00     0.102 A 
ENDBRANCH  23  24
ENDBRANCH  22  23
ENDBRANCH  21  22
ENDBRANCH   6  21
TORSDOF 5
ENDMDL
