MODEL 1
REMARK VINA RESULT:      -1.8      0.000      0.000
REMARK  5 active torsions:
REMARK  status: ('A' for Active; 'I' for Inactive)
REMARK    1  A    between atoms: S_14  and  C_7 
REMARK       I    between atoms: N_10  and  C_13 
REMARK    2  A    between atoms: C_26  and  C_11 
REMARK    3  A    between atoms: C_22  and  N_12 
REMARK    4  A    between atoms: C_13  and  C_17 
REMARK    5  A    between atoms: C_17  and  S_14 
ROOT
ATOM      1  N   UNL d   1      58.693  -2.212  28.871  0.00  0.00    -0.224 N 
ATOM      2  N   UNL d   1      60.094  -2.087  29.172  0.00  0.00    -0.241 N 
ATOM      3  C   UNL d   1      59.460  -2.541  28.903  0.00  0.00     0.343 A 
ATOM      4  C   UNL d   1      59.962  -1.304  29.410  0.00  0.00     0.160 A 
ATOM      5  C   UNL d   1      58.568  -1.432  29.109  0.00  0.00     0.273 A 
ATOM      6  C   UNL d   1      59.202  -0.978  29.379  0.00  0.00     0.115 A 
ATOM      7  C   UNL d   1      59.077  -0.198  29.617  0.00  0.00     0.120 A 
ATOM      8  N   UNL d   1      60.598  -0.843  29.682  0.00  0.00    -0.209 NA
ATOM      9  N   UNL d   1      59.707   0.258  29.886  0.00  0.00    -0.220 NA
ATOM     10  C   UNL d   1      60.473  -0.063  29.920  0.00  0.00     0.165 A 
ATOM     11  O   UNL d   1      59.583  -3.325  28.663  0.00  0.00    -0.245 OA
ATOM     12  O   UNL d   1      57.808  -1.110  29.076  0.00  0.00    -0.266 OA
ATOM     13  C   UNL d   1      58.067  -2.669  28.602  0.00  0.00     0.107 C 
ATOM     14  C   UNL d   1      60.853  -2.413  29.204  0.00  0.00     0.105 C 
ENDROOT
BRANCH   7  15
ATOM     15  S   UNL d   1      58.317   0.124  29.584  0.00  0.00    -0.062 SA
BRANCH  15  16
ATOM     16  C   UNL d   1      58.043   0.604  30.200  0.00  0.00     0.098 C 
BRANCH  16  17
ATOM     17  C   UNL d   1      57.237   0.641  30.370  0.00  0.00     0.272 C 
ATOM     18  N   UNL d   1      56.969   0.639  31.146  0.00  0.00    -0.269 N 
ATOM     19  C   UNL d   1      57.519   0.598  31.767  0.00  0.00     0.102 A 
ATOM     20  C   UNL d   1      56.169   0.676  31.311  0.00  0.00     0.102 A 
ATOM     21  C   UNL d   1      57.245   0.596  32.542  0.00  0.00     0.100 A 
ATOM     22  N   UNL d   1      56.442   0.633  32.710  0.00  0.00    -0.301 N 
ATOM     23  C   UNL d   1      55.900   0.673  32.087  0.00  0.00     0.100 A 
ATOM     24  O   UNL d   1      56.692   0.681  29.750  0.00  0.00    -0.266 OA
BRANCH  22  25
ATOM     25  C   UNL d   1      56.174   0.630  33.486  0.00  0.00     0.064 A 
ATOM     26  C   UNL d   1      56.700   0.682  34.114  0.00  0.00     0.018 A 
ATOM     27  C   UNL d   1      56.432   0.680  34.897  0.00  0.00     0.002 A 
ATOM     28  C   UNL d   1      55.623   0.625  35.053  0.00  0.00     0.000 A 
ATOM     29  C   UNL d   1      55.086   0.573  34.413  0.00  0.00     0.002 A 
ATOM     30  C   UNL d   1      55.365   0.576  33.648  0.00  0.00     0.018 A 
ENDBRANCH  22  25
ENDBRANCH  16  17
ENDBRANCH  15  16
ENDBRANCH   7  15
BRANCH  10  31
ATOM     31  C   UNL d   1      61.105   0.397  30.191  0.00  0.00     0.039 C 
ATOM     32  C   UNL d   1      61.129   0.649  30.976  0.00  0.00     0.003 C 
ENDBRANCH  10  31
TORSDOF 5
ENDMDL
