MODEL 1
REMARK VINA RESULT:      42.2      0.000      0.000
REMARK  2 active torsions:
REMARK  status: ('A' for Active; 'I' for Inactive)
REMARK    1  A    between atoms: C_6  and  N_1 
REMARK    2  A    between atoms: C_7  and  C_6 
ROOT
ATOM      1  N   UNL d   1      60.692  49.575  50.564  0.00  0.00    -0.287 N 
ATOM      2  N   UNL d   1      60.859  49.412  49.232  0.00  0.00    -0.224 NA
ATOM      3  C   UNL d   1      61.262  49.461  49.977  0.00  0.00     0.183 A 
ATOM      4  C   UNL d   1      59.963  49.597  50.216  0.00  0.00     0.083 A 
ATOM      5  C   UNL d   1      60.068  49.494  49.375  0.00  0.00     0.099 A 
ATOM      6  C   UNL d   1      59.206  49.696  50.527  0.00  0.00     0.019 A 
ATOM      7  C   UNL d   1      59.380  49.499  48.899  0.00  0.00     0.021 A 
ATOM      8  C   UNL d   1      58.550  49.695  50.027  0.00  0.00     0.002 A 
ATOM      9  C   UNL d   1      58.652  49.595  49.214  0.00  0.00     0.002 A 
ENDROOT
BRANCH   1  10
ATOM     10  C   UNL d   1      60.201  49.685  51.175  0.00  0.00     0.082 C 
BRANCH  10  11
ATOM     11  C   UNL d   1      60.507  49.652  51.939  0.00  0.00     0.018 A 
ATOM     12  C   UNL d   1      60.003  49.708  52.590  0.00  0.00     0.002 A 
ATOM     13  C   UNL d   1      60.309  49.675  53.359  0.00  0.00     0.000 A 
ATOM     14  C   UNL d   1      61.121  49.585  53.474  0.00  0.00     0.000 A 
ATOM     15  C   UNL d   1      61.627  49.528  52.820  0.00  0.00     0.000 A 
ATOM     16  C   UNL d   1      61.319  49.562  52.054  0.00  0.00     0.002 A 
ENDBRANCH  10  11
ENDBRANCH   1  10
TORSDOF 2
ENDMDL
