MODEL 1
REMARK VINA RESULT:      -5.1      0.000      0.000
REMARK  5 active torsions:
REMARK  status: ('A' for Active; 'I' for Inactive)
REMARK    1  A    between atoms: C_5  and  N_1 
REMARK    2  A    between atoms: C_8  and  C_3 
REMARK    3  A    between atoms: C_7  and  C_4 
REMARK    4  A    between atoms: N_12  and  C_5 
REMARK    5  A    between atoms: N_11  and  C_10 
ROOT
ATOM      1  N   UNL d   1     -47.728  12.615  22.633  0.00  0.00    -0.203 N 
ATOM      2  N   UNL d   1     -46.969  12.314  22.516  0.00  0.00    -0.163 NA
ATOM      3  C   UNL d   1     -46.463  12.900  22.396  0.00  0.00     0.103 A 
ATOM      4  C   UNL d   1     -47.697  13.431  22.584  0.00  0.00     0.087 A 
ATOM      5  C   UNL d   1     -46.898  13.629  22.433  0.00  0.00     0.040 A 
ENDROOT
BRANCH   4   6
ATOM      6  C   UNL d   1     -48.383  13.902  22.679  0.00  0.00     0.018 A 
ATOM      7  C   UNL d   1     -48.529  14.262  23.401  0.00  0.00     0.003 A 
ATOM      8  C   UNL d   1     -49.186  14.718  23.506  0.00  0.00     0.018 A 
ATOM      9  C   UNL d   1     -49.728  14.828  22.876  0.00  0.00     0.064 A 
ATOM     10  C   UNL d   1     -49.581  14.467  22.154  0.00  0.00     0.018 A 
ATOM     11  C   UNL d   1     -48.900  13.997  22.051  0.00  0.00     0.003 A 
BRANCH   9  12
ATOM     12  N   UNL d   1     -50.410  15.314  23.020  0.00  0.00    -0.301 N 
ATOM     13  C   UNL d   1     -50.991  15.383  22.415  0.00  0.00     0.100 C 
ATOM     14  C   UNL d   1     -50.591  15.733  23.671  0.00  0.00     0.100 C 
ENDBRANCH   9  12
ENDBRANCH   4   6
BRANCH   1  15
ATOM     15  C   UNL d   1     -48.428  12.158  22.780  0.00  0.00     0.222 C 
ATOM     16  S   UNL d   1     -48.925  11.947  22.122  0.00  0.00    -0.037 SA
BRANCH  15  17
ATOM     17  N   UNL d   1     -48.614  11.930  23.540  0.00  0.00    -0.214 NA
ATOM     18  C   UNL d   1     -49.078  11.233  23.688  0.00  0.00     0.122 C 
ENDBRANCH  15  17
ENDBRANCH   1  15
BRANCH   3  19
ATOM     19  C   UNL d   1     -45.657  12.795  22.260  0.00  0.00     0.019 A 
ATOM     20  C   UNL d   1     -45.225  12.187  22.646  0.00  0.00     0.002 A 
ATOM     21  C   UNL d   1     -44.419  12.083  22.510  0.00  0.00     0.007 A 
ATOM     22  C   UNL d   1     -44.048  12.589  21.987  0.00  0.00     0.035 A 
ATOM     23  C   UNL d   1     -44.460  13.198  21.595  0.00  0.00     0.007 A 
ATOM     24 BR   UNL d   1     -43.203  12.473  21.850  0.00  0.00    -0.049 Br
ATOM     25  C   UNL d   1     -45.264  13.296  21.736  0.00  0.00     0.002 A 
ENDBRANCH   3  19
TORSDOF 5
ENDMDL
MODEL 2
REMARK VINA RESULT:      -2.7      0.801      1.229
REMARK  5 active torsions:
REMARK  status: ('A' for Active; 'I' for Inactive)
REMARK    1  A    between atoms: C_5  and  N_1 
REMARK    2  A    between atoms: C_8  and  C_3 
REMARK    3  A    between atoms: C_7  and  C_4 
REMARK    4  A    between atoms: N_12  and  C_5 
REMARK    5  A    between atoms: N_11  and  C_10 
ROOT
ATOM      1  N   UNL d   1     -46.829  12.615  22.465  0.00  0.00    -0.203 N 
ATOM      2  N   UNL d   1     -46.044  12.415  22.311  0.00  0.00    -0.163 NA
ATOM      3  C   UNL d   1     -45.643  13.050  22.087  0.00  0.00     0.103 A 
ATOM      4  C   UNL d   1     -46.927  13.416  22.331  0.00  0.00     0.087 A 
ATOM      5  C   UNL d   1     -46.181  13.708  22.090  0.00  0.00     0.040 A 
ENDROOT
BRANCH   4   6
ATOM      6  C   UNL d   1     -47.668  13.790  22.439  0.00  0.00     0.018 A 
ATOM      7  C   UNL d   1     -48.188  13.848  21.808  0.00  0.00     0.003 A 
ATOM      8  C   UNL d   1     -48.905  14.206  21.898  0.00  0.00     0.018 A 
ATOM      9  C   UNL d   1     -49.126  14.524  22.642  0.00  0.00     0.064 A 
ATOM     10  C   UNL d   1     -48.605  14.466  23.274  0.00  0.00     0.018 A 
ATOM     11  C   UNL d   1     -47.866  14.095  23.174  0.00  0.00     0.003 A 
BRANCH   9  12
ATOM     12  N   UNL d   1     -49.889  14.895  22.703  0.00  0.00    -0.301 N 
ATOM     13  C   UNL d   1     -49.984  15.672  22.393  0.00  0.00     0.100 C 
ATOM     14  C   UNL d   1     -50.556  14.607  23.023  0.00  0.00     0.100 C 
ENDBRANCH   9  12
ENDBRANCH   4   6
BRANCH   1  15
ATOM     15  C   UNL d   1     -47.438  12.081  22.720  0.00  0.00     0.222 C 
ATOM     16  S   UNL d   1     -48.022  11.827  22.156  0.00  0.00    -0.037 SA
BRANCH  15  17
ATOM     17  N   UNL d   1     -47.456  11.822  23.493  0.00  0.00    -0.214 NA
ATOM     18  C   UNL d   1     -47.765  11.055  23.691  0.00  0.00     0.122 C 
ENDBRANCH  15  17
ENDBRANCH   1  15
BRANCH   3  19
ATOM     19  C   UNL d   1     -44.843  13.048  21.891  0.00  0.00     0.019 A 
ATOM     20  C   UNL d   1     -44.406  13.762  21.832  0.00  0.00     0.002 A 
ATOM     21  C   UNL d   1     -43.607  13.760  21.636  0.00  0.00     0.007 A 
ATOM     22  C   UNL d   1     -43.246  13.039  21.499  0.00  0.00     0.035 A 
ATOM     23  C   UNL d   1     -43.663  12.321  21.553  0.00  0.00     0.007 A 
ATOM     24 BR   UNL d   1     -42.407  13.045  21.294  0.00  0.00    -0.049 Br
ATOM     25  C   UNL d   1     -44.461  12.331  21.749  0.00  0.00     0.002 A 
ENDBRANCH   3  19
TORSDOF 5
ENDMDL
