MODEL 1
REMARK VINA RESULT:      -8.4      0.000      0.000
REMARK  4 active torsions:
REMARK  status: ('A' for Active; 'I' for Inactive)
REMARK    1  A    between atoms: C_3  and  N_1 
REMARK    2  A    between atoms: C_6  and  C_3 
REMARK    3  A    between atoms: C_9  and  C_3 
REMARK    4  A    between atoms: N_5  and  C_6 
ROOT
ATOM      1  C   UNL d   1      53.233  32.609  53.372  0.00  0.00     0.106 C 
ENDROOT
BRANCH   1   2
ATOM      2  N   UNL d   1      53.743  32.857  53.973  0.00  0.00    -0.228 N 
ATOM      3  N   UNL d   1      53.622  32.984  54.785  0.00  0.00    -0.165 NA
ATOM      4  C   UNL d   1      54.344  33.232  55.102  0.00  0.00     0.103 A 
ATOM      5  C   UNL d   1      54.474  33.422  55.907  0.00  0.00     0.022 C 
ATOM      6  C   UNL d   1      54.895  33.260  54.514  0.00  0.00     0.040 A 
ATOM      7  C   UNL d   1      54.529  33.029  53.811  0.00  0.00     0.085 A 
ATOM      8  C   UNL d   1      54.891  32.975  53.055  0.00  0.00     0.021 C 
ENDBRANCH   1   2
BRANCH   1   9
ATOM      9  C   UNL d   1      53.411  31.929  52.948  0.00  0.00     0.167 C 
BRANCH   9  10
ATOM     10  N   UNL d   1      53.015  31.218  53.088  0.00  0.00    -0.111 N 
ATOM     11  O   UNL d   1      53.054  30.855  53.831  0.00  0.00    -0.532 OA
ATOM     12  O   UNL d   1      52.578  30.873  52.477  0.00  0.00    -0.532 OA
ENDBRANCH   9  10
ENDBRANCH   1   9
BRANCH   1  13
ATOM     13  C   UNL d   1      52.554  33.052  53.211  0.00  0.00     0.019 A 
ATOM     14  C   UNL d   1      52.566  33.591  52.595  0.00  0.00     0.002 A 
ATOM     15  C   UNL d   1      51.895  34.048  52.415  0.00  0.00     0.011 A 
ATOM     16  C   UNL d   1      51.203  33.934  52.890  0.00  0.00     0.058 A 
ATOM     17  C   UNL d   1      51.206  33.402  53.490  0.00  0.00     0.011 A 
ATOM     18 CL   UNL d   1      50.515  34.366  52.746  0.00  0.00    -0.082 Cl
ATOM     19  C   UNL d   1      51.871  32.963  53.655  0.00  0.00     0.002 A 
ENDBRANCH   1  13
TORSDOF 4
ENDMDL
MODEL 2
REMARK VINA RESULT:      -8.4      1.998      3.035
REMARK  4 active torsions:
REMARK  status: ('A' for Active; 'I' for Inactive)
REMARK    1  A    between atoms: C_3  and  N_1 
REMARK    2  A    between atoms: C_6  and  C_3 
REMARK    3  A    between atoms: C_9  and  C_3 
REMARK    4  A    between atoms: N_5  and  C_6 
ROOT
ATOM      1  C   UNL d   1      53.265  31.790  53.502  0.00  0.00     0.106 C 
ENDROOT
BRANCH   1   2
ATOM      2  N   UNL d   1      53.252  30.987  53.697  0.00  0.00    -0.228 N 
ATOM      3  N   UNL d   1      53.184  30.594  54.426  0.00  0.00    -0.165 NA
ATOM      4  C   UNL d   1      53.205  29.783  54.268  0.00  0.00     0.103 A 
ATOM      5  C   UNL d   1      53.153  29.181  54.848  0.00  0.00     0.022 C 
ATOM      6  C   UNL d   1      53.283  29.671  53.474  0.00  0.00     0.040 A 
ATOM      7  C   UNL d   1      53.313  30.413  53.113  0.00  0.00     0.085 A 
ATOM      8  C   UNL d   1      53.392  30.565  52.292  0.00  0.00     0.021 C 
ENDBRANCH   1   2
BRANCH   1   9
ATOM      9  C   UNL d   1      52.770  32.069  52.910  0.00  0.00     0.167 C 
BRANCH   9  10
ATOM     10  N   UNL d   1      52.129  32.562  53.082  0.00  0.00    -0.111 N 
ATOM     11  O   UNL d   1      51.511  32.294  53.564  0.00  0.00    -0.532 OA
ATOM     12  O   UNL d   1      52.112  33.325  52.767  0.00  0.00    -0.532 OA
ENDBRANCH   9  10
ENDBRANCH   1   9
BRANCH   1  13
ATOM     13  C   UNL d   1      53.779  32.295  53.909  0.00  0.00     0.019 A 
ATOM     14  C   UNL d   1      54.441  32.583  53.525  0.00  0.00     0.002 A 
ATOM     15  C   UNL d   1      54.972  33.092  53.913  0.00  0.00     0.011 A 
ATOM     16  C   UNL d   1      54.800  33.299  54.717  0.00  0.00     0.058 A 
ATOM     17  C   UNL d   1      54.146  33.009  55.080  0.00  0.00     0.011 A 
ATOM     18 CL   UNL d   1      55.299  33.802  55.140  0.00  0.00    -0.082 Cl
ATOM     19  C   UNL d   1      53.637  32.512  54.686  0.00  0.00     0.002 A 
ENDBRANCH   1  13
TORSDOF 4
ENDMDL
MODEL 3
REMARK VINA RESULT:      -8.1      1.528      2.118
REMARK  4 active torsions:
REMARK  status: ('A' for Active; 'I' for Inactive)
REMARK    1  A    between atoms: C_3  and  N_1 
REMARK    2  A    between atoms: C_6  and  C_3 
REMARK    3  A    between atoms: C_9  and  C_3 
REMARK    4  A    between atoms: N_5  and  C_6 
ROOT
ATOM      1  C   UNL d   1      53.091  33.480  53.716  0.00  0.00     0.106 C 
ENDROOT
BRANCH   1   2
ATOM      2  N   UNL d   1      53.352  32.699  53.654  0.00  0.00    -0.228 N 
ATOM      3  N   UNL d   1      52.976  31.973  53.808  0.00  0.00    -0.165 NA
ATOM      4  C   UNL d   1      53.523  31.377  53.642  0.00  0.00     0.103 A 
ATOM      5  C   UNL d   1      53.375  30.556  53.721  0.00  0.00     0.022 C 
ATOM      6  C   UNL d   1      54.213  31.712  53.394  0.00  0.00     0.040 A 
ATOM      7  C   UNL d   1      54.115  32.531  53.399  0.00  0.00     0.085 A 
ATOM      8  C   UNL d   1      54.689  33.104  53.183  0.00  0.00     0.021 C 
ENDBRANCH   1   2
BRANCH   1   9
ATOM      9  C   UNL d   1      53.541  34.023  54.136  0.00  0.00     0.167 C 
BRANCH   9  10
ATOM     10  N   UNL d   1      53.303  34.298  54.878  0.00  0.00    -0.111 N 
ATOM     11  O   UNL d   1      53.175  33.768  55.501  0.00  0.00    -0.532 OA
ATOM     12  O   UNL d   1      53.194  35.109  54.991  0.00  0.00    -0.532 OA
ENDBRANCH   9  10
ENDBRANCH   1   9
BRANCH   1  13
ATOM     13  C   UNL d   1      52.380  33.696  53.354  0.00  0.00     0.019 A 
ATOM     14  C   UNL d   1      52.401  34.163  52.682  0.00  0.00     0.002 A 
ATOM     15  C   UNL d   1      51.698  34.393  52.301  0.00  0.00     0.011 A 
ATOM     16  C   UNL d   1      50.966  34.128  52.633  0.00  0.00     0.058 A 
ATOM     17  C   UNL d   1      50.961  33.671  53.293  0.00  0.00     0.011 A 
ATOM     18 CL   UNL d   1      50.245  34.334  52.287  0.00  0.00    -0.082 Cl
ATOM     19  C   UNL d   1      51.656  33.454  53.654  0.00  0.00     0.002 A 
ENDBRANCH   1  13
TORSDOF 4
ENDMDL
MODEL 4
REMARK VINA RESULT:      -7.9      1.521      3.117
REMARK  4 active torsions:
REMARK  status: ('A' for Active; 'I' for Inactive)
REMARK    1  A    between atoms: C_3  and  N_1 
REMARK    2  A    between atoms: C_6  and  C_3 
REMARK    3  A    between atoms: C_9  and  C_3 
REMARK    4  A    between atoms: N_5  and  C_6 
ROOT
ATOM      1  C   UNL d   1      52.735  32.507  53.431  0.00  0.00     0.106 C 
ENDROOT
BRANCH   1   2
ATOM      2  N   UNL d   1      52.276  33.049  53.009  0.00  0.00    -0.228 N 
ATOM      3  N   UNL d   1      52.448  33.531  52.354  0.00  0.00    -0.165 NA
ATOM      4  C   UNL d   1      51.762  33.957  52.179  0.00  0.00     0.103 A 
ATOM      5  C   UNL d   1      51.689  34.512  51.556  0.00  0.00     0.022 C 
ATOM      6  C   UNL d   1      51.183  33.751  52.700  0.00  0.00     0.040 A 
ATOM      7  C   UNL d   1      51.494  33.188  53.218  0.00  0.00     0.085 A 
ATOM      8  C   UNL d   1      51.089  32.817  53.852  0.00  0.00     0.021 C 
ENDBRANCH   1   2
BRANCH   1   9
ATOM      9  C   UNL d   1      52.519  31.715  53.437  0.00  0.00     0.167 C 
BRANCH   9  10
ATOM     10  N   UNL d   1      52.922  31.155  52.981  0.00  0.00    -0.111 N 
ATOM     11  O   UNL d   1      52.944  31.224  52.156  0.00  0.00    -0.532 OA
ATOM     12  O   UNL d   1      53.303  30.527  53.359  0.00  0.00    -0.532 OA
ENDBRANCH   9  10
ENDBRANCH   1   9
BRANCH   1  13
ATOM     13  C   UNL d   1      53.402  32.776  53.839  0.00  0.00     0.019 A 
ATOM     14  C   UNL d   1      53.361  32.874  54.650  0.00  0.00     0.002 A 
ATOM     15  C   UNL d   1      54.019  33.143  55.081  0.00  0.00     0.011 A 
ATOM     16  C   UNL d   1      54.729  33.310  54.650  0.00  0.00     0.058 A 
ATOM     17  C   UNL d   1      54.754  33.209  53.855  0.00  0.00     0.011 A 
ATOM     18 CL   UNL d   1      55.406  33.579  55.038  0.00  0.00    -0.082 Cl
ATOM     19  C   UNL d   1      54.102  32.945  53.447  0.00  0.00     0.002 A 
ENDBRANCH   1  13
TORSDOF 4
ENDMDL
MODEL 5
REMARK VINA RESULT:      -7.6      1.949      2.606
REMARK  4 active torsions:
REMARK  status: ('A' for Active; 'I' for Inactive)
REMARK    1  A    between atoms: C_3  and  N_1 
REMARK    2  A    between atoms: C_6  and  C_3 
REMARK    3  A    between atoms: C_9  and  C_3 
REMARK    4  A    between atoms: N_5  and  C_6 
ROOT
ATOM      1  C   UNL d   1      53.533  32.175  53.611  0.00  0.00     0.106 C 
ENDROOT
BRANCH   1   2
ATOM      2  N   UNL d   1      54.001  32.616  54.130  0.00  0.00    -0.228 N 
ATOM      3  N   UNL d   1      53.916  32.797  54.937  0.00  0.00    -0.165 NA
ATOM      4  C   UNL d   1      54.564  33.263  55.151  0.00  0.00     0.103 A 
ATOM      5  C   UNL d   1      54.700  33.570  55.918  0.00  0.00     0.022 C 
ATOM      6  C   UNL d   1      55.035  33.371  54.506  0.00  0.00     0.040 A 
ATOM      7  C   UNL d   1      54.693  32.973  53.870  0.00  0.00     0.085 A 
ATOM      8  C   UNL d   1      54.993  32.934  53.087  0.00  0.00     0.021 C 
ENDBRANCH   1   2
BRANCH   1   9
ATOM      9  C   UNL d   1      53.146  32.554  52.995  0.00  0.00     0.167 C 
BRANCH   9  10
ATOM     10  N   UNL d   1      52.335  32.710  53.027  0.00  0.00    -0.111 N 
ATOM     11  O   UNL d   1      52.019  33.165  53.642  0.00  0.00    -0.532 OA
ATOM     12  O   UNL d   1      51.843  32.406  52.437  0.00  0.00    -0.532 OA
ENDBRANCH   9  10
ENDBRANCH   1   9
BRANCH   1  13
ATOM     13  C   UNL d   1      53.466  31.359  53.725  0.00  0.00     0.019 A 
ATOM     14  C   UNL d   1      53.722  30.852  53.136  0.00  0.00     0.002 A 
ATOM     15  C   UNL d   1      53.664  30.027  53.228  0.00  0.00     0.011 A 
ATOM     16  C   UNL d   1      53.333  29.735  53.951  0.00  0.00     0.058 A 
ATOM     17  C   UNL d   1      53.087  30.244  54.519  0.00  0.00     0.011 A 
ATOM     18 CL   UNL d   1      53.257  28.924  54.084  0.00  0.00    -0.082 Cl
ATOM     19  C   UNL d   1      53.150  31.048  54.415  0.00  0.00     0.002 A 
ENDBRANCH   1  13
TORSDOF 4
ENDMDL
MODEL 6
REMARK VINA RESULT:      -7.1      2.246      3.312
REMARK  4 active torsions:
REMARK  status: ('A' for Active; 'I' for Inactive)
REMARK    1  A    between atoms: C_3  and  N_1 
REMARK    2  A    between atoms: C_6  and  C_3 
REMARK    3  A    between atoms: C_9  and  C_3 
REMARK    4  A    between atoms: N_5  and  C_6 
ROOT
ATOM      1  C   UNL d   1      53.177  33.684  53.773  0.00  0.00     0.106 C 
ENDROOT
BRANCH   1   2
ATOM      2  N   UNL d   1      52.440  33.892  53.463  0.00  0.00    -0.228 N 
ATOM      3  N   UNL d   1      51.667  33.666  53.669  0.00  0.00    -0.165 NA
ATOM      4  C   UNL d   1      51.154  34.060  53.154  0.00  0.00     0.103 A 
ATOM      5  C   UNL d   1      50.319  33.993  53.166  0.00  0.00     0.022 C 
ATOM      6  C   UNL d   1      51.586  34.513  52.647  0.00  0.00     0.040 A 
ATOM      7  C   UNL d   1      52.384  34.414  52.832  0.00  0.00     0.085 A 
ATOM      8  C   UNL d   1      53.034  34.779  52.447  0.00  0.00     0.021 C 
ENDBRANCH   1   2
BRANCH   1   9
ATOM      9  C   UNL d   1      53.658  34.266  54.094  0.00  0.00     0.167 C 
BRANCH   9  10
ATOM     10  N   UNL d   1      53.752  34.346  54.912  0.00  0.00    -0.111 N 
ATOM     11  O   UNL d   1      53.120  34.599  55.383  0.00  0.00    -0.532 OA
ATOM     12  O   UNL d   1      54.483  34.169  55.252  0.00  0.00    -0.532 OA
ENDBRANCH   9  10
ENDBRANCH   1   9
BRANCH   1  13
ATOM     13  C   UNL d   1      53.413  32.891  53.754  0.00  0.00     0.019 A 
ATOM     14  C   UNL d   1      53.992  32.661  53.223  0.00  0.00     0.002 A 
ATOM     15  C   UNL d   1      54.245  31.869  53.186  0.00  0.00     0.011 A 
ATOM     16  C   UNL d   1      53.883  31.316  53.715  0.00  0.00     0.058 A 
ATOM     17  C   UNL d   1      53.317  31.557  54.229  0.00  0.00     0.011 A 
ATOM     18 CL   UNL d   1      54.105  30.521  53.711  0.00  0.00    -0.082 Cl
ATOM     19  C   UNL d   1      53.080  32.334  54.254  0.00  0.00     0.002 A 
ENDBRANCH   1  13
TORSDOF 4
ENDMDL
