MODEL 1
REMARK VINA RESULT:      28.2      0.000      0.000
REMARK  3 active torsions:
REMARK  status: ('A' for Active; 'I' for Inactive)
REMARK    1  A    between atoms: C_2  and  C_1 
REMARK       I    between atoms: N_3  and  C_2 
REMARK    2  A    between atoms: C_21  and  N_4 
REMARK    3  A    between atoms: C_20  and  C_21 
ROOT
ATOM      1  C   UNL d   1      44.623 -15.389  44.592  0.00  0.00     0.255 C 
ATOM      2  N   UNL d   1      45.097 -16.086  44.538  0.00  0.00    -0.271 N 
ATOM      3  N   UNL d   1      46.012 -17.461  44.438  0.00  0.00    -0.300 N 
ATOM      4  O   UNL d   1      43.894 -15.449  44.817  0.00  0.00    -0.270 OA
ATOM      5  C   UNL d   1      44.782 -16.821  44.725  0.00  0.00     0.102 A 
ATOM      6  C   UNL d   1      45.884 -16.035  44.297  0.00  0.00     0.102 A 
ATOM      7  C   UNL d   1      46.353 -16.724  44.244  0.00  0.00     0.100 A 
ATOM      8  C   UNL d   1      45.219 -17.511  44.682  0.00  0.00     0.100 A 
ENDROOT
BRANCH   1   9
ATOM      9  C   UNL d   1      44.941 -14.674  44.407  0.00  0.00     0.137 A 
ATOM     10  C   UNL d   1      44.515 -14.484  43.736  0.00  0.00     0.033 A 
ATOM     11  C   UNL d   1      44.597 -13.798  43.288  0.00  0.00     0.046 A 
ATOM     12  C   UNL d   1      44.998 -13.117  43.232  0.00  0.00    -0.015 A 
ATOM     13  C   UNL d   1      45.107 -13.261  43.480  0.00  0.00    -0.022 A 
ATOM     14  C   UNL d   1      45.486 -13.084  43.799  0.00  0.00     0.027 A 
ATOM     15  C   UNL d   1      45.340 -13.780  44.179  0.00  0.00    -0.117 A 
ATOM     16  C   UNL d   1      46.064 -12.577  44.099  0.00  0.00     0.006 A 
ATOM     17  C   UNL d   1      45.643 -13.489  44.315  0.00  0.00    -0.006 A 
ATOM     18  C   UNL d   1      45.509 -14.172  44.699  0.00  0.00    -0.007 A 
ENDBRANCH   1   9
BRANCH   3  19
ATOM     19  C   UNL d   1      46.317 -18.099  44.428  0.00  0.00     0.080 C 
BRANCH  19  20
ATOM     20  C   UNL d   1      46.168 -18.609  43.805  0.00  0.00     0.020 A 
ATOM     21  C   UNL d   1      46.166 -18.339  43.022  0.00  0.00     0.028 A 
ATOM     22  C   UNL d   1      46.015 -18.854  42.389  0.00  0.00     0.119 A 
ATOM     23  O   UNL d   1      45.987 -18.709  41.593  0.00  0.00    -0.300 OA
ATOM     24  C   UNL d   1      45.863 -19.659  42.527  0.00  0.00     0.119 A 
ATOM     25  C   UNL d   1      45.810 -19.435  41.185  0.00  0.00     0.304 A 
ATOM     26  O   UNL d   1      45.739 -20.006  41.787  0.00  0.00    -0.300 OA
ATOM     27  C   UNL d   1      45.864 -19.939  43.318  0.00  0.00     0.026 A 
ATOM     28  C   UNL d   1      46.014 -19.422  43.946  0.00  0.00     0.004 A 
ENDBRANCH  19  20
ENDBRANCH   3  19
TORSDOF 3
ENDMDL
