MODEL 1
REMARK VINA RESULT:      28.5      0.000      0.000
REMARK  2 active torsions:
REMARK  status: ('A' for Active; 'I' for Inactive)
REMARK    1  A    between atoms: C_6  and  C_3 
REMARK    2  A    between atoms: C_13  and  C_7 
ROOT
ATOM      1  C   UNL d   1      14.217  12.407  -2.243  0.00  0.00     0.018 A 
ATOM      2  C   UNL d   1      13.638  12.615  -3.768  0.00  0.00     0.000 A 
ATOM      3  C   UNL d   1      13.856  11.779  -2.633  0.00  0.00     0.002 A 
ATOM      4  C   UNL d   1      14.291  13.143  -2.612  0.00  0.00     0.002 A 
ATOM      5  C   UNL d   1      13.564  11.880  -3.398  0.00  0.00     0.000 A 
ATOM      6  C   UNL d   1      14.000  13.243  -3.374  0.00  0.00     0.000 A 
ENDROOT
BRANCH   1   7
ATOM      7  C   UNL d   1      14.509  12.306  -1.477  0.00  0.00     0.090 A 
ATOM      8  N   UNL d   1      15.276  12.080  -1.274  0.00  0.00    -0.219 NA
ATOM      9  C   UNL d   1      15.326  12.048  -0.453  0.00  0.00     0.215 A 
ATOM     10  S   UNL d   1      14.592  12.253  -0.137  0.00  0.00    -0.045 SA
ATOM     11  N   UNL d   1      15.996  11.845  -0.014  0.00  0.00    -0.120 N 
ATOM     12  C   UNL d   1      14.083  12.414  -0.769  0.00  0.00     0.058 A 
ENDBRANCH   1   7
BRANCH   2  13
ATOM     13  C   UNL d   1      13.346  12.719  -4.534  0.00  0.00     0.000 A 
ATOM     14  C   UNL d   1      13.277  12.066  -5.033  0.00  0.00     0.000 A 
ATOM     15  C   UNL d   1      12.990  12.171  -5.787  0.00  0.00     0.000 A 
ATOM     16  C   UNL d   1      12.769  12.920  -6.056  0.00  0.00     0.000 A 
ATOM     17  C   UNL d   1      12.841  13.565  -5.555  0.00  0.00     0.000 A 
ATOM     18  C   UNL d   1      13.130  13.465  -4.792  0.00  0.00     0.000 A 
ENDBRANCH   2  13
TORSDOF 2
ENDMDL
