MODEL 1
REMARK VINA RESULT:      38.1      0.000      0.000
REMARK  4 active torsions:
REMARK  status: ('A' for Active; 'I' for Inactive)
REMARK    1  A    between atoms: C_14  and  N_3 
REMARK    2  A    between atoms: C_9  and  C_5 
REMARK    3  A    between atoms: C_19  and  C_14 
REMARK    4  A    between atoms: C_23  and  C_19 
ROOT
ATOM      1  C   UNL d   1      46.067 -17.850  43.301  0.00  0.00     0.083 A 
ATOM      2  C   UNL d   1      46.217 -17.348  42.667  0.00  0.00     0.161 A 
ATOM      3  N   UNL d   1      46.429 -18.601  42.247  0.00  0.00    -0.272 N 
ATOM      4  C   UNL d   1      46.442 -17.806  42.012  0.00  0.00     0.288 A 
ATOM      5  C   UNL d   1      46.197 -18.627  43.045  0.00  0.00     0.072 A 
ATOM      6  C   UNL d   1      45.831 -17.545  44.030  0.00  0.00     0.201 A 
ATOM      7  O   UNL d   1      46.131 -16.525  42.763  0.00  0.00    -0.302 OA
ATOM      8  C   UNL d   1      45.746 -16.729  44.121  0.00  0.00     0.062 A 
ATOM      9  C   UNL d   1      45.896 -16.223  43.489  0.00  0.00     0.103 A 
ATOM     10  O   UNL d   1      46.641 -17.527  41.268  0.00  0.00    -0.264 OA
ATOM     11  O   UNL d   1      45.680 -18.047  44.664  0.00  0.00    -0.286 OA
ATOM     12  C   UNL d   1      45.509 -16.420  44.853  0.00  0.00     0.005 A 
ATOM     13  C   UNL d   1      45.808 -15.400  43.591  0.00  0.00     0.025 A 
ATOM     14  C   UNL d   1      45.424 -15.609  44.950  0.00  0.00     0.000 A 
ATOM     15  C   UNL d   1      45.573 -15.098  44.317  0.00  0.00     0.002 A 
ENDROOT
BRANCH   5  16
ATOM     16  C   UNL d   1      46.047 -19.133  43.677  0.00  0.00     0.019 A 
ATOM     17  C   UNL d   1      45.301 -19.479  43.772  0.00  0.00     0.031 A 
ATOM     18  C   UNL d   1      45.156 -19.984  44.406  0.00  0.00     0.140 A 
ATOM     19  F   UNL d   1      44.411 -20.324  44.493  0.00  0.00    -0.204 F 
ATOM     20  C   UNL d   1      45.758 -20.151  44.955  0.00  0.00     0.030 A 
ATOM     21  C   UNL d   1      46.504 -19.805  44.860  0.00  0.00     0.002 A 
ATOM     22  C   UNL d   1      46.647 -19.296  44.220  0.00  0.00     0.002 A 
ENDBRANCH   5  16
BRANCH   3  23
ATOM     23  C   UNL d   1      46.614 -19.250  41.776  0.00  0.00     0.086 C 
BRANCH  23  24
ATOM     24  C   UNL d   1      46.642 -19.166  40.958  0.00  0.00     0.065 C 
BRANCH  24  25
ATOM     25  C   UNL d   1      46.501 -19.816  40.472  0.00  0.00     0.236 C 
ATOM     26  O   UNL d   1      45.751 -19.957  40.187  0.00  0.00    -0.283 OA
ENDBRANCH  24  25
ENDBRANCH  23  24
ENDBRANCH   3  23
TORSDOF 4
ENDMDL
