MODEL 1
REMARK VINA RESULT:      65.9      0.000      0.000
REMARK  8 active torsions:
REMARK  status: ('A' for Active; 'I' for Inactive)
REMARK    1  A    between atoms: S_7  and  C_3 
REMARK    2  A    between atoms: C_8  and  C_4 
REMARK    3  A    between atoms: C_14  and  S_7 
REMARK    4  A    between atoms: C_17  and  C_8 
REMARK    5  A    between atoms: C_9  and  C_14 
REMARK       I    between atoms: N_12  and  C_9 
REMARK    6  A    between atoms: C_15  and  N_12 
REMARK    7  A    between atoms: O_22  and  C_16 
REMARK    8  A    between atoms: C_23  and  O_22 
ROOT
ATOM      1  N   UNL d   1     -54.802-101.106 -41.461  0.00  0.00    -0.149 N 
ATOM      2  C   UNL d   1     -54.814-101.832 -41.107  0.00  0.00     0.303 A 
ATOM      3  C   UNL d   1     -54.799-100.417 -41.008  0.00  0.00     0.220 A 
ATOM      4  C   UNL d   1     -54.821-101.874 -40.289  0.00  0.00     0.161 A 
ATOM      5  N   UNL d   1     -54.818-101.207 -39.824  0.00  0.00    -0.141 NA
ATOM      6  N   UNL d   1     -54.807-100.481 -40.178  0.00  0.00    -0.121 NA
ATOM      7  O   UNL d   1     -54.817-102.525 -41.567  0.00  0.00    -0.263 OA
ATOM      8  N   UNL d   1     -54.794-101.028 -42.298  0.00  0.00    -0.037 N 
ENDROOT
BRANCH   3   9
ATOM      9  S   UNL d   1     -54.788 -99.679 -41.359  0.00  0.00    -0.041 SA
BRANCH   9  10
ATOM     10  C   UNL d   1     -54.720 -99.616 -42.185  0.00  0.00     0.101 C 
BRANCH  10  11
ATOM     11  C   UNL d   1     -55.367 -99.370 -42.620  0.00  0.00     0.286 C 
ATOM     12  N   UNL d   1     -55.521 -99.718 -43.351  0.00  0.00    -0.208 NA
ATOM     13  O   UNL d   1     -55.885 -98.780 -42.364  0.00  0.00    -0.265 OA
BRANCH  12  14
ATOM     14  C   UNL d   1     -56.162 -99.484 -43.798  0.00  0.00     0.085 A 
ATOM     15  C   UNL d   1     -56.148 -99.507 -44.630  0.00  0.00     0.021 A 
ATOM     16  C   UNL d   1     -56.806 -99.267 -45.068  0.00  0.00     0.026 A 
ATOM     17  C   UNL d   1     -57.484 -99.000 -44.706  0.00  0.00     0.100 A 
ATOM     18  C   UNL d   1     -57.499 -98.977 -43.874  0.00  0.00     0.026 A 
ATOM     19  C   UNL d   1     -56.869 -99.207 -43.436  0.00  0.00     0.021 A 
BRANCH  17  20
ATOM     20  O   UNL d   1     -58.113 -98.770 -45.144  0.00  0.00    -0.305 OA
BRANCH  20  21
ATOM     21  C   UNL d   1     -58.889 -98.858 -44.873  0.00  0.00     0.123 C 
ATOM     22  C   UNL d   1     -59.479 -99.195 -45.341  0.00  0.00     0.029 C 
ENDBRANCH  20  21
ENDBRANCH  17  20
ENDBRANCH  12  14
ENDBRANCH  10  11
ENDBRANCH   9  10
ENDBRANCH   3   9
BRANCH   4  23
ATOM     23  C   UNL d   1     -54.833-102.631 -39.920  0.00  0.00     0.026 C 
BRANCH  23  24
ATOM     24  C   UNL d   1     -55.167-102.707 -39.182  0.00  0.00     0.002 A 
ATOM     25  C   UNL d   1     -54.711-102.801 -38.508  0.00  0.00     0.000 A 
ATOM     26  C   UNL d   1     -55.046-102.876 -37.779  0.00  0.00     0.000 A 
ATOM     27  C   UNL d   1     -55.883-102.857 -37.704  0.00  0.00     0.000 A 
ATOM     28  C   UNL d   1     -56.356-102.762 -38.378  0.00  0.00     0.000 A 
ATOM     29  C   UNL d   1     -56.004-102.688 -39.108  0.00  0.00     0.000 A 
ENDBRANCH  23  24
ENDBRANCH   4  23
TORSDOF 8
ENDMDL
