MODEL 1
REMARK VINA RESULT:      80.6      0.000      0.000
REMARK  2 active torsions:
REMARK  status: ('A' for Active; 'I' for Inactive)
REMARK    1  A    between atoms: N_10  and  C_5 
REMARK    2  A    between atoms: C_22  and  N_12 
ROOT
ATOM      1  N   UNL d   1     -54.839-101.396 -41.785  0.00  0.00    -0.175 N 
ATOM      2  C   UNL d   1     -54.798-100.568 -41.832  0.00  0.00     0.167 A 
ATOM      3  N   UNL d   1     -54.859-101.781 -41.044  0.00  0.00    -0.143 NA
ATOM      4  C   UNL d   1     -54.861-101.862 -42.473  0.00  0.00     0.283 A 
ATOM      5  C   UNL d   1     -54.837-101.315 -40.357  0.00  0.00     0.168 A 
ATOM      6  N   UNL d   1     -54.779-100.211 -42.566  0.00  0.00    -0.227 NA
ATOM      7  C   UNL d   1     -54.840-101.477 -43.208  0.00  0.00     0.076 A 
ATOM      8  C   UNL d   1     -54.777-100.130 -41.137  0.00  0.00     0.039 A 
ATOM      9  C   UNL d   1     -54.796-100.487 -40.404  0.00  0.00     0.039 A 
ATOM     10  C   UNL d   1     -54.799-100.648 -43.254  0.00  0.00     0.088 A 
ATOM     11  O   UNL d   1     -54.900-102.667 -42.427  0.00  0.00    -0.265 OA
ATOM     12  C   UNL d   1     -54.862-101.943 -43.894  0.00  0.00     0.006 A 
ATOM     13  C   UNL d   1     -54.736 -99.301 -41.184  0.00  0.00     0.003 A 
ATOM     14  C   UNL d   1     -54.776-100.050 -39.716  0.00  0.00     0.003 A 
ATOM     15  C   UNL d   1     -54.781-100.291 -43.988  0.00  0.00     0.019 A 
ATOM     16  C   UNL d   1     -54.842-101.557 -44.629  0.00  0.00     0.000 A 
ATOM     17  C   UNL d   1     -54.716 -98.871 -40.495  0.00  0.00     0.000 A 
ATOM     18  C   UNL d   1     -54.735 -99.221 -39.762  0.00  0.00     0.000 A 
ATOM     19  C   UNL d   1     -54.801-100.728 -44.676  0.00  0.00     0.002 A 
ENDROOT
BRANCH   5  20
ATOM     20  N   UNL d   1     -54.857-101.701 -39.622  0.00  0.00    -0.285 N 
ATOM     21  C   UNL d   1     -54.984-102.497 -39.574  0.00  0.00     0.101 A 
ATOM     22  C   UNL d   1     -55.001-102.860 -38.841  0.00  0.00     0.100 A 
ATOM     23  N   UNL d   1     -54.891-102.426 -38.155  0.00  0.00    -0.300 N 
ATOM     24  C   UNL d   1     -54.764-101.630 -38.203  0.00  0.00     0.100 A 
ATOM     25  C   UNL d   1     -54.743-101.245 -38.938  0.00  0.00     0.101 A 
BRANCH  23  26
ATOM     26  C   UNL d   1     -54.907-102.789 -37.420  0.00  0.00     0.080 C 
ATOM     27  C   UNL d   1     -54.751-102.344 -36.743  0.00  0.00     0.021 C 
ENDBRANCH  23  26
ENDBRANCH   5  20
TORSDOF 2
ENDMDL
MODEL 2
REMARK VINA RESULT:      82.1      4.196      6.784
REMARK  2 active torsions:
REMARK  status: ('A' for Active; 'I' for Inactive)
REMARK    1  A    between atoms: N_10  and  C_5 
REMARK    2  A    between atoms: C_22  and  N_12 
ROOT
ATOM      1  N   UNL d   1     -57.015 -98.850 -44.279  0.00  0.00    -0.175 N 
ATOM      2  C   UNL d   1     -57.504 -98.823 -43.607  0.00  0.00     0.167 A 
ATOM      3  N   UNL d   1     -57.345 -98.862 -45.046  0.00  0.00    -0.143 NA
ATOM      4  C   UNL d   1     -56.188 -98.866 -44.204  0.00  0.00     0.283 A 
ATOM      5  C   UNL d   1     -58.171 -98.846 -45.120  0.00  0.00     0.168 A 
ATOM      6  N   UNL d   1     -57.162 -98.813 -42.866  0.00  0.00    -0.227 NA
ATOM      7  C   UNL d   1     -55.864 -98.854 -43.440  0.00  0.00     0.076 A 
ATOM      8  C   UNL d   1     -58.319 -98.809 -43.708  0.00  0.00     0.039 A 
ATOM      9  C   UNL d   1     -58.660 -98.819 -44.449  0.00  0.00     0.039 A 
ATOM     10  C   UNL d   1     -56.352 -98.827 -42.768  0.00  0.00     0.088 A 
ATOM     11  O   UNL d   1     -55.713 -98.891 -44.856  0.00  0.00    -0.265 OA
ATOM     12  C   UNL d   1     -55.037 -98.870 -43.366  0.00  0.00     0.006 A 
ATOM     13  C   UNL d   1     -58.808 -98.782 -43.037  0.00  0.00     0.003 A 
ATOM     14  C   UNL d   1     -59.470 -98.805 -44.546  0.00  0.00     0.003 A 
ATOM     15  C   UNL d   1     -56.011 -98.817 -42.028  0.00  0.00     0.019 A 
ATOM     16  C   UNL d   1     -54.712 -98.858 -42.602  0.00  0.00     0.000 A 
ATOM     17  C   UNL d   1     -59.613 -98.768 -43.140  0.00  0.00     0.000 A 
ATOM     18  C   UNL d   1     -59.959 -98.778 -43.875  0.00  0.00     0.000 A 
ATOM     19  C   UNL d   1     -55.201 -98.831 -41.930  0.00  0.00     0.002 A 
ENDROOT
BRANCH   5  20
ATOM     20  N   UNL d   1     -58.496 -98.858 -45.885  0.00  0.00    -0.285 N 
ATOM     21  C   UNL d   1     -59.291 -98.942 -45.997  0.00  0.00     0.101 A 
ATOM     22  C   UNL d   1     -59.592 -98.951 -46.758  0.00  0.00     0.100 A 
ATOM     23  N   UNL d   1     -59.098 -98.876 -47.406  0.00  0.00    -0.300 N 
ATOM     24  C   UNL d   1     -58.304 -98.792 -47.294  0.00  0.00     0.100 A 
ATOM     25  C   UNL d   1     -57.979 -98.780 -46.530  0.00  0.00     0.101 A 
BRANCH  23  26
ATOM     26  C   UNL d   1     -59.400 -98.886 -48.168  0.00  0.00     0.080 C 
ATOM     27  C   UNL d   1     -59.961 -99.454 -48.377  0.00  0.00     0.021 C 
ENDBRANCH  23  26
ENDBRANCH   5  20
TORSDOF 2
ENDMDL
