MODEL 1
REMARK VINA RESULT:      -8.2      0.000      0.000
REMARK  4 active torsions:
REMARK  status: ('A' for Active; 'I' for Inactive)
REMARK    1  A    between atoms: C_5  and  C_3 
REMARK    2  A    between atoms: S_6  and  C_4 
REMARK    3  A    between atoms: C_10  and  S_6 
REMARK    4  A    between atoms: C_12  and  C_10 
ROOT
ATOM      1  N   UNL d   1      52.109  33.344  53.783  0.00  0.00    -0.148 NA
ATOM      2  N   UNL d   1      51.422  33.476  53.347  0.00  0.00    -0.141 NA
ATOM      3  C   UNL d   1      52.745  33.873  53.727  0.00  0.00     0.104 A 
ATOM      4  C   UNL d   1      51.359  34.127  52.855  0.00  0.00     0.132 A 
ATOM      5  C   UNL d   1      52.684  34.532  53.231  0.00  0.00     0.023 A 
ATOM      6  C   UNL d   1      51.997  34.660  52.797  0.00  0.00     0.029 A 
ENDROOT
BRANCH   4   7
ATOM      7  S   UNL d   1      50.671  34.259  52.418  0.00  0.00    -0.066 SA
BRANCH   7   8
ATOM      8  C   UNL d   1      49.992  34.537  52.786  0.00  0.00     0.037 C 
BRANCH   8   9
ATOM      9  C   UNL d   1      49.342  34.761  52.327  0.00  0.00     0.006 A 
ATOM     10  C   UNL d   1      48.780  35.276  52.638  0.00  0.00     0.001 A 
ATOM     11  C   UNL d   1      48.134  35.502  52.190  0.00  0.00     0.000 A 
ATOM     12  C   UNL d   1      48.051  35.205  51.417  0.00  0.00     0.000 A 
ATOM     13  C   UNL d   1      48.613  34.693  51.116  0.00  0.00     0.000 A 
ATOM     14  C   UNL d   1      49.262  34.472  51.578  0.00  0.00     0.001 A 
ENDBRANCH   8   9
ENDBRANCH   7   8
ENDBRANCH   4   7
BRANCH   3  15
ATOM     15  C   UNL d   1      53.432  33.742  54.163  0.00  0.00     0.039 A 
ATOM     16  C   UNL d   1      53.582  34.192  54.825  0.00  0.00     0.101 A 
ATOM     17  N   UNL d   1      54.263  34.065  55.261  0.00  0.00    -0.242 NA
ATOM     18  C   UNL d   1      54.801  33.475  55.026  0.00  0.00     0.099 A 
ATOM     19  C   UNL d   1      54.646  33.025  54.361  0.00  0.00     0.021 A 
ATOM     20  C   UNL d   1      53.960  33.149  53.917  0.00  0.00     0.005 A 
ENDBRANCH   3  15
TORSDOF 4
ENDMDL
MODEL 2
REMARK VINA RESULT:      -8.1      1.159      5.085
REMARK  4 active torsions:
REMARK  status: ('A' for Active; 'I' for Inactive)
REMARK    1  A    between atoms: C_5  and  C_3 
REMARK    2  A    between atoms: S_6  and  C_4 
REMARK    3  A    between atoms: C_10  and  S_6 
REMARK    4  A    between atoms: C_12  and  C_10 
ROOT
ATOM      1  N   UNL d   1      50.237  33.861  53.045  0.00  0.00    -0.148 NA
ATOM      2  N   UNL d   1      50.937  33.603  53.397  0.00  0.00    -0.141 NA
ATOM      3  C   UNL d   1      50.261  34.291  52.337  0.00  0.00     0.104 A 
ATOM      4  C   UNL d   1      51.662  33.768  53.053  0.00  0.00     0.132 A 
ATOM      5  C   UNL d   1      50.992  34.459  51.987  0.00  0.00     0.023 A 
ATOM      6  C   UNL d   1      51.688  34.201  52.341  0.00  0.00     0.029 A 
ENDROOT
BRANCH   4   7
ATOM      7  S   UNL d   1      52.362  33.511  53.405  0.00  0.00    -0.066 SA
BRANCH   7   8
ATOM      8  C   UNL d   1      52.557  33.750  54.165  0.00  0.00     0.037 C 
BRANCH   8   9
ATOM      9  C   UNL d   1      53.309  33.582  54.466  0.00  0.00     0.006 A 
ATOM     10  C   UNL d   1      53.570  32.802  54.503  0.00  0.00     0.001 A 
ATOM     11  C   UNL d   1      54.312  32.628  54.799  0.00  0.00     0.000 A 
ATOM     12  C   UNL d   1      54.801  33.248  55.062  0.00  0.00     0.000 A 
ATOM     13  C   UNL d   1      54.535  34.020  55.021  0.00  0.00     0.000 A 
ATOM     14  C   UNL d   1      53.783  34.184  54.721  0.00  0.00     0.001 A 
ENDBRANCH   8   9
ENDBRANCH   7   8
ENDBRANCH   4   7
BRANCH   3  15
ATOM     15  C   UNL d   1      49.561  34.549  51.985  0.00  0.00     0.039 A 
ATOM     16  C   UNL d   1      49.058  35.037  52.399  0.00  0.00     0.101 A 
ATOM     17  N   UNL d   1      48.362  35.295  52.054  0.00  0.00    -0.242 NA
ATOM     18  C   UNL d   1      48.172  35.057  51.279  0.00  0.00     0.099 A 
ATOM     19  C   UNL d   1      48.681  34.567  50.867  0.00  0.00     0.021 A 
ATOM     20  C   UNL d   1      49.384  34.304  51.211  0.00  0.00     0.005 A 
ENDBRANCH   3  15
TORSDOF 4
ENDMDL
MODEL 3
REMARK VINA RESULT:      -5.4     10.217     11.067
REMARK  4 active torsions:
REMARK  status: ('A' for Active; 'I' for Inactive)
REMARK    1  A    between atoms: C_5  and  C_3 
REMARK    2  A    between atoms: S_6  and  C_4 
REMARK    3  A    between atoms: C_10  and  S_6 
REMARK    4  A    between atoms: C_12  and  C_10 
ROOT
ATOM      1  N   UNL d   1      45.464  26.305  56.340  0.00  0.00    -0.148 NA
ATOM      2  N   UNL d   1      45.569  27.034  56.711  0.00  0.00    -0.141 NA
ATOM      3  C   UNL d   1      44.836  25.812  56.564  0.00  0.00     0.104 A 
ATOM      4  C   UNL d   1      45.058  27.279  57.302  0.00  0.00     0.132 A 
ATOM      5  C   UNL d   1      44.318  26.056  57.160  0.00  0.00     0.023 A 
ATOM      6  C   UNL d   1      44.426  26.784  57.529  0.00  0.00     0.029 A 
ENDROOT
BRANCH   4   7
ATOM      7  S   UNL d   1      45.164  28.008  57.674  0.00  0.00    -0.066 SA
BRANCH   7   8
ATOM      8  C   UNL d   1      44.688  28.647  57.476  0.00  0.00     0.037 C 
BRANCH   8   9
ATOM      9  C   UNL d   1      44.840  29.388  57.812  0.00  0.00     0.006 A 
ATOM     10  C   UNL d   1      44.682  30.071  57.382  0.00  0.00     0.001 A 
ATOM     11  C   UNL d   1      44.830  30.807  57.707  0.00  0.00     0.000 A 
ATOM     12  C   UNL d   1      45.141  30.857  58.477  0.00  0.00     0.000 A 
ATOM     13  C   UNL d   1      45.296  30.173  58.897  0.00  0.00     0.000 A 
ATOM     14  C   UNL d   1      45.143  29.435  58.559  0.00  0.00     0.001 A 
ENDBRANCH   8   9
ENDBRANCH   7   8
ENDBRANCH   4   7
BRANCH   3  15
ATOM     15  C   UNL d   1      44.731  25.083  56.192  0.00  0.00     0.039 A 
ATOM     16  C   UNL d   1      44.742  24.400  56.635  0.00  0.00     0.101 A 
ATOM     17  N   UNL d   1      44.637  23.674  56.271  0.00  0.00    -0.242 NA
ATOM     18  C   UNL d   1      44.521  23.638  55.447  0.00  0.00     0.099 A 
ATOM     19  C   UNL d   1      44.511  24.327  55.007  0.00  0.00     0.021 A 
ATOM     20  C   UNL d   1      44.615  25.061  55.370  0.00  0.00     0.005 A 
ENDBRANCH   3  15
TORSDOF 4
ENDMDL
MODEL 4
REMARK VINA RESULT:      -5.4     10.249     11.001
REMARK  4 active torsions:
REMARK  status: ('A' for Active; 'I' for Inactive)
REMARK    1  A    between atoms: C_5  and  C_3 
REMARK    2  A    between atoms: S_6  and  C_4 
REMARK    3  A    between atoms: C_10  and  S_6 
REMARK    4  A    between atoms: C_12  and  C_10 
ROOT
ATOM      1  N   UNL d   1      45.586  28.056  58.197  0.00  0.00    -0.148 NA
ATOM      2  N   UNL d   1      45.608  27.373  57.735  0.00  0.00    -0.141 NA
ATOM      3  C   UNL d   1      45.004  28.631  58.060  0.00  0.00     0.104 A 
ATOM      4  C   UNL d   1      45.059  27.254  57.139  0.00  0.00     0.132 A 
ATOM      5  C   UNL d   1      44.449  28.514  57.459  0.00  0.00     0.023 A 
ATOM      6  C   UNL d   1      44.474  27.831  57.000  0.00  0.00     0.029 A 
ENDROOT
BRANCH   4   7
ATOM      7  S   UNL d   1      45.082  26.571  56.677  0.00  0.00    -0.066 SA
BRANCH   7   8
ATOM      8  C   UNL d   1      44.486  26.009  56.738  0.00  0.00     0.037 C 
BRANCH   8   9
ATOM      9  C   UNL d   1      44.563  25.288  56.339  0.00  0.00     0.006 A 
ATOM     10  C   UNL d   1      44.645  24.591  56.768  0.00  0.00     0.001 A 
ATOM     11  C   UNL d   1      44.721  23.874  56.380  0.00  0.00     0.000 A 
ATOM     12  C   UNL d   1      44.715  23.859  55.548  0.00  0.00     0.000 A 
ATOM     13  C   UNL d   1      44.634  24.557  55.130  0.00  0.00     0.000 A 
ATOM     14  C   UNL d   1      44.557  25.274  55.532  0.00  0.00     0.001 A 
ENDBRANCH   8   9
ENDBRANCH   7   8
ENDBRANCH   4   7
BRANCH   3  15
ATOM     15  C   UNL d   1      44.982  29.314  58.522  0.00  0.00     0.039 A 
ATOM     16  C   UNL d   1      44.799  29.260  59.313  0.00  0.00     0.101 A 
ATOM     17  N   UNL d   1      44.776  29.935  59.775  0.00  0.00    -0.242 NA
ATOM     18  C   UNL d   1      44.940  30.676  59.433  0.00  0.00     0.099 A 
ATOM     19  C   UNL d   1      45.123  30.725  58.637  0.00  0.00     0.021 A 
ATOM     20  C   UNL d   1      45.147  30.047  58.167  0.00  0.00     0.005 A 
ENDBRANCH   3  15
TORSDOF 4
ENDMDL
