MODEL 1
REMARK VINA RESULT:      -3.2      0.000      0.000
REMARK  5 active torsions:
REMARK  status: ('A' for Active; 'I' for Inactive)
REMARK    1  A    between atoms: N_19  and  C_6 
REMARK    2  A    between atoms: N_15  and  C_21 
REMARK    3  A    between atoms: C_25  and  N_19 
REMARK    4  A    between atoms: C_21  and  C_22 
REMARK    5  A    between atoms: C_22  and  C_25 
ROOT
ATOM      1  N   UNL d   1      33.176  21.241 -21.684  0.00  0.00    -0.183 N 
ATOM      2  C   UNL d   1      33.154  22.064 -21.644  0.00  0.00     0.169 A 
ATOM      3  C   UNL d   1      33.112  22.444 -20.926  0.00  0.00     0.073 A 
ATOM      4  C   UNL d   1      33.093  21.995 -20.248  0.00  0.00     0.185 A 
ATOM      5  N   UNL d   1      33.116  21.172 -20.288  0.00  0.00    -0.142 NA
ATOM      6  C   UNL d   1      33.218  20.879 -22.410  0.00  0.00     0.218 A 
ATOM      7  N   UNL d   1      33.173  22.505 -22.332  0.00  0.00    -0.226 NA
ATOM      8  C   UNL d   1      33.089  23.259 -20.887  0.00  0.00     0.007 A 
ATOM      9  N   UNL d   1      33.051  22.365 -19.513  0.00  0.00    -0.225 NA
ATOM     10  C   UNL d   1      33.237  21.311 -23.094  0.00  0.00     0.071 A 
ATOM     11  C   UNL d   1      33.048  23.639 -20.169  0.00  0.00     0.019 A 
ATOM     12  C   UNL d   1      33.214  22.134 -23.054  0.00  0.00     0.087 A 
ATOM     13  C   UNL d   1      33.028  23.189 -19.473  0.00  0.00     0.083 A 
ATOM     14  C   UNL d   1      33.109  23.700 -21.578  0.00  0.00     0.000 C 
ATOM     15  C   UNL d   1      33.235  22.589 -23.770  0.00  0.00     0.021 C 
ATOM     16  C   UNL d   1      32.987  23.560 -18.755  0.00  0.00     0.021 C 
ENDROOT
BRANCH   6  17
ATOM     17  N   UNL d   1      33.241  20.028 -22.443  0.00  0.00    -0.380 NA
BRANCH  17  18
ATOM     18  C   UNL d   1      33.195  19.184 -22.472  0.00  0.00     0.164 C 
BRANCH  18  19
ATOM     19  C   UNL d   1      32.805  18.808 -23.114  0.00  0.00     0.054 C 
BRANCH  19  20
ATOM     20  C   UNL d   1      32.735  17.975 -23.130  0.00  0.00     0.084 C 
BRANCH  20  21
ATOM     21  N   UNL d   1      32.223  17.600 -23.689  0.00  0.00    -0.285 N 
ATOM     22  C   UNL d   1      32.007  17.894 -24.444  0.00  0.00     0.183 A 
ATOM     23  N   UNL d   1      31.482  17.327 -24.806  0.00  0.00    -0.222 NA
ATOM     24  C   UNL d   1      31.377  16.683 -24.268  0.00  0.00     0.120 A 
ATOM     25  C   UNL d   1      31.838  16.849 -23.569  0.00  0.00     0.102 A 
ENDBRANCH  20  21
ENDBRANCH  19  20
ENDBRANCH  18  19
ENDBRANCH  17  18
ENDBRANCH   6  17
TORSDOF 5
ENDMDL
MODEL 2
REMARK VINA RESULT:      -2.9      0.907      1.255
REMARK  5 active torsions:
REMARK  status: ('A' for Active; 'I' for Inactive)
REMARK    1  A    between atoms: N_19  and  C_6 
REMARK    2  A    between atoms: N_15  and  C_21 
REMARK    3  A    between atoms: C_25  and  N_19 
REMARK    4  A    between atoms: C_21  and  C_22 
REMARK    5  A    between atoms: C_22  and  C_25 
ROOT
ATOM      1  N   UNL d   1      33.229  20.211 -22.358  0.00  0.00    -0.183 N 
ATOM      2  C   UNL d   1      33.233  21.035 -22.316  0.00  0.00     0.169 A 
ATOM      3  C   UNL d   1      33.233  21.414 -21.597  0.00  0.00     0.073 A 
ATOM      4  C   UNL d   1      33.229  20.964 -20.919  0.00  0.00     0.185 A 
ATOM      5  N   UNL d   1      33.225  20.140 -20.961  0.00  0.00    -0.142 NA
ATOM      6  C   UNL d   1      33.229  19.851 -23.086  0.00  0.00     0.218 A 
ATOM      7  N   UNL d   1      33.236  21.477 -23.003  0.00  0.00    -0.226 NA
ATOM      8  C   UNL d   1      33.237  22.229 -21.555  0.00  0.00     0.007 A 
ATOM      9  N   UNL d   1      33.229  21.333 -20.182  0.00  0.00    -0.225 NA
ATOM     10  C   UNL d   1      33.232  20.283 -23.769  0.00  0.00     0.071 A 
ATOM     11  C   UNL d   1      33.237  22.608 -20.835  0.00  0.00     0.019 A 
ATOM     12  C   UNL d   1      33.236  21.107 -23.727  0.00  0.00     0.087 A 
ATOM     13  C   UNL d   1      33.233  22.157 -20.140  0.00  0.00     0.083 A 
ATOM     14  C   UNL d   1      33.240  22.671 -22.246  0.00  0.00     0.000 C 
ATOM     15  C   UNL d   1      33.240  21.563 -24.443  0.00  0.00     0.021 C 
ATOM     16  C   UNL d   1      33.233  22.527 -19.420  0.00  0.00     0.021 C 
ENDROOT
BRANCH   6  17
ATOM     17  N   UNL d   1      33.225  19.000 -23.120  0.00  0.00    -0.380 NA
BRANCH  17  18
ATOM     18  C   UNL d   1      33.192  18.160 -23.217  0.00  0.00     0.164 C 
BRANCH  18  19
ATOM     19  C   UNL d   1      32.469  17.791 -23.433  0.00  0.00     0.054 C 
BRANCH  19  20
ATOM     20  C   UNL d   1      32.426  16.957 -23.489  0.00  0.00     0.084 C 
BRANCH  20  21
ATOM     21  N   UNL d   1      31.686  16.578 -23.643  0.00  0.00    -0.285 N 
ATOM     22  C   UNL d   1      31.036  16.902 -24.061  0.00  0.00     0.183 A 
ATOM     23  N   UNL d   1      30.415  16.317 -24.077  0.00  0.00    -0.222 NA
ATOM     24  C   UNL d   1      30.689  15.630 -23.665  0.00  0.00     0.120 A 
ATOM     25  C   UNL d   1      31.483  15.789 -23.392  0.00  0.00     0.102 A 
ENDBRANCH  20  21
ENDBRANCH  19  20
ENDBRANCH  18  19
ENDBRANCH  17  18
ENDBRANCH   6  17
TORSDOF 5
ENDMDL
MODEL 3
REMARK VINA RESULT:      -2.7      1.316      6.191
REMARK  5 active torsions:
REMARK  status: ('A' for Active; 'I' for Inactive)
REMARK    1  A    between atoms: N_19  and  C_6 
REMARK    2  A    between atoms: N_15  and  C_21 
REMARK    3  A    between atoms: C_25  and  N_19 
REMARK    4  A    between atoms: C_21  and  C_22 
REMARK    5  A    between atoms: C_22  and  C_25 
ROOT
ATOM      1  N   UNL d   1      31.890  17.698 -23.706  0.00  0.00    -0.183 N 
ATOM      2  C   UNL d   1      31.565  16.948 -23.814  0.00  0.00     0.169 A 
ATOM      3  C   UNL d   1      30.804  16.860 -24.085  0.00  0.00     0.073 A 
ATOM      4  C   UNL d   1      30.368  17.527 -24.248  0.00  0.00     0.185 A 
ATOM      5  N   UNL d   1      30.693  18.278 -24.140  0.00  0.00    -0.142 NA
ATOM      6  C   UNL d   1      32.652  17.766 -23.434  0.00  0.00     0.218 A 
ATOM      7  N   UNL d   1      32.012  16.284 -23.647  0.00  0.00    -0.226 NA
ATOM      8  C   UNL d   1      30.483  16.117 -24.192  0.00  0.00     0.007 A 
ATOM      9  N   UNL d   1      29.595  17.455 -24.524  0.00  0.00    -0.225 NA
ATOM     10  C   UNL d   1      33.098  17.113 -23.267  0.00  0.00     0.071 A 
ATOM     11  C   UNL d   1      29.721  16.030 -24.464  0.00  0.00     0.019 A 
ATOM     12  C   UNL d   1      32.774  16.362 -23.375  0.00  0.00     0.087 A 
ATOM     13  C   UNL d   1      29.271  16.704 -24.632  0.00  0.00     0.083 A 
ATOM     14  C   UNL d   1      30.932  15.452 -24.024  0.00  0.00     0.000 C 
ATOM     15  C   UNL d   1      33.240  15.675 -23.201  0.00  0.00     0.021 C 
ATOM     16  C   UNL d   1      28.512  16.625 -24.902  0.00  0.00     0.021 C 
ENDROOT
BRANCH   6  17
ATOM     17  N   UNL d   1      32.980  18.545 -23.325  0.00  0.00    -0.380 NA
BRANCH  17  18
ATOM     18  C   UNL d   1      33.240  19.340 -23.204  0.00  0.00     0.164 C 
BRANCH  18  19
ATOM     19  C   UNL d   1      33.025  19.749 -22.502  0.00  0.00     0.054 C 
BRANCH  19  20
ATOM     20  C   UNL d   1      33.231  20.555 -22.409  0.00  0.00     0.084 C 
BRANCH  20  21
ATOM     21  N   UNL d   1      32.847  21.028 -21.822  0.00  0.00    -0.285 N 
ATOM     22  C   UNL d   1      32.262  20.772 -21.279  0.00  0.00     0.183 A 
ATOM     23  N   UNL d   1      32.040  21.442 -20.798  0.00  0.00    -0.222 NA
ATOM     24  C   UNL d   1      32.493  22.110 -21.050  0.00  0.00     0.120 A 
ATOM     25  C   UNL d   1      32.998  21.856 -21.690  0.00  0.00     0.102 A 
ENDBRANCH  20  21
ENDBRANCH  19  20
ENDBRANCH  18  19
ENDBRANCH  17  18
ENDBRANCH   6  17
TORSDOF 5
ENDMDL
