MODEL 1
REMARK VINA RESULT:      10.0      0.000      0.000
REMARK  3 active torsions:
REMARK  status: ('A' for Active; 'I' for Inactive)
REMARK    1  A    between atoms: C_6  and  C_1 
REMARK    2  A    between atoms: O_9  and  C_6 
REMARK    3  A    between atoms: C_12  and  O_9 
ROOT
ATOM      1  C   UNL d   1      14.380  12.200  -1.624  0.00  0.00     0.182 A 
ATOM      2  C   UNL d   1      13.581  11.978  -1.739  0.00  0.00     0.133 A 
ATOM      3  O   UNL d   1      14.723  12.318  -2.374  0.00  0.00    -0.300 OA
ATOM      4  C   UNL d   1      13.436  11.961  -2.556  0.00  0.00     0.044 A 
ATOM      5  C   UNL d   1      14.139  12.170  -2.952  0.00  0.00     0.102 A 
ATOM      6  N   UNL d   1      13.033  11.807  -1.145  0.00  0.00    -0.146 N 
ATOM      7  C   UNL d   1      12.769  11.785  -2.993  0.00  0.00     0.004 A 
ATOM      8  C   UNL d   1      14.149  12.196  -3.771  0.00  0.00     0.025 A 
ATOM      9  C   UNL d   1      12.782  11.812  -3.813  0.00  0.00     0.000 A 
ATOM     10  C   UNL d   1      13.481  12.020  -4.207  0.00  0.00     0.002 A 
ENDROOT
BRANCH   1  11
ATOM     11  C   UNL d   1      14.762  12.287  -0.899  0.00  0.00     0.325 C 
ATOM     12  O   UNL d   1      14.579  11.781  -0.282  0.00  0.00    -0.257 OA
BRANCH  11  13
ATOM     13  O   UNL d   1      15.325  12.880  -0.798  0.00  0.00    -0.269 OA
BRANCH  13  14
ATOM     14  C   UNL d   1      15.390  13.263  -0.070  0.00  0.00     0.126 C 
ATOM     15  C   UNL d   1      15.696  14.028  -0.033  0.00  0.00     0.029 C 
ENDBRANCH  13  14
ENDBRANCH  11  13
ENDBRANCH   1  11
TORSDOF 3
ENDMDL
MODEL 2
REMARK VINA RESULT:      11.0      1.093      3.283
REMARK  3 active torsions:
REMARK  status: ('A' for Active; 'I' for Inactive)
REMARK    1  A    between atoms: C_6  and  C_1 
REMARK    2  A    between atoms: O_9  and  C_6 
REMARK    3  A    between atoms: C_12  and  O_9 
ROOT
ATOM      1  C   UNL d   1      13.948  12.639  -2.614  0.00  0.00     0.182 A 
ATOM      2  C   UNL d   1      13.520  12.165  -2.072  0.00  0.00     0.133 A 
ATOM      3  O   UNL d   1      14.634  12.911  -2.228  0.00  0.00    -0.300 OA
ATOM      4  C   UNL d   1      13.943  12.148  -1.358  0.00  0.00     0.044 A 
ATOM      5  C   UNL d   1      14.632  12.608  -1.450  0.00  0.00     0.102 A 
ATOM      6  N   UNL d   1      12.804  11.782  -2.221  0.00  0.00    -0.146 N 
ATOM      7  C   UNL d   1      13.799  11.783  -0.642  0.00  0.00     0.004 A 
ATOM      8  C   UNL d   1      15.153  12.686  -0.822  0.00  0.00     0.025 A 
ATOM      9  C   UNL d   1      14.323  11.862  -0.015  0.00  0.00     0.000 A 
ATOM     10  C   UNL d   1      15.008  12.319  -0.106  0.00  0.00     0.002 A 
ENDROOT
BRANCH   1  11
ATOM     11  C   UNL d   1      13.733  12.807  -3.391  0.00  0.00     0.325 C 
ATOM     12  O   UNL d   1      13.767  13.579  -3.662  0.00  0.00    -0.257 OA
BRANCH  11  13
ATOM     13  O   UNL d   1      13.484  12.202  -3.891  0.00  0.00    -0.269 OA
BRANCH  13  14
ATOM     14  C   UNL d   1      13.059  12.383  -4.574  0.00  0.00     0.126 C 
ATOM     15  C   UNL d   1      12.820  11.780  -5.083  0.00  0.00     0.029 C 
ENDBRANCH  13  14
ENDBRANCH  11  13
ENDBRANCH   1  11
TORSDOF 3
ENDMDL
MODEL 3
REMARK VINA RESULT:      12.0      1.230      1.738
REMARK  3 active torsions:
REMARK  status: ('A' for Active; 'I' for Inactive)
REMARK    1  A    between atoms: C_6  and  C_1 
REMARK    2  A    between atoms: O_9  and  C_6 
REMARK    3  A    between atoms: C_12  and  O_9 
ROOT
ATOM      1  C   UNL d   1      13.896  12.393  -2.690  0.00  0.00     0.182 A 
ATOM      2  C   UNL d   1      13.722  13.122  -3.065  0.00  0.00     0.133 A 
ATOM      3  O   UNL d   1      13.668  11.780  -3.205  0.00  0.00    -0.300 OA
ATOM      4  C   UNL d   1      13.388  12.953  -3.806  0.00  0.00     0.044 A 
ATOM      5  C   UNL d   1      13.353  12.125  -3.897  0.00  0.00     0.102 A 
ATOM      6  N   UNL d   1      13.857  13.874  -2.753  0.00  0.00    -0.146 N 
ATOM      7  C   UNL d   1      13.113  13.433  -4.407  0.00  0.00     0.004 A 
ATOM      8  C   UNL d   1      13.043  11.807  -4.586  0.00  0.00     0.025 A 
ATOM      9  C   UNL d   1      12.804  13.111  -5.096  0.00  0.00     0.000 A 
ATOM     10  C   UNL d   1      12.769  12.288  -5.187  0.00  0.00     0.002 A 
ENDROOT
BRANCH   1  11
ATOM     11  C   UNL d   1      14.234  12.297  -1.945  0.00  0.00     0.325 C 
ATOM     12  O   UNL d   1      15.048  12.328  -1.863  0.00  0.00    -0.257 OA
BRANCH  11  13
ATOM     13  O   UNL d   1      13.754  12.170  -1.288  0.00  0.00    -0.269 OA
BRANCH  13  14
ATOM     14  C   UNL d   1      14.095  11.971  -0.563  0.00  0.00     0.126 C 
ATOM     15  C   UNL d   1      14.272  12.560  -0.014  0.00  0.00     0.029 C 
ENDBRANCH  13  14
ENDBRANCH  11  13
ENDBRANCH   1  11
TORSDOF 3
ENDMDL
