MODEL 1
REMARK VINA RESULT:       1.1      0.000      0.000
REMARK  4 active torsions:
REMARK  status: ('A' for Active; 'I' for Inactive)
REMARK    1  A    between atoms: S_2  and  N_1 
REMARK    2  A    between atoms: C_10  and  S_2 
REMARK    3  A    between atoms: C_7  and  C_4 
REMARK    4  A    between atoms: C_11  and  C_5 
ROOT
ATOM      1  N   UNL d   1      30.805  17.340 -24.019  0.00  0.00    -0.152 N 
ATOM      2  N   UNL d   1      29.983  17.395 -23.850  0.00  0.00    -0.155 NA
ATOM      3  C   UNL d   1      31.005  16.535 -24.069  0.00  0.00     0.099 A 
ATOM      4  C   UNL d   1      29.667  16.628 -23.793  0.00  0.00     0.104 A 
ATOM      5  C   UNL d   1      30.293  16.095 -23.928  0.00  0.00     0.041 A 
ENDROOT
BRANCH   1   6
ATOM      6  S   UNL d   1      31.325  17.953 -24.119  0.00  0.00     0.286 S 
ATOM      7  O   UNL d   1      31.405  17.791 -25.018  0.00  0.00    -0.198 OA
ATOM      8  O   UNL d   1      31.265  18.117 -23.302  0.00  0.00    -0.198 OA
BRANCH   6   9
ATOM      9  C   UNL d   1      31.810  18.598 -23.967  0.00  0.00     0.105 A 
ATOM     10  C   UNL d   1      32.024  19.107 -24.580  0.00  0.00     0.013 A 
ATOM     11  C   UNL d   1      32.512  19.756 -24.427  0.00  0.00     0.001 A 
ATOM     12  C   UNL d   1      32.771  19.875 -23.665  0.00  0.00     0.000 A 
ATOM     13  C   UNL d   1      32.572  19.385 -23.046  0.00  0.00     0.001 A 
ATOM     14  C   UNL d   1      32.084  18.736 -23.199  0.00  0.00     0.013 A 
ENDBRANCH   6   9
ENDBRANCH   1   6
BRANCH   3  15
ATOM     15  C   UNL d   1      31.750  16.217 -24.226  0.00  0.00     0.058 A 
ATOM     16  C   UNL d   1      32.116  15.786 -23.641  0.00  0.00     0.197 A 
ATOM     17  O   UNL d   1      31.786  15.654 -22.910  0.00  0.00    -0.286 OA
ATOM     18  C   UNL d   1      32.886  15.457 -23.803  0.00  0.00     0.042 A 
ATOM     19  C   UNL d   1      33.241  15.579 -24.539  0.00  0.00     0.003 A 
ATOM     20  C   UNL d   1      32.826  16.021 -25.093  0.00  0.00     0.000 A 
ATOM     21  C   UNL d   1      32.105  16.330 -24.941  0.00  0.00     0.005 A 
ENDBRANCH   3  15
BRANCH   4  22
ATOM     22  C   UNL d   1      28.895  16.452 -23.637  0.00  0.00     0.019 A 
ATOM     23  C   UNL d   1      28.588  15.715 -23.861  0.00  0.00     0.002 A 
ATOM     24  C   UNL d   1      27.812  15.537 -23.705  0.00  0.00     0.000 A 
ATOM     25  C   UNL d   1      27.356  16.066 -23.340  0.00  0.00     0.000 A 
ATOM     26  C   UNL d   1      27.624  16.788 -23.110  0.00  0.00     0.000 A 
ATOM     27  C   UNL d   1      26.570  15.864 -23.190  0.00  0.00     0.000 C 
ATOM     28  C   UNL d   1      28.413  16.991 -23.260  0.00  0.00     0.002 A 
ENDBRANCH   4  22
TORSDOF 4
ENDMDL
MODEL 2
REMARK VINA RESULT:       4.0      3.327      5.422
REMARK  4 active torsions:
REMARK  status: ('A' for Active; 'I' for Inactive)
REMARK    1  A    between atoms: S_2  and  N_1 
REMARK    2  A    between atoms: C_10  and  S_2 
REMARK    3  A    between atoms: C_7  and  C_4 
REMARK    4  A    between atoms: C_11  and  C_5 
ROOT
ATOM      1  N   UNL d   1      32.654  20.896 -22.283  0.00  0.00    -0.152 N 
ATOM      2  N   UNL d   1      32.597  20.058 -22.236  0.00  0.00    -0.155 NA
ATOM      3  C   UNL d   1      32.875  21.097 -23.058  0.00  0.00     0.099 A 
ATOM      4  C   UNL d   1      32.781  19.734 -22.979  0.00  0.00     0.104 A 
ATOM      5  C   UNL d   1      32.952  20.370 -23.488  0.00  0.00     0.041 A 
ENDROOT
BRANCH   1   6
ATOM      6  S   UNL d   1      32.521  21.428 -21.686  0.00  0.00     0.286 S 
ATOM      7  O   UNL d   1      31.824  21.818 -22.135  0.00  0.00    -0.198 OA
ATOM      8  O   UNL d   1      33.154  21.086 -21.260  0.00  0.00    -0.198 OA
BRANCH   6   9
ATOM      9  C   UNL d   1      32.585  21.838 -20.978  0.00  0.00     0.105 A 
ATOM     10  C   UNL d   1      32.060  22.453 -20.808  0.00  0.00     0.013 A 
ATOM     11  C   UNL d   1      32.124  22.866 -20.096  0.00  0.00     0.001 A 
ATOM     12  C   UNL d   1      32.711  22.653 -19.575  0.00  0.00     0.000 A 
ATOM     13  C   UNL d   1      33.238  22.050 -19.722  0.00  0.00     0.001 A 
ATOM     14  C   UNL d   1      33.174  21.637 -20.435  0.00  0.00     0.013 A 
ENDBRANCH   6   9
ENDBRANCH   1   6
BRANCH   3  15
ATOM     15  C   UNL d   1      32.997  21.856 -23.359  0.00  0.00     0.058 A 
ATOM     16  C   UNL d   1      33.000  21.955 -24.166  0.00  0.00     0.197 A 
ATOM     17  O   UNL d   1      32.889  21.344 -24.691  0.00  0.00    -0.286 OA
ATOM     18  C   UNL d   1      33.126  22.739 -24.477  0.00  0.00     0.042 A 
ATOM     19  C   UNL d   1      33.241  23.374 -23.961  0.00  0.00     0.003 A 
ATOM     20  C   UNL d   1      33.228  23.217 -23.156  0.00  0.00     0.000 A 
ATOM     21  C   UNL d   1      33.110  22.483 -22.864  0.00  0.00     0.005 A 
ENDBRANCH   3  15
BRANCH   4  22
ATOM     22  C   UNL d   1      32.786  18.946 -23.156  0.00  0.00     0.019 A 
ATOM     23  C   UNL d   1      32.326  18.662 -23.784  0.00  0.00     0.002 A 
ATOM     24  C   UNL d   1      32.331  17.871 -23.963  0.00  0.00     0.000 A 
ATOM     25  C   UNL d   1      32.774  17.378 -23.537  0.00  0.00     0.000 A 
ATOM     26  C   UNL d   1      33.231  17.622 -22.922  0.00  0.00     0.000 A 
ATOM     27  C   UNL d   1      32.764  16.577 -23.736  0.00  0.00     0.000 C 
ATOM     28  C   UNL d   1      33.241  18.425 -22.722  0.00  0.00     0.002 A 
ENDBRANCH   4  22
TORSDOF 4
ENDMDL
