MODEL 1
REMARK VINA RESULT:      -5.5      0.000      0.000
REMARK  5 active torsions:
REMARK  status: ('A' for Active; 'I' for Inactive)
REMARK    1  A    between atoms: C_7  and  N_2 
REMARK    2  A    between atoms: C_14  and  C_7 
REMARK    3  A    between atoms: C_8  and  O_16 
REMARK    4  A    between atoms: C_18  and  C_14 
REMARK    5  A    between atoms: O_16  and  C_18 
ROOT
ATOM      1  C   UNL d   1     -41.574-122.083 -52.614  0.00  0.00     0.086 C 
ENDROOT
BRANCH   1   2
ATOM      2  N   UNL d   1     -41.615-122.536 -53.299  0.00  0.00    -0.268 N 
ATOM      3  C   UNL d   1     -41.407-123.331 -53.364  0.00  0.00     0.296 A 
ATOM      4  S   UNL d   1     -41.536-123.563 -54.154  0.00  0.00    -0.025 SA
ATOM      5  O   UNL d   1     -41.123-123.817 -52.762  0.00  0.00    -0.259 OA
ATOM      6  C   UNL d   1     -41.821-122.904 -54.562  0.00  0.00     0.050 A 
ATOM      7  C   UNL d   1     -42.046-122.799 -55.361  0.00  0.00     0.008 A 
ATOM      8  C   UNL d   1     -41.871-122.272 -54.042  0.00  0.00     0.073 A 
ATOM      9  C   UNL d   1     -42.315-122.065 -55.616  0.00  0.00     0.001 A 
ATOM     10  C   UNL d   1     -42.362-121.432 -55.082  0.00  0.00     0.002 A 
ATOM     11  C   UNL d   1     -42.140-121.534 -54.294  0.00  0.00     0.018 A 
ENDBRANCH   1   2
BRANCH   1  12
ATOM     12  C   UNL d   1     -41.616-122.445 -51.868  0.00  0.00     0.046 C 
BRANCH  12  13
ATOM     13  C   UNL d   1     -41.650-121.991 -51.181  0.00  0.00     0.124 C 
BRANCH  13  14
ATOM     14  O   UNL d   1     -41.829-122.343 -50.463  0.00  0.00    -0.305 OA
BRANCH  14  15
ATOM     15  C   UNL d   1     -42.009-122.697 -49.736  0.00  0.00     0.100 A 
ATOM     16  C   UNL d   1     -42.785-122.768 -49.513  0.00  0.00     0.025 A 
ATOM     17  C   UNL d   1     -42.975-123.121 -48.786  0.00  0.00     0.002 A 
ATOM     18  C   UNL d   1     -42.369-123.398 -48.295  0.00  0.00     0.000 A 
ATOM     19  C   UNL d   1     -41.583-123.320 -48.533  0.00  0.00     0.002 A 
ATOM     20  C   UNL d   1     -42.550-123.747 -47.577  0.00  0.00     0.000 C 
ATOM     21  C   UNL d   1     -41.402-122.971 -49.251  0.00  0.00     0.025 A 
ENDBRANCH  14  15
ENDBRANCH  13  14
ENDBRANCH  12  13
ENDBRANCH   1  12
TORSDOF 5
ENDMDL
MODEL 2
REMARK VINA RESULT:      -4.0      1.559      5.351
REMARK  5 active torsions:
REMARK  status: ('A' for Active; 'I' for Inactive)
REMARK    1  A    between atoms: C_7  and  N_2 
REMARK    2  A    between atoms: C_14  and  C_7 
REMARK    3  A    between atoms: C_8  and  O_16 
REMARK    4  A    between atoms: C_18  and  C_14 
REMARK    5  A    between atoms: O_16  and  C_18 
ROOT
ATOM      1  C   UNL d   1     -41.554-122.633 -50.390  0.00  0.00     0.086 C 
ENDROOT
BRANCH   1   2
ATOM      2  N   UNL d   1     -42.080-122.819 -49.785  0.00  0.00    -0.268 N 
ATOM      3  C   UNL d   1     -42.895-122.698 -49.802  0.00  0.00     0.296 A 
ATOM      4  S   UNL d   1     -43.204-122.967 -49.076  0.00  0.00    -0.025 SA
ATOM      5  O   UNL d   1     -43.333-122.372 -50.419  0.00  0.00    -0.259 OA
ATOM      6  C   UNL d   1     -42.572-123.249 -48.625  0.00  0.00     0.050 A 
ATOM      7  C   UNL d   1     -42.540-123.582 -47.859  0.00  0.00     0.008 A 
ATOM      8  C   UNL d   1     -41.881-123.160 -49.057  0.00  0.00     0.073 A 
ATOM      9  C   UNL d   1     -41.816-123.817 -47.546  0.00  0.00     0.001 A 
ATOM     10  C   UNL d   1     -41.122-123.724 -47.990  0.00  0.00     0.002 A 
ATOM     11  C   UNL d   1     -41.152-123.395 -48.746  0.00  0.00     0.018 A 
ENDBRANCH   1   2
BRANCH   1  12
ATOM     12  C   UNL d   1     -41.712-122.870 -51.171  0.00  0.00     0.046 C 
BRANCH  12  13
ATOM     13  C   UNL d   1     -41.125-122.830 -51.749  0.00  0.00     0.124 C 
BRANCH  13  14
ATOM     14  O   UNL d   1     -41.327-122.700 -52.532  0.00  0.00    -0.305 OA
BRANCH  14  15
ATOM     15  C   UNL d   1     -41.529-122.567 -53.324  0.00  0.00     0.100 A 
ATOM     16  C   UNL d   1     -41.351-123.133 -53.877  0.00  0.00     0.025 A 
ATOM     17  C   UNL d   1     -41.550-123.008 -54.674  0.00  0.00     0.002 A 
ATOM     18  C   UNL d   1     -41.928-122.306 -54.896  0.00  0.00     0.000 A 
ATOM     19  C   UNL d   1     -42.103-121.738 -54.325  0.00  0.00     0.002 A 
ATOM     20  C   UNL d   1     -42.126-122.177 -55.680  0.00  0.00     0.000 C 
ATOM     21  C   UNL d   1     -41.905-121.867 -53.541  0.00  0.00     0.025 A 
ENDBRANCH  14  15
ENDBRANCH  13  14
ENDBRANCH  12  13
ENDBRANCH   1  12
TORSDOF 5
ENDMDL
