MODEL 1
REMARK VINA RESULT:      70.5      0.000      0.000
REMARK  3 active torsions:
REMARK  status: ('A' for Active; 'I' for Inactive)
REMARK    1  A    between atoms: N_6  and  C_1 
REMARK    2  A    between atoms: C_14  and  N_4 
REMARK    3  A    between atoms: C_7  and  N_6 
ROOT
ATOM      1  C   UNL d   1     -55.044-102.101 -41.387  0.00  0.00     0.157 A 
ATOM      2  C   UNL d   1     -55.170-102.150 -42.201  0.00  0.00     0.298 A 
ATOM      3  N   UNL d   1     -54.877-100.930 -41.872  0.00  0.00    -0.238 N 
ATOM      4  N   UNL d   1     -55.070-101.433 -42.511  0.00  0.00    -0.209 N 
ATOM      5  C   UNL d   1     -54.877-101.395 -41.220  0.00  0.00     0.104 A 
ATOM      6  O   UNL d   1     -55.371-102.840 -42.625  0.00  0.00    -0.263 OA
ATOM      7  C   UNL d   1     -54.712-100.109 -41.871  0.00  0.00     0.120 C 
ATOM      8  C   UNL d   1     -54.718-101.126 -40.484  0.00  0.00     0.022 C 
ENDROOT
BRANCH   1   9
ATOM      9  N   UNL d   1     -55.088-102.711 -40.837  0.00  0.00    -0.239 NA
BRANCH   9  10
ATOM     10  C   UNL d   1     -55.717-102.751 -40.334  0.00  0.00     0.082 A 
ATOM     11  C   UNL d   1     -55.611-102.786 -39.497  0.00  0.00     0.021 A 
ATOM     12  C   UNL d   1     -56.246-102.827 -38.980  0.00  0.00     0.040 A 
ATOM     13  C   UNL d   1     -54.849-102.777 -39.198  0.00  0.00     0.002 A 
ATOM     14  C   UNL d   1     -56.131-102.861 -38.166  0.00  0.00     0.003 A 
ATOM     15  C   UNL d   1     -57.008-102.836 -39.278  0.00  0.00     0.196 A 
ATOM     16  C   UNL d   1     -55.355-102.851 -37.883  0.00  0.00     0.000 A 
ATOM     17  C   UNL d   1     -54.720-102.810 -38.387  0.00  0.00     0.000 A 
ATOM     18  C   UNL d   1     -57.136-102.803 -40.093  0.00  0.00     0.044 A 
ATOM     19  O   UNL d   1     -57.667-102.880 -38.733  0.00  0.00    -0.287 OA
ATOM     20  C   UNL d   1     -56.469-102.760 -40.629  0.00  0.00     0.022 A 
ENDBRANCH   9  10
ENDBRANCH   1   9
BRANCH   4  21
ATOM     21  C   UNL d   1     -55.144-101.234 -43.304  0.00  0.00     0.085 A 
ATOM     22  C   UNL d   1     -54.762-101.706 -43.886  0.00  0.00     0.019 A 
ATOM     23  C   UNL d   1     -54.830-101.514 -44.691  0.00  0.00     0.002 A 
ATOM     24  C   UNL d   1     -55.273-100.856 -44.939  0.00  0.00     0.000 A 
ATOM     25  C   UNL d   1     -55.657-100.380 -44.369  0.00  0.00     0.002 A 
ATOM     26  C   UNL d   1     -55.584-100.579 -43.564  0.00  0.00     0.019 A 
ENDBRANCH   4  21
TORSDOF 3
ENDMDL
