MODEL 1
REMARK VINA RESULT:      42.5      0.000      0.000
REMARK  6 active torsions:
REMARK  status: ('A' for Active; 'I' for Inactive)
REMARK       I    between atoms: N_2  and  C_1 
REMARK    1  A    between atoms: C_5  and  C_1 
REMARK    2  A    between atoms: C_3  and  N_2 
REMARK    3  A    between atoms: O_14  and  C_10 
REMARK    4  A    between atoms: C_18  and  O_14 
REMARK    5  A    between atoms: C_19  and  C_18 
REMARK    6  A    between atoms: C_20  and  C_19 
ROOT
ATOM      1  C   UNL d   1      57.460  49.559  51.551  0.00  0.00     0.058 A 
ATOM      2  C   UNL d   1      57.921  49.668  52.226  0.00  0.00     0.007 A 
ATOM      3  C   UNL d   1      57.815  49.487  50.826  0.00  0.00     0.007 A 
ATOM      4  C   UNL d   1      59.112  49.631  51.438  0.00  0.00     0.100 A 
ATOM      5  C   UNL d   1      58.741  49.702  52.159  0.00  0.00     0.025 A 
ATOM      6  C   UNL d   1      58.623  49.520  50.752  0.00  0.00     0.025 A 
ENDROOT
BRANCH   1   7
ATOM      7  C   UNL d   1      56.631  49.527  51.640  0.00  0.00     0.281 C 
ATOM      8  N   UNL d   1      56.141  49.323  51.011  0.00  0.00    -0.189 NA
ATOM      9  O   UNL d   1      56.301  49.704  52.370  0.00  0.00    -0.265 OA
BRANCH   8  10
ATOM     10  C   UNL d   1      56.479  49.142  50.262  0.00  0.00     0.166 A 
ATOM     11  N   UNL d   1      56.432  48.351  50.008  0.00  0.00    -0.227 NA
ATOM     12  C   UNL d   1      56.747  48.150  49.296  0.00  0.00     0.083 A 
ATOM     13  C   UNL d   1      56.734  47.346  48.967  0.00  0.00     0.021 C 
ATOM     14  C   UNL d   1      57.116  48.746  48.829  0.00  0.00     0.019 A 
ATOM     15  C   UNL d   1      57.151  49.528  49.104  0.00  0.00     0.005 A 
ATOM     16  C   UNL d   1      56.827  49.698  49.820  0.00  0.00     0.039 A 
ENDBRANCH   8  10
ENDBRANCH   1   7
BRANCH   4  17
ATOM     17  O   UNL d   1      59.938  49.665  51.367  0.00  0.00    -0.305 OA
BRANCH  17  18
ATOM     18  C   UNL d   1      60.309  49.592  50.635  0.00  0.00     0.123 C 
BRANCH  18  19
ATOM     19  C   UNL d   1      61.051  49.239  50.592  0.00  0.00     0.027 C 
BRANCH  19  20
ATOM     20  C   UNL d   1      61.144  48.578  50.086  0.00  0.00     0.002 C 
ATOM     21  C   UNL d   1      61.764  48.045  50.207  0.00  0.00     0.000 C 
ENDBRANCH  19  20
ENDBRANCH  18  19
ENDBRANCH  17  18
ENDBRANCH   4  17
TORSDOF 6
ENDMDL
MODEL 2
REMARK VINA RESULT:      44.2      2.078      4.143
REMARK  6 active torsions:
REMARK  status: ('A' for Active; 'I' for Inactive)
REMARK       I    between atoms: N_2  and  C_1 
REMARK    1  A    between atoms: C_5  and  C_1 
REMARK    2  A    between atoms: C_3  and  N_2 
REMARK    3  A    between atoms: O_14  and  C_10 
REMARK    4  A    between atoms: C_18  and  O_14 
REMARK    5  A    between atoms: C_19  and  C_18 
REMARK    6  A    between atoms: C_20  and  C_19 
ROOT
ATOM      1  C   UNL d   1      60.585  49.239  51.018  0.00  0.00     0.058 A 
ATOM      2  C   UNL d   1      60.547  49.424  50.215  0.00  0.00     0.007 A 
ATOM      3  C   UNL d   1      59.906  49.207  51.458  0.00  0.00     0.007 A 
ATOM      4  C   UNL d   1      59.126  49.547  50.295  0.00  0.00     0.100 A 
ATOM      5  C   UNL d   1      59.817  49.576  49.866  0.00  0.00     0.025 A 
ATOM      6  C   UNL d   1      59.183  49.355  51.121  0.00  0.00     0.025 A 
ENDROOT
BRANCH   1   7
ATOM      7  C   UNL d   1      61.335  49.089  51.353  0.00  0.00     0.281 C 
ATOM      8  N   UNL d   1      61.666  48.336  51.340  0.00  0.00    -0.189 NA
ATOM      9  O   UNL d   1      61.748  49.707  51.701  0.00  0.00    -0.265 OA
BRANCH   8  10
ATOM     10  C   UNL d   1      61.243  47.702  50.983  0.00  0.00     0.166 A 
ATOM     11  N   UNL d   1      61.616  47.306  50.354  0.00  0.00    -0.227 NA
ATOM     12  C   UNL d   1      61.234  46.696  49.994  0.00  0.00     0.083 A 
ATOM     13  C   UNL d   1      61.563  46.239  49.332  0.00  0.00     0.021 C 
ATOM     14  C   UNL d   1      60.468  46.478  50.265  0.00  0.00     0.019 A 
ATOM     15  C   UNL d   1      60.115  46.887  50.895  0.00  0.00     0.005 A 
ATOM     16  C   UNL d   1      60.522  47.492  51.234  0.00  0.00     0.039 A 
ENDBRANCH   8  10
ENDBRANCH   1   7
BRANCH   4  17
ATOM     17  O   UNL d   1      58.388  49.699  49.947  0.00  0.00    -0.305 OA
BRANCH  17  18
ATOM     18  C   UNL d   1      57.685  49.522  50.337  0.00  0.00     0.123 C 
BRANCH  18  19
ATOM     19  C   UNL d   1      56.968  49.708  49.980  0.00  0.00     0.027 C 
BRANCH  19  20
ATOM     20  C   UNL d   1      56.424  49.084  49.840  0.00  0.00     0.002 C 
ATOM     21  C   UNL d   1      56.265  48.836  49.068  0.00  0.00     0.000 C 
ENDBRANCH  19  20
ENDBRANCH  18  19
ENDBRANCH  17  18
ENDBRANCH   4  17
TORSDOF 6
ENDMDL
