MODEL 1
REMARK VINA RESULT:      -4.8      0.000      0.000
REMARK  4 active torsions:
REMARK  status: ('A' for Active; 'I' for Inactive)
REMARK    1  A    between atoms: N_2  and  C_9 
REMARK    2  A    between atoms: C_11  and  C_5 
REMARK    3  A    between atoms: C_6  and  C_7 
REMARK       I    between atoms: C_7  and  N_10 
REMARK    4  A    between atoms: N_10  and  C_21 
ROOT
ATOM      1  C   UNL d   1      57.690   0.215  31.207  0.00  0.00     0.019 A 
ATOM      2  C   UNL d   1      58.488   0.218  31.427  0.00  0.00     0.003 A 
ATOM      3  C   UNL d   1      57.470   0.364  30.426  0.00  0.00     0.003 A 
ATOM      4  C   UNL d   1      58.847   0.519  30.076  0.00  0.00     0.085 A 
ATOM      5  C   UNL d   1      58.051   0.515  29.864  0.00  0.00     0.019 A 
ATOM      6  C   UNL d   1      59.064   0.370  30.858  0.00  0.00     0.019 A 
ENDROOT
BRANCH   4   7
ATOM      7  N   UNL d   1      59.431   0.672  29.509  0.00  0.00    -0.208 NA
ATOM      8  C   UNL d   1      59.702   0.061  29.021  0.00  0.00     0.281 C 
ATOM      9  O   UNL d   1      60.285   0.219  28.456  0.00  0.00    -0.265 OA
BRANCH   8  10
ATOM     10  C   UNL d   1      59.389  -0.699  29.099  0.00  0.00     0.080 A 
ATOM     11  C   UNL d   1      59.898  -1.339  29.190  0.00  0.00     0.131 A 
ATOM     12  C   UNL d   1      59.582  -2.097  29.267  0.00  0.00     0.024 A 
ATOM     13  C   UNL d   1      58.771  -2.211  29.254  0.00  0.00     0.002 A 
ATOM     14  C   UNL d   1      58.263  -1.568  29.163  0.00  0.00     0.000 A 
ATOM     15  C   UNL d   1      58.576  -0.808  29.085  0.00  0.00     0.006 A 
BRANCH  11  16
ATOM     16  N   UNL d   1      60.720  -1.220  29.203  0.00  0.00    -0.114 N 
ATOM     17  O   UNL d   1      61.133  -1.105  28.500  0.00  0.00    -0.532 OA
ATOM     18  O   UNL d   1      61.125  -1.218  29.921  0.00  0.00    -0.532 OA
ENDBRANCH  11  16
ENDBRANCH   8  10
ENDBRANCH   4   7
BRANCH   1  19
ATOM     19  C   UNL d   1      57.106   0.063  31.774  0.00  0.00     0.101 A 
ATOM     20  N   UNL d   1      56.813  -0.673  31.987  0.00  0.00    -0.227 NA
ATOM     21  C   UNL d   1      56.244  -0.564  32.567  0.00  0.00     0.148 A 
ATOM     22  N   UNL d   1      56.184   0.244  32.713  0.00  0.00    -0.288 N 
ATOM     23  C   UNL d   1      55.769  -1.095  32.984  0.00  0.00     0.037 A 
ATOM     24  C   UNL d   1      55.652   0.521  33.275  0.00  0.00     0.082 A 
ATOM     25  C   UNL d   1      56.716   0.629  32.224  0.00  0.00     0.101 A 
ATOM     26  C   UNL d   1      55.177  -0.010  33.692  0.00  0.00     0.019 A 
ATOM     27  C   UNL d   1      55.235  -0.818  33.547  0.00  0.00     0.005 A 
ENDBRANCH   1  19
TORSDOF 4
ENDMDL
MODEL 2
REMARK VINA RESULT:      -2.2      0.992      1.579
REMARK  4 active torsions:
REMARK  status: ('A' for Active; 'I' for Inactive)
REMARK    1  A    between atoms: N_2  and  C_9 
REMARK    2  A    between atoms: C_11  and  C_5 
REMARK    3  A    between atoms: C_6  and  C_7 
REMARK       I    between atoms: C_7  and  N_10 
REMARK    4  A    between atoms: N_10  and  C_21 
ROOT
ATOM      1  C   UNL d   1      57.237  -0.243  31.387  0.00  0.00     0.019 A 
ATOM      2  C   UNL d   1      57.350   0.357  30.829  0.00  0.00     0.003 A 
ATOM      3  C   UNL d   1      57.502  -1.010  31.238  0.00  0.00     0.003 A 
ATOM      4  C   UNL d   1      57.996  -0.584  29.966  0.00  0.00     0.085 A 
ATOM      5  C   UNL d   1      57.880  -1.176  30.526  0.00  0.00     0.019 A 
ATOM      6  C   UNL d   1      57.730   0.182  30.119  0.00  0.00     0.019 A 
ENDROOT
BRANCH   4   7
ATOM      7  N   UNL d   1      58.377  -0.752  29.251  0.00  0.00    -0.208 NA
ATOM      8  C   UNL d   1      59.189  -0.609  29.172  0.00  0.00     0.281 C 
ATOM      9  O   UNL d   1      59.565  -0.779  28.455  0.00  0.00    -0.265 OA
BRANCH   8  10
ATOM     10  C   UNL d   1      59.617  -0.299  29.806  0.00  0.00     0.080 A 
ATOM     11  C   UNL d   1      60.313  -0.668  30.044  0.00  0.00     0.131 A 
ATOM     12  C   UNL d   1      60.738  -0.355  30.678  0.00  0.00     0.024 A 
ATOM     13  C   UNL d   1      60.469   0.315  31.067  0.00  0.00     0.002 A 
ATOM     14  C   UNL d   1      59.771   0.682  30.826  0.00  0.00     0.000 A 
ATOM     15  C   UNL d   1      59.344   0.372  30.192  0.00  0.00     0.006 A 
BRANCH  11  16
ATOM     16  N   UNL d   1      60.582  -1.346  29.648  0.00  0.00    -0.114 N 
ATOM     17  O   UNL d   1      60.512  -2.087  30.001  0.00  0.00    -0.532 OA
ATOM     18  O   UNL d   1      60.921  -1.280  28.899  0.00  0.00    -0.532 OA
ENDBRANCH  11  16
ENDBRANCH   8  10
ENDBRANCH   4   7
BRANCH   1  19
ATOM     19  C   UNL d   1      56.856  -0.075  32.103  0.00  0.00     0.101 A 
ATOM     20  N   UNL d   1      56.067  -0.214  32.280  0.00  0.00    -0.227 NA
ATOM     21  C   UNL d   1      55.929   0.037  33.048  0.00  0.00     0.148 A 
ATOM     22  N   UNL d   1      56.637   0.333  33.347  0.00  0.00    -0.288 N 
ATOM     23  C   UNL d   1      55.250   0.036  33.517  0.00  0.00     0.037 A 
ATOM     24  C   UNL d   1      56.666   0.628  34.115  0.00  0.00     0.082 A 
ATOM     25  C   UNL d   1      57.206   0.263  32.764  0.00  0.00     0.101 A 
ATOM     26  C   UNL d   1      55.988   0.626  34.584  0.00  0.00     0.019 A 
ATOM     27  C   UNL d   1      55.280   0.331  34.286  0.00  0.00     0.005 A 
ENDBRANCH   1  19
TORSDOF 4
ENDMDL
