MODEL 1
REMARK VINA RESULT:      45.6      0.000      0.000
REMARK  8 active torsions:
REMARK  status: ('A' for Active; 'I' for Inactive)
REMARK    1  A    between atoms: C_9  and  N_1 
REMARK    2  A    between atoms: C_13  and  C_5 
REMARK    3  A    between atoms: C_8  and  C_6 
REMARK    4  A    between atoms: C_7  and  N_11 
REMARK    5  A    between atoms: C_10  and  C_9 
REMARK       I    between atoms: N_11  and  C_10 
REMARK    6  A    between atoms: C_15  and  C_13 
REMARK    7  A    between atoms: C_18  and  C_15 
REMARK    8  A    between atoms: C_20  and  C_18 
ROOT
ATOM      1  N   UNL d   1      13.287  12.873  -3.547  0.00  0.00    -0.230 N 
ATOM      2  C   UNL d   1      13.037  12.580  -4.282  0.00  0.00     0.299 A 
ATOM      3  C   UNL d   1      13.265  13.697  -3.578  0.00  0.00     0.274 A 
ATOM      4  S   UNL d   1      12.861  13.230  -4.768  0.00  0.00    -0.022 SA
ATOM      5  C   UNL d   1      13.002  13.912  -4.331  0.00  0.00     0.090 A 
ATOM      6  O   UNL d   1      12.975  11.782  -4.492  0.00  0.00    -0.259 OA
ATOM      7  O   UNL d   1      13.468  14.214  -2.970  0.00  0.00    -0.266 OA
ENDROOT
BRANCH   1   8
ATOM      8  C   UNL d   1      13.516  12.415  -2.903  0.00  0.00     0.149 C 
BRANCH   8   9
ATOM      9  C   UNL d   1      14.318  12.228  -2.796  0.00  0.00     0.297 C 
ATOM     10  N   UNL d   1      14.598  12.028  -2.047  0.00  0.00    -0.206 NA
ATOM     11  O   UNL d   1      14.832  12.246  -3.446  0.00  0.00    -0.264 OA
BRANCH  10  12
ATOM     12  C   UNL d   1      14.079  12.013  -1.410  0.00  0.00     0.090 A 
ATOM     13  C   UNL d   1      14.349  12.206  -0.660  0.00  0.00     0.082 A 
ATOM     14  C   UNL d   1      13.834  12.193  -0.020  0.00  0.00     0.008 A 
ATOM     15  C   UNL d   1      13.040  11.984  -0.136  0.00  0.00     0.000 A 
ATOM     16  C   UNL d   1      12.775  11.792  -0.896  0.00  0.00     0.002 A 
ATOM     17  C   UNL d   1      13.296  11.807  -1.528  0.00  0.00     0.019 A 
BRANCH  13  18
ATOM     18  C   UNL d   1      15.141  12.413  -0.547  0.00  0.00     0.212 C 
ATOM     19  O   UNL d   1      15.721  11.823  -0.492  0.00  0.00    -0.644 OA
ATOM     20  O   UNL d   1      15.354  13.204  -0.490  0.00  0.00    -0.644 OA
ENDBRANCH  13  18
ENDBRANCH  10  12
ENDBRANCH   8   9
ENDBRANCH   1   8
BRANCH   5  21
ATOM     21  C   UNL d   1      12.899  14.689  -4.601  0.00  0.00     0.011 C 
BRANCH  21  22
ATOM     22  C   UNL d   1      13.556  15.148  -4.805  0.00  0.00     0.001 C 
BRANCH  22  23
ATOM     23  C   UNL d   1      13.455  15.899  -5.120  0.00  0.00     0.000 C 
BRANCH  23  24
ATOM     24  C   UNL d   1      14.099  16.413  -5.178  0.00  0.00     0.000 A 
ATOM     25  C   UNL d   1      14.081  17.026  -5.720  0.00  0.00     0.000 A 
ATOM     26  C   UNL d   1      14.721  17.542  -5.781  0.00  0.00     0.000 A 
ATOM     27  C   UNL d   1      15.384  17.441  -5.293  0.00  0.00     0.000 A 
ATOM     28  C   UNL d   1      15.396  16.818  -4.745  0.00  0.00     0.000 A 
ATOM     29  C   UNL d   1      14.755  16.308  -4.690  0.00  0.00     0.000 A 
ENDBRANCH  23  24
ENDBRANCH  22  23
ENDBRANCH  21  22
ENDBRANCH   5  21
TORSDOF 8
ENDMDL
