MODEL 1
REMARK VINA RESULT:      60.1      0.000      0.000
REMARK  3 active torsions:
REMARK  status: ('A' for Active; 'I' for Inactive)
REMARK       I    between atoms: N_2  and  C_1 
REMARK    1  A    between atoms: C_3  and  C_1 
REMARK    2  A    between atoms: C_8  and  N_2 
REMARK    3  A    between atoms: C_7  and  C_6 
ROOT
ATOM      1  C   UNL d   1     -50.081  27.322  33.745  0.00  0.00     0.279 C 
ATOM      2  N   UNL d   1     -49.467  27.470  34.273  0.00  0.00    -0.208 NA
ATOM      3  O   UNL d   1     -50.394  27.952  33.306  0.00  0.00    -0.265 OA
ENDROOT
BRANCH   1   4
ATOM      4  C   UNL d   1     -50.391  26.561  33.644  0.00  0.00     0.058 A 
ATOM      5  C   UNL d   1     -51.208  26.427  33.736  0.00  0.00     0.005 A 
ATOM      6  C   UNL d   1     -51.487  25.669  33.632  0.00  0.00     0.000 A 
ATOM      7  C   UNL d   1     -52.303  25.524  33.721  0.00  0.00     0.000 A 
ATOM      8  C   UNL d   1     -50.976  25.040  33.439  0.00  0.00     0.000 A 
ATOM      9  C   UNL d   1     -52.590  24.750  33.615  0.00  0.00     0.000 A 
ATOM     10  C   UNL d   1     -52.074  24.136  33.424  0.00  0.00     0.000 A 
ATOM     11  C   UNL d   1     -51.270  24.280  33.336  0.00  0.00     0.000 A 
ATOM     12  C   UNL d   1     -50.179  25.180  33.351  0.00  0.00     0.000 A 
ATOM     13  C   UNL d   1     -49.875  25.947  33.453  0.00  0.00     0.005 A 
ENDBRANCH   1   4
BRANCH   2  14
ATOM     14  C   UNL d   1     -49.160  28.234  34.371  0.00  0.00     0.085 A 
ATOM     15  C   UNL d   1     -48.535  28.367  34.866  0.00  0.00     0.022 A 
ATOM     16  C   UNL d   1     -48.234  29.125  34.959  0.00  0.00     0.041 A 
ATOM     17  C   UNL d   1     -48.548  29.773  34.562  0.00  0.00     0.003 A 
ATOM     18  C   UNL d   1     -49.186  29.650  34.053  0.00  0.00     0.002 A 
ATOM     19  C   UNL d   1     -49.511  28.891  33.940  0.00  0.00     0.019 A 
BRANCH  16  20
ATOM     20  C   UNL d   1     -47.580  29.244  35.482  0.00  0.00     0.196 C 
ATOM     21  O   UNL d   1     -47.612  29.827  36.055  0.00  0.00    -0.287 OA
ATOM     22  C   UNL d   1     -46.917  28.765  35.404  0.00  0.00     0.045 C 
ENDBRANCH  16  20
ENDBRANCH   2  14
TORSDOF 3
ENDMDL
MODEL 2
REMARK VINA RESULT:      61.1      1.111      5.088
REMARK  3 active torsions:
REMARK  status: ('A' for Active; 'I' for Inactive)
REMARK       I    between atoms: N_2  and  C_1 
REMARK    1  A    between atoms: C_3  and  C_1 
REMARK    2  A    between atoms: C_8  and  N_2 
REMARK    3  A    between atoms: C_7  and  C_6 
ROOT
ATOM      1  C   UNL d   1     -48.884  27.935  34.800  0.00  0.00     0.279 C 
ATOM      2  N   UNL d   1     -49.127  27.836  34.019  0.00  0.00    -0.208 NA
ATOM      3  O   UNL d   1     -49.068  27.347  35.355  0.00  0.00    -0.265 OA
ENDROOT
BRANCH   1   4
ATOM      4  C   UNL d   1     -48.463  28.606  35.039  0.00  0.00     0.058 A 
ATOM      5  C   UNL d   1     -48.523  29.314  34.605  0.00  0.00     0.005 A 
ATOM      6  C   UNL d   1     -48.099  29.960  34.862  0.00  0.00     0.000 A 
ATOM      7  C   UNL d   1     -48.152  30.673  34.434  0.00  0.00     0.000 A 
ATOM      8  C   UNL d   1     -47.616  29.922  35.539  0.00  0.00     0.000 A 
ATOM      9  C   UNL d   1     -47.719  31.334  34.695  0.00  0.00     0.000 A 
ATOM     10  C   UNL d   1     -47.244  31.283  35.368  0.00  0.00     0.000 A 
ATOM     11  C   UNL d   1     -47.193  30.580  35.788  0.00  0.00     0.000 A 
ATOM     12  C   UNL d   1     -47.562  29.225  35.958  0.00  0.00     0.000 A 
ATOM     13  C   UNL d   1     -47.988  28.555  35.712  0.00  0.00     0.005 A 
ENDBRANCH   1   4
BRANCH   2  14
ATOM     14  C   UNL d   1     -49.548  27.162  33.783  0.00  0.00     0.085 A 
ATOM     15  C   UNL d   1     -50.355  27.174  33.742  0.00  0.00     0.022 A 
ATOM     16  C   UNL d   1     -50.768  26.504  33.507  0.00  0.00     0.041 A 
ATOM     17  C   UNL d   1     -50.388  25.802  33.306  0.00  0.00     0.003 A 
ATOM     18  C   UNL d   1     -49.564  25.778  33.344  0.00  0.00     0.002 A 
ATOM     19  C   UNL d   1     -49.121  26.443  33.579  0.00  0.00     0.019 A 
BRANCH  16  20
ATOM     20  C   UNL d   1     -51.613  26.536  33.470  0.00  0.00     0.196 C 
ATOM     21  O   UNL d   1     -52.003  27.244  33.598  0.00  0.00    -0.287 OA
ATOM     22  C   UNL d   1     -52.030  25.848  33.306  0.00  0.00     0.045 C 
ENDBRANCH  16  20
ENDBRANCH   2  14
TORSDOF 3
ENDMDL
