MODEL 1
REMARK VINA RESULT:      -4.7      0.000      0.000
REMARK  2 active torsions:
REMARK  status: ('A' for Active; 'I' for Inactive)
REMARK    1  A    between atoms: N_7  and  C_3 
REMARK       I    between atoms: C_8  and  N_7 
REMARK    2  A    between atoms: C_10  and  C_8 
ROOT
ATOM      1  C   UNL d   1     -41.613-122.886 -54.675  0.00  0.00     0.343 A 
ATOM      2  N   UNL d   1     -41.429-123.073 -53.899  0.00  0.00    -0.241 N 
ATOM      3  C   UNL d   1     -41.549-122.521 -53.302  0.00  0.00     0.159 A 
ATOM      4  N   UNL d   1     -41.919-122.141 -54.859  0.00  0.00    -0.224 N 
ATOM      5  C   UNL d   1     -41.855-121.776 -53.486  0.00  0.00     0.099 A 
ATOM      6  C   UNL d   1     -42.045-121.576 -54.269  0.00  0.00     0.271 A 
ATOM      7  O   UNL d   1     -41.492-123.443 -55.275  0.00  0.00    -0.245 OA
ATOM      8  O   UNL d   1     -42.348-120.839 -54.452  0.00  0.00    -0.266 OA
ATOM      9  C   UNL d   1     -41.123-123.817 -53.715  0.00  0.00     0.105 C 
ATOM     10  C   UNL d   1     -42.104-121.953 -55.643  0.00  0.00     0.107 C 
ENDROOT
BRANCH   3  11
ATOM     11  N   UNL d   1     -41.363-122.708 -52.517  0.00  0.00    -0.190 NA
ATOM     12  C   UNL d   1     -41.864-122.470 -51.907  0.00  0.00     0.280 C 
ATOM     13  O   UNL d   1     -42.551-122.044 -52.078  0.00  0.00    -0.265 OA
BRANCH  12  14
ATOM     14  C   UNL d   1     -41.677-122.658 -51.127  0.00  0.00     0.058 A 
ATOM     15  C   UNL d   1     -41.855-123.395 -50.845  0.00  0.00     0.006 A 
ATOM     16  C   UNL d   1     -41.673-123.586 -50.075  0.00  0.00     0.012 A 
ATOM     17  C   UNL d   1     -41.310-123.045 -49.574  0.00  0.00     0.058 A 
ATOM     18  C   UNL d   1     -41.129-122.276 -49.881  0.00  0.00     0.012 A 
ATOM     19 CL   UNL d   1     -41.124-123.236 -48.791  0.00  0.00    -0.082 Cl
ATOM     20  C   UNL d   1     -41.311-122.085 -50.649  0.00  0.00     0.006 A 
ENDBRANCH  12  14
ENDBRANCH   3  11
TORSDOF 2
ENDMDL
MODEL 2
REMARK VINA RESULT:      -3.7      2.158      4.360
REMARK  2 active torsions:
REMARK  status: ('A' for Active; 'I' for Inactive)
REMARK    1  A    between atoms: N_7  and  C_3 
REMARK       I    between atoms: C_8  and  N_7 
REMARK    2  A    between atoms: C_10  and  C_8 
ROOT
ATOM      1  C   UNL d   1     -41.568-122.077 -50.151  0.00  0.00     0.343 A 
ATOM      2  N   UNL d   1     -41.565-121.873 -50.944  0.00  0.00    -0.241 N 
ATOM      3  C   UNL d   1     -42.002-122.312 -51.485  0.00  0.00     0.159 A 
ATOM      4  N   UNL d   1     -42.011-122.725 -49.893  0.00  0.00    -0.224 N 
ATOM      5  C   UNL d   1     -42.444-122.960 -51.227  0.00  0.00     0.099 A 
ATOM      6  C   UNL d   1     -42.455-123.176 -50.426  0.00  0.00     0.271 A 
ATOM      7  O   UNL d   1     -41.129-121.634 -49.607  0.00  0.00    -0.245 OA
ATOM      8  O   UNL d   1     -42.893-123.817 -50.170  0.00  0.00    -0.266 OA
ATOM      9  C   UNL d   1     -41.123-121.225 -51.202  0.00  0.00     0.105 C 
ATOM     10  C   UNL d   1     -42.014-122.930 -49.092  0.00  0.00     0.107 C 
ENDROOT
BRANCH   3  11
ATOM     11  N   UNL d   1     -41.999-122.107 -52.287  0.00  0.00    -0.190 NA
ATOM     12  C   UNL d   1     -41.872-122.685 -52.860  0.00  0.00     0.280 C 
ATOM     13  O   UNL d   1     -41.746-123.470 -52.636  0.00  0.00    -0.265 OA
BRANCH  12  14
ATOM     14  C   UNL d   1     -41.869-122.478 -53.658  0.00  0.00     0.058 A 
ATOM     15  C   UNL d   1     -42.402-121.931 -53.926  0.00  0.00     0.006 A 
ATOM     16  C   UNL d   1     -42.404-121.723 -54.712  0.00  0.00     0.012 A 
ATOM     17  C   UNL d   1     -41.875-122.058 -55.245  0.00  0.00     0.058 A 
ATOM     18  C   UNL d   1     -41.322-122.630 -54.953  0.00  0.00     0.012 A 
ATOM     19 CL   UNL d   1     -41.875-121.849 -56.045  0.00  0.00    -0.082 Cl
ATOM     20  C   UNL d   1     -41.320-122.838 -54.167  0.00  0.00     0.006 A 
ENDBRANCH  12  14
ENDBRANCH   3  11
TORSDOF 2
ENDMDL
MODEL 3
REMARK VINA RESULT:      -3.6      2.439      4.698
REMARK  2 active torsions:
REMARK  status: ('A' for Active; 'I' for Inactive)
REMARK    1  A    between atoms: N_7  and  C_3 
REMARK       I    between atoms: C_8  and  N_7 
REMARK    2  A    between atoms: C_10  and  C_8 
ROOT
ATOM      1  C   UNL d   1     -42.919-122.782 -48.908  0.00  0.00     0.343 A 
ATOM      2  N   UNL d   1     -42.831-122.857 -49.718  0.00  0.00    -0.241 N 
ATOM      3  C   UNL d   1     -42.178-123.250 -50.028  0.00  0.00     0.159 A 
ATOM      4  N   UNL d   1     -42.353-123.102 -48.399  0.00  0.00    -0.224 N 
ATOM      5  C   UNL d   1     -41.612-123.570 -49.519  0.00  0.00     0.099 A 
ATOM      6  C   UNL d   1     -41.691-123.500 -48.696  0.00  0.00     0.271 A 
ATOM      7  O   UNL d   1     -43.577-122.387 -48.597  0.00  0.00    -0.245 OA
ATOM      8  O   UNL d   1     -41.130-123.817 -48.192  0.00  0.00    -0.266 OA
ATOM      9  C   UNL d   1     -43.398-122.537 -50.227  0.00  0.00     0.105 C 
ATOM     10  C   UNL d   1     -42.443-123.026 -47.580  0.00  0.00     0.107 C 
ENDROOT
BRANCH   3  11
ATOM     11  N   UNL d   1     -42.088-123.326 -50.848  0.00  0.00    -0.190 NA
ATOM     12  C   UNL d   1     -41.568-122.831 -51.252  0.00  0.00     0.280 C 
ATOM     13  O   UNL d   1     -41.137-122.258 -50.842  0.00  0.00    -0.265 OA
BRANCH  12  14
ATOM     14  C   UNL d   1     -41.479-122.908 -52.068  0.00  0.00     0.058 A 
ATOM     15  C   UNL d   1     -41.565-122.256 -52.538  0.00  0.00     0.006 A 
ATOM     16  C   UNL d   1     -41.479-122.327 -53.344  0.00  0.00     0.012 A 
ATOM     17  C   UNL d   1     -41.305-123.050 -53.694  0.00  0.00     0.058 A 
ATOM     18  C   UNL d   1     -41.218-123.726 -53.191  0.00  0.00     0.012 A 
ATOM     19 CL   UNL d   1     -41.217-123.125 -54.513  0.00  0.00    -0.082 Cl
ATOM     20  C   UNL d   1     -41.304-123.656 -52.386  0.00  0.00     0.006 A 
ENDBRANCH  12  14
ENDBRANCH   3  11
TORSDOF 2
ENDMDL
MODEL 4
REMARK VINA RESULT:      -2.5      2.211      4.277
REMARK  2 active torsions:
REMARK  status: ('A' for Active; 'I' for Inactive)
REMARK    1  A    between atoms: N_7  and  C_3 
REMARK       I    between atoms: C_8  and  N_7 
REMARK    2  A    between atoms: C_10  and  C_8 
ROOT
ATOM      1  C   UNL d   1     -41.704-123.358 -49.685  0.00  0.00     0.343 A 
ATOM      2  N   UNL d   1     -41.683-123.358 -50.503  0.00  0.00    -0.241 N 
ATOM      3  C   UNL d   1     -42.216-122.902 -50.931  0.00  0.00     0.159 A 
ATOM      4  N   UNL d   1     -42.263-122.898 -49.287  0.00  0.00    -0.224 N 
ATOM      5  C   UNL d   1     -42.775-122.442 -50.533  0.00  0.00     0.099 A 
ATOM      6  C   UNL d   1     -42.806-122.434 -49.703  0.00  0.00     0.271 A 
ATOM      7  O   UNL d   1     -41.166-123.817 -49.256  0.00  0.00    -0.245 OA
ATOM      8  O   UNL d   1     -43.360-121.979 -49.309  0.00  0.00    -0.266 OA
ATOM      9  C   UNL d   1     -41.123-123.817 -50.902  0.00  0.00     0.105 C 
ATOM     10  C   UNL d   1     -42.284-122.898 -48.460  0.00  0.00     0.107 C 
ENDROOT
BRANCH   3  11
ATOM     11  N   UNL d   1     -42.196-122.901 -51.759  0.00  0.00    -0.190 NA
ATOM     12  C   UNL d   1     -41.899-122.247 -52.163  0.00  0.00     0.280 C 
ATOM     13  O   UNL d   1     -41.623-121.592 -51.744  0.00  0.00    -0.265 OA
BRANCH  12  14
ATOM     14  C   UNL d   1     -41.880-122.249 -52.987  0.00  0.00     0.058 A 
ATOM     15  C   UNL d   1     -42.570-122.155 -53.399  0.00  0.00     0.006 A 
ATOM     16  C   UNL d   1     -42.556-122.156 -54.212  0.00  0.00     0.012 A 
ATOM     17  C   UNL d   1     -41.853-122.251 -54.629  0.00  0.00     0.058 A 
ATOM     18  C   UNL d   1     -41.138-122.349 -54.187  0.00  0.00     0.012 A 
ATOM     19 CL   UNL d   1     -41.837-122.253 -55.455  0.00  0.00    -0.082 Cl
ATOM     20  C   UNL d   1     -41.150-122.348 -53.374  0.00  0.00     0.006 A 
ENDBRANCH  12  14
ENDBRANCH   3  11
TORSDOF 2
ENDMDL
