MODEL 1
REMARK VINA RESULT:      67.2      0.000      0.000
REMARK  4 active torsions:
REMARK  status: ('A' for Active; 'I' for Inactive)
REMARK       I    between atoms: C_2  and  N_1 
REMARK    1  A    between atoms: C_6  and  C_2 
REMARK       I    between atoms: C_4  and  N_7 
REMARK    2  A    between atoms: C_5  and  C_4 
REMARK       I    between atoms: N_10  and  C_5 
REMARK    3  A    between atoms: N_7  and  C_13 
REMARK    4  A    between atoms: C_19  and  N_10 
ROOT
ATOM      1  N   UNL d   1     -51.867  25.205  33.350  0.00  0.00    -0.273 N 
ATOM      2  C   UNL d   1     -52.341  25.894  33.358  0.00  0.00     0.265 C 
ATOM      3  C   UNL d   1     -51.050  25.260  33.376  0.00  0.00     0.068 A 
ATOM      4  C   UNL d   1     -50.686  26.000  33.411  0.00  0.00     0.037 A 
ATOM      5  C   UNL d   1     -50.590  24.578  33.367  0.00  0.00     0.016 A 
ATOM      6  C   UNL d   1     -49.863  26.055  33.437  0.00  0.00     0.086 A 
ATOM      7  O   UNL d   1     -51.978  26.630  33.393  0.00  0.00    -0.267 OA
ATOM      8  C   UNL d   1     -49.767  24.633  33.393  0.00  0.00     0.003 A 
ATOM      9  C   UNL d   1     -52.231  24.469  33.315  0.00  0.00     0.083 A 
ATOM     10  C   UNL d   1     -49.404  25.370  33.428  0.00  0.00     0.019 A 
ATOM     11  C   UNL d   1     -51.771  23.783  33.306  0.00  0.00     0.019 A 
ATOM     12  C   UNL d   1     -50.953  23.838  33.332  0.00  0.00     0.003 A 
ENDROOT
BRANCH   6  13
ATOM     13  N   UNL d   1     -49.501  26.800  33.472  0.00  0.00    -0.204 NA
ATOM     14  C   UNL d   1     -49.226  27.089  34.194  0.00  0.00     0.337 C 
ATOM     15  O   UNL d   1     -49.312  26.636  34.880  0.00  0.00    -0.260 OA
BRANCH  14  16
ATOM     16  C   UNL d   1     -48.866  27.827  34.234  0.00  0.00     0.337 C 
ATOM     17  N   UNL d   1     -48.700  28.168  34.966  0.00  0.00    -0.204 NA
ATOM     18  O   UNL d   1     -48.671  28.226  33.538  0.00  0.00    -0.260 OA
BRANCH  17  19
ATOM     19  C   UNL d   1     -48.339  28.909  35.003  0.00  0.00     0.085 A 
ATOM     20  C   UNL d   1     -47.689  29.020  35.487  0.00  0.00     0.019 A 
ATOM     21  C   UNL d   1     -47.322  29.767  35.528  0.00  0.00     0.002 A 
ATOM     22  C   UNL d   1     -47.616  30.392  35.077  0.00  0.00     0.000 A 
ATOM     23  C   UNL d   1     -48.278  30.270  34.585  0.00  0.00     0.002 A 
ATOM     24  C   UNL d   1     -48.633  29.534  34.552  0.00  0.00     0.019 A 
ENDBRANCH  17  19
ENDBRANCH  14  16
ENDBRANCH   6  13
BRANCH   2  25
ATOM     25  C   UNL d   1     -53.163  25.835  33.332  0.00  0.00     0.057 A 
ATOM     26  C   UNL d   1     -53.986  25.780  33.306  0.00  0.00     0.005 A 
ATOM     27  C   UNL d   1     -53.624  26.520  33.348  0.00  0.00     0.005 A 
ENDBRANCH   2  25
TORSDOF 4
ENDMDL
MODEL 2
REMARK VINA RESULT:      69.3      0.914      2.008
REMARK  4 active torsions:
REMARK  status: ('A' for Active; 'I' for Inactive)
REMARK       I    between atoms: C_2  and  N_1 
REMARK    1  A    between atoms: C_6  and  C_2 
REMARK       I    between atoms: C_4  and  N_7 
REMARK    2  A    between atoms: C_5  and  C_4 
REMARK       I    between atoms: N_10  and  C_5 
REMARK    3  A    between atoms: N_7  and  C_13 
REMARK    4  A    between atoms: C_19  and  N_10 
ROOT
ATOM      1  N   UNL d   1     -51.739  25.296  33.384  0.00  0.00    -0.273 N 
ATOM      2  C   UNL d   1     -51.043  24.834  33.398  0.00  0.00     0.265 C 
ATOM      3  C   UNL d   1     -51.699  26.114  33.430  0.00  0.00     0.068 A 
ATOM      4  C   UNL d   1     -50.965  26.489  33.491  0.00  0.00     0.037 A 
ATOM      5  C   UNL d   1     -52.387  26.563  33.415  0.00  0.00     0.016 A 
ATOM      6  C   UNL d   1     -50.925  27.311  33.538  0.00  0.00     0.086 A 
ATOM      7  O   UNL d   1     -50.313  25.208  33.459  0.00  0.00    -0.267 OA
ATOM      8  C   UNL d   1     -52.347  27.386  33.462  0.00  0.00     0.003 A 
ATOM      9  C   UNL d   1     -52.468  24.922  33.322  0.00  0.00     0.083 A 
ATOM     10  C   UNL d   1     -51.618  27.759  33.523  0.00  0.00     0.019 A 
ATOM     11  C   UNL d   1     -53.161  25.371  33.308  0.00  0.00     0.019 A 
ATOM     12  C   UNL d   1     -53.121  26.188  33.354  0.00  0.00     0.003 A 
ENDROOT
BRANCH   6  13
ATOM     13  N   UNL d   1     -50.188  27.685  33.599  0.00  0.00    -0.204 NA
ATOM     14  C   UNL d   1     -49.878  27.861  34.343  0.00  0.00     0.337 C 
ATOM     15  O   UNL d   1     -50.302  27.665  35.024  0.00  0.00    -0.260 OA
BRANCH  14  16
ATOM     16  C   UNL d   1     -49.147  28.231  34.409  0.00  0.00     0.337 C 
ATOM     17  N   UNL d   1     -48.957  28.656  35.091  0.00  0.00    -0.204 NA
ATOM     18  O   UNL d   1     -48.602  28.178  33.791  0.00  0.00    -0.260 OA
BRANCH  17  19
ATOM     19  C   UNL d   1     -48.223  29.027  35.154  0.00  0.00     0.085 A 
ATOM     20  C   UNL d   1     -47.600  28.636  35.513  0.00  0.00     0.019 A 
ATOM     21  C   UNL d   1     -46.857  29.007  35.579  0.00  0.00     0.002 A 
ATOM     22  C   UNL d   1     -46.754  29.769  35.281  0.00  0.00     0.000 A 
ATOM     23  C   UNL d   1     -47.393  30.161  34.917  0.00  0.00     0.002 A 
ATOM     24  C   UNL d   1     -48.119  29.789  34.857  0.00  0.00     0.019 A 
ENDBRANCH  17  19
ENDBRANCH  14  16
ENDBRANCH   6  13
BRANCH   2  25
ATOM     25  C   UNL d   1     -51.087  24.012  33.351  0.00  0.00     0.057 A 
ATOM     26  C   UNL d   1     -51.128  23.189  33.306  0.00  0.00     0.005 A 
ATOM     27  C   UNL d   1     -50.429  23.554  33.548  0.00  0.00     0.005 A 
ENDBRANCH   2  25
TORSDOF 4
ENDMDL
