MODEL 1
REMARK VINA RESULT:     -10.2      0.000      0.000
REMARK  1 active torsions:
REMARK  status: ('A' for Active; 'I' for Inactive)
REMARK    1  A    between atoms: C_10  and  C_5 
ROOT
ATOM      1  C   UNL d   1      52.538  33.416  53.579  0.00  0.00     0.118 A 
ATOM      2  C   UNL d   1      52.846  34.083  53.926  0.00  0.00     0.088 A 
ATOM      3  N   UNL d   1      51.861  33.478  53.081  0.00  0.00    -0.219 NA
ATOM      4  C   UNL d   1      52.474  34.808  53.773  0.00  0.00     0.303 A 
ATOM      5  C   UNL d   1      51.513  34.203  52.946  0.00  0.00     0.162 A 
ATOM      6  O   UNL d   1      51.821  34.865  53.293  0.00  0.00    -0.259 OA
ATOM      7  S   UNL d   1      53.007  32.760  53.817  0.00  0.00    -0.068 SA
ATOM      8  C   UNL d   1      53.494  33.852  54.372  0.00  0.00     0.013 A 
ATOM      9  C   UNL d   1      53.582  33.062  54.301  0.00  0.00     0.031 A 
ATOM     10  O   UNL d   1      52.759  35.510  54.109  0.00  0.00    -0.259 OA
ATOM     11  C   UNL d   1      54.008  34.294  54.835  0.00  0.00     0.001 A 
ATOM     12  C   UNL d   1      54.184  32.645  54.680  0.00  0.00     0.006 A 
ATOM     13  C   UNL d   1      54.626  33.877  55.226  0.00  0.00     0.000 A 
ATOM     14  C   UNL d   1      54.717  33.097  55.159  0.00  0.00     0.001 A 
ENDROOT
BRANCH   5  15
ATOM     15  C   UNL d   1      50.838  34.226  52.444  0.00  0.00     0.058 C 
ATOM     16  C   UNL d   1      51.347  34.260  51.794  0.00  0.00     0.008 C 
ATOM     17  C   UNL d   1      50.200  34.251  51.926  0.00  0.00     0.008 C 
ATOM     18  C   UNL d   1      50.323  34.193  53.091  0.00  0.00     0.008 C 
ENDBRANCH   5  15
TORSDOF 1
ENDMDL
MODEL 2
REMARK VINA RESULT:     -10.2      1.924      3.057
REMARK  1 active torsions:
REMARK  status: ('A' for Active; 'I' for Inactive)
REMARK    1  A    between atoms: C_10  and  C_5 
ROOT
ATOM      1  C   UNL d   1      53.348  32.547  54.016  0.00  0.00     0.118 A 
ATOM      2  C   UNL d   1      52.925  32.977  53.472  0.00  0.00     0.088 A 
ATOM      3  N   UNL d   1      53.420  31.713  53.924  0.00  0.00    -0.219 NA
ATOM      4  C   UNL d   1      52.577  32.570  52.839  0.00  0.00     0.303 A 
ATOM      5  C   UNL d   1      53.069  31.335  53.292  0.00  0.00     0.162 A 
ATOM      6  O   UNL d   1      52.649  31.765  52.752  0.00  0.00    -0.259 OA
ATOM      7  S   UNL d   1      53.641  33.080  54.596  0.00  0.00    -0.068 SA
ATOM      8  C   UNL d   1      52.952  33.763  53.705  0.00  0.00     0.013 A 
ATOM      9  C   UNL d   1      53.381  33.814  54.375  0.00  0.00     0.031 A 
ATOM     10  O   UNL d   1      52.138  32.975  52.264  0.00  0.00    -0.259 OA
ATOM     11  C   UNL d   1      52.623  34.432  53.362  0.00  0.00     0.001 A 
ATOM     12  C   UNL d   1      53.520  34.529  54.762  0.00  0.00     0.006 A 
ATOM     13  C   UNL d   1      52.759  35.167  53.750  0.00  0.00     0.000 A 
ATOM     14  C   UNL d   1      53.182  35.223  54.413  0.00  0.00     0.001 A 
ENDROOT
BRANCH   5  15
ATOM     15  C   UNL d   1      53.162  30.500  53.233  0.00  0.00     0.058 C 
ATOM     16  C   UNL d   1      52.348  30.420  53.350  0.00  0.00     0.008 C 
ATOM     17  C   UNL d   1      53.219  29.682  53.180  0.00  0.00     0.008 C 
ATOM     18  C   UNL d   1      53.978  30.575  53.116  0.00  0.00     0.008 C 
ENDBRANCH   5  15
TORSDOF 1
ENDMDL
MODEL 3
REMARK VINA RESULT:      -9.9      1.787      2.821
REMARK  1 active torsions:
REMARK  status: ('A' for Active; 'I' for Inactive)
REMARK    1  A    between atoms: C_10  and  C_5 
ROOT
ATOM      1  C   UNL d   1      52.818  32.853  53.478  0.00  0.00     0.118 A 
ATOM      2  C   UNL d   1      53.417  32.465  53.866  0.00  0.00     0.088 A 
ATOM      3  N   UNL d   1      52.713  33.681  53.594  0.00  0.00    -0.219 NA
ATOM      4  C   UNL d   1      53.907  32.908  54.368  0.00  0.00     0.303 A 
ATOM      5  C   UNL d   1      53.209  34.095  54.093  0.00  0.00     0.162 A 
ATOM      6  O   UNL d   1      53.804  33.707  54.478  0.00  0.00    -0.259 OA
ATOM      7  S   UNL d   1      52.406  32.291  53.010  0.00  0.00    -0.068 SA
ATOM      8  C   UNL d   1      53.382  31.676  53.646  0.00  0.00     0.013 A 
ATOM      9  C   UNL d   1      52.776  31.582  53.136  0.00  0.00     0.031 A 
ATOM     10  O   UNL d   1      54.529  32.546  54.781  0.00  0.00    -0.259 OA
ATOM     11  C   UNL d   1      53.850  31.039  53.869  0.00  0.00     0.001 A 
ATOM     12  C   UNL d   1      52.583  30.853  52.804  0.00  0.00     0.006 A 
ATOM     13  C   UNL d   1      53.660  30.290  53.534  0.00  0.00     0.000 A 
ATOM     14  C   UNL d   1      53.063  30.192  53.030  0.00  0.00     0.001 A 
ENDROOT
BRANCH   5  15
ATOM     15  C   UNL d   1      53.073  34.921  54.185  0.00  0.00     0.058 C 
ATOM     16  C   UNL d   1      53.139  34.821  55.002  0.00  0.00     0.008 C 
ATOM     17  C   UNL d   1      52.944  35.723  54.308  0.00  0.00     0.008 C 
ATOM     18  C   UNL d   1      53.006  35.026  53.367  0.00  0.00     0.008 C 
ENDBRANCH   5  15
TORSDOF 1
ENDMDL
MODEL 4
REMARK VINA RESULT:      -9.0      1.392      3.644
REMARK  1 active torsions:
REMARK  status: ('A' for Active; 'I' for Inactive)
REMARK    1  A    between atoms: C_10  and  C_5 
ROOT
ATOM      1  C   UNL d   1      52.905  34.136  53.921  0.00  0.00     0.118 A 
ATOM      2  C   UNL d   1      52.618  33.421  53.664  0.00  0.00     0.088 A 
ATOM      3  N   UNL d   1      53.644  34.169  54.326  0.00  0.00    -0.219 NA
ATOM      4  C   UNL d   1      53.072  32.743  53.813  0.00  0.00     0.303 A 
ATOM      5  C   UNL d   1      54.072  33.487  54.460  0.00  0.00     0.162 A 
ATOM      6  O   UNL d   1      53.784  32.777  54.203  0.00  0.00    -0.259 OA
ATOM      7  S   UNL d   1      52.352  34.731  53.706  0.00  0.00    -0.068 SA
ATOM      8  C   UNL d   1      51.900  33.563  53.295  0.00  0.00     0.013 A 
ATOM      9  C   UNL d   1      51.750  34.346  53.326  0.00  0.00     0.031 A 
ATOM     10  O   UNL d   1      52.811  31.996  53.565  0.00  0.00    -0.259 OA
ATOM     11  C   UNL d   1      51.373  33.045  52.936  0.00  0.00     0.001 A 
ATOM     12  C   UNL d   1      51.068  34.682  53.004  0.00  0.00     0.006 A 
ATOM     13  C   UNL d   1      50.674  33.379  52.606  0.00  0.00     0.000 A 
ATOM     14  C   UNL d   1      50.521  34.152  52.633  0.00  0.00     0.001 A 
ENDROOT
BRANCH   5  15
ATOM     15  C   UNL d   1      54.805  33.558  54.867  0.00  0.00     0.058 C 
ATOM     16  C   UNL d   1      55.183  33.619  54.135  0.00  0.00     0.008 C 
ATOM     17  C   UNL d   1      55.537  33.630  55.234  0.00  0.00     0.008 C 
ATOM     18  C   UNL d   1      54.431  33.498  55.603  0.00  0.00     0.008 C 
ENDBRANCH   5  15
TORSDOF 1
ENDMDL
