MODEL 1
REMARK VINA RESULT:      28.4      0.000      0.000
REMARK  4 active torsions:
REMARK  status: ('A' for Active; 'I' for Inactive)
REMARK    1  A    between atoms: N_2  and  S_1 
REMARK    2  A    between atoms: C_3  and  S_1 
REMARK       I    between atoms: C_5  and  N_4 
REMARK    3  A    between atoms: O_17  and  C_5 
REMARK    4  A    between atoms: C_18  and  O_17 
ROOT
ATOM      1  N   UNL d   1     -54.719-101.806 -41.777  0.00  0.00    -0.226 N 
ATOM      2  N   UNL d   1     -54.715-101.972 -40.116  0.00  0.00    -0.248 N 
ATOM      3  C   UNL d   1     -54.714-102.039 -39.294  0.00  0.00     0.378 C 
ATOM      4  C   UNL d   1     -54.716-101.138 -41.284  0.00  0.00     0.111 A 
ATOM      5  C   UNL d   1     -54.720-102.563 -41.426  0.00  0.00     0.111 A 
ATOM      6  C   UNL d   1     -54.718-102.645 -40.605  0.00  0.00     0.105 A 
ATOM      7  C   UNL d   1     -54.714-101.220 -40.463  0.00  0.00     0.105 A 
ATOM      8  O   UNL d   1     -54.711-101.364 -38.819  0.00  0.00    -0.237 OA
ENDROOT
BRANCH   1   9
ATOM      9  S   UNL d   1     -54.720-101.724 -42.597  0.00  0.00     0.277 S 
ATOM     10  O   UNL d   1     -54.729-102.545 -42.680  0.00  0.00    -0.199 OA
ATOM     11  O   UNL d   1     -54.711-100.888 -42.514  0.00  0.00    -0.199 OA
BRANCH   9  12
ATOM     12  C   UNL d   1     -54.722-101.650 -43.408  0.00  0.00     0.133 A 
ATOM     13  S   UNL d   1     -54.722-100.959 -43.791  0.00  0.00    -0.074 SA
ATOM     14  C   UNL d   1     -54.724-101.115 -44.610  0.00  0.00     0.036 A 
ATOM     15  C   UNL d   1     -54.725-101.946 -44.708  0.00  0.00     0.008 A 
ATOM     16  C   UNL d   1     -54.724-102.276 -43.977  0.00  0.00     0.020 A 
ENDBRANCH   9  12
ENDBRANCH   1   9
BRANCH   3  17
ATOM     17  O   UNL d   1     -54.715-102.786 -38.961  0.00  0.00    -0.257 OA
BRANCH  17  18
ATOM     18  C   UNL d   1     -54.902-102.878 -38.163  0.00  0.00     0.128 C 
ATOM     19  C   UNL d   1     -55.659-102.746 -37.891  0.00  0.00     0.029 C 
ENDBRANCH  17  18
ENDBRANCH   3  17
TORSDOF 4
ENDMDL
