MODEL 1
REMARK VINA RESULT:      -6.1      0.000      0.000
REMARK  4 active torsions:
REMARK  status: ('A' for Active; 'I' for Inactive)
REMARK    1  A    between atoms: N_8  and  C_1 
REMARK    2  A    between atoms: O_11  and  C_2 
REMARK       I    between atoms: C_12  and  N_8 
REMARK    3  A    between atoms: C_16  and  O_11 
REMARK    4  A    between atoms: O_22  and  C_17 
ROOT
ATOM      1  C   UNL d   1     -41.442-122.352 -52.307  0.00  0.00     0.272 A 
ATOM      2  C   UNL d   1     -41.368-122.301 -51.539  0.00  0.00     0.284 A 
ATOM      3  C   UNL d   1     -41.629-122.359 -53.904  0.00  0.00     0.207 A 
ATOM      4  C   UNL d   1     -41.767-121.719 -53.193  0.00  0.00     0.220 A 
ATOM      5  O   UNL d   1     -41.229-122.945 -52.252  0.00  0.00    -0.325 OA
ATOM      6  C   UNL d   1     -41.543-122.326 -53.085  0.00  0.00     0.182 A 
ATOM      7  O   UNL d   1     -41.859-121.903 -54.513  0.00  0.00    -0.327 OA
ATOM      8  C   UNL d   1     -41.762-122.348 -54.998  0.00  0.00     0.188 A 
ATOM      9  O   UNL d   1     -41.566-122.705 -54.393  0.00  0.00    -0.332 OA
ATOM     10  C   UNL d   1     -41.454-122.749 -53.573  0.00  0.00     0.177 A 
ATOM     11  O   UNL d   1     -41.819-121.787 -53.835  0.00  0.00    -0.290 OA
ATOM     12  C   UNL d   1     -41.992-121.853 -55.483  0.00  0.00     0.061 C 
ATOM     13  C   UNL d   1     -41.662-122.823 -55.546  0.00  0.00     0.061 C 
ENDROOT
BRANCH   2  14
ATOM     14  O   UNL d   1     -41.137-122.758 -50.927  0.00  0.00    -0.303 OA
BRANCH  14  15
ATOM     15  C   UNL d   1     -41.703-123.026 -50.375  0.00  0.00     0.097 A 
ATOM     16  C   UNL d   1     -41.664-122.760 -49.597  0.00  0.00     0.026 A 
ATOM     17  C   UNL d   1     -42.226-123.023 -49.041  0.00  0.00     0.026 A 
ATOM     18  C   UNL d   1     -42.822-123.554 -49.278  0.00  0.00     0.094 A 
ATOM     19  C   UNL d   1     -42.854-123.817 -50.065  0.00  0.00     0.026 A 
ATOM     20  C   UNL d   1     -42.292-123.553 -50.618  0.00  0.00     0.026 A 
BRANCH  18  21
ATOM     21  O   UNL d   1     -43.383-123.817 -48.722  0.00  0.00    -0.328 OA
ATOM     22  C   UNL d   1     -43.224-123.763 -47.914  0.00  0.00     0.181 C 
ENDBRANCH  18  21
ENDBRANCH  14  15
ENDBRANCH   2  14
BRANCH   1  23
ATOM     23  N   UNL d   1     -41.532-121.927 -51.818  0.00  0.00    -0.380 NA
ATOM     24  C   UNL d   1     -41.620-121.503 -51.331  0.00  0.00     0.324 C 
ATOM     25  O   UNL d   1     -42.206-121.449 -51.047  0.00  0.00    -0.251 OA
ATOM     26  C   UNL d   1     -41.123-121.127 -51.123  0.00  0.00     0.082 C 
ENDBRANCH   1  23
TORSDOF 4
ENDMDL
MODEL 2
REMARK VINA RESULT:      -4.6      1.093      4.653
REMARK  4 active torsions:
REMARK  status: ('A' for Active; 'I' for Inactive)
REMARK    1  A    between atoms: N_8  and  C_1 
REMARK    2  A    between atoms: O_11  and  C_2 
REMARK       I    between atoms: C_12  and  N_8 
REMARK    3  A    between atoms: C_16  and  O_11 
REMARK    4  A    between atoms: O_22  and  C_17 
ROOT
ATOM      1  C   UNL d   1     -41.830-122.481 -50.153  0.00  0.00     0.272 A 
ATOM      2  C   UNL d   1     -41.801-122.178 -50.865  0.00  0.00     0.284 A 
ATOM      3  C   UNL d   1     -41.994-123.086 -48.673  0.00  0.00     0.207 A 
ATOM      4  C   UNL d   1     -42.577-122.663 -49.317  0.00  0.00     0.220 A 
ATOM      5  O   UNL d   1     -41.213-122.603 -50.219  0.00  0.00    -0.325 OA
ATOM      6  C   UNL d   1     -41.940-122.769 -49.432  0.00  0.00     0.182 A 
ATOM      7  O   UNL d   1     -42.529-123.206 -48.097  0.00  0.00    -0.327 OA
ATOM      8  C   UNL d   1     -42.121-123.496 -47.658  0.00  0.00     0.188 A 
ATOM      9  O   UNL d   1     -41.689-123.354 -48.228  0.00  0.00    -0.332 OA
ATOM     10  C   UNL d   1     -41.556-123.055 -48.989  0.00  0.00     0.177 A 
ATOM     11  O   UNL d   1     -42.576-122.922 -48.724  0.00  0.00    -0.290 OA
ATOM     12  C   UNL d   1     -42.683-123.561 -47.197  0.00  0.00     0.061 C 
ATOM     13  C   UNL d   1     -41.691-123.817 -47.161  0.00  0.00     0.061 C 
ENDROOT
BRANCH   2  14
ATOM     14  O   UNL d   1     -41.264-122.057 -51.443  0.00  0.00    -0.303 OA
BRANCH  14  15
ATOM     15  C   UNL d   1     -41.311-122.501 -52.149  0.00  0.00     0.097 A 
ATOM     16  C   UNL d   1     -41.497-122.118 -52.854  0.00  0.00     0.026 A 
ATOM     17  C   UNL d   1     -41.545-122.554 -53.561  0.00  0.00     0.026 A 
ATOM     18  C   UNL d   1     -41.405-123.375 -53.549  0.00  0.00     0.094 A 
ATOM     19  C   UNL d   1     -41.219-123.754 -52.834  0.00  0.00     0.026 A 
ATOM     20  C   UNL d   1     -41.171-123.315 -52.128  0.00  0.00     0.026 A 
BRANCH  18  21
ATOM     21  O   UNL d   1     -41.454-123.811 -54.256  0.00  0.00    -0.328 OA
ATOM     22  C   UNL d   1     -41.359-123.433 -54.985  0.00  0.00     0.181 C 
ENDBRANCH  18  21
ENDBRANCH  14  15
ENDBRANCH   2  14
BRANCH   1  23
ATOM     23  N   UNL d   1     -42.217-122.194 -50.597  0.00  0.00    -0.380 NA
ATOM     24  C   UNL d   1     -42.600-121.907 -51.038  0.00  0.00     0.324 C 
ATOM     25  O   UNL d   1     -43.095-122.239 -51.306  0.00  0.00    -0.251 OA
ATOM     26  C   UNL d   1     -42.494-121.284 -51.217  0.00  0.00     0.082 C 
ENDBRANCH   1  23
TORSDOF 4
ENDMDL
MODEL 3
REMARK VINA RESULT:      -4.1      0.947      4.585
REMARK  4 active torsions:
REMARK  status: ('A' for Active; 'I' for Inactive)
REMARK    1  A    between atoms: N_8  and  C_1 
REMARK    2  A    between atoms: O_11  and  C_2 
REMARK       I    between atoms: C_12  and  N_8 
REMARK    3  A    between atoms: C_16  and  O_11 
REMARK    4  A    between atoms: O_22  and  C_17 
ROOT
ATOM      1  C   UNL d   1     -41.731-122.867 -51.364  0.00  0.00     0.272 A 
ATOM      2  C   UNL d   1     -41.493-122.852 -52.100  0.00  0.00     0.284 A 
ATOM      3  C   UNL d   1     -42.258-122.995 -49.851  0.00  0.00     0.207 A 
ATOM      4  C   UNL d   1     -42.242-123.566 -50.630  0.00  0.00     0.220 A 
ATOM      5  O   UNL d   1     -41.508-122.276 -51.319  0.00  0.00    -0.325 OA
ATOM      6  C   UNL d   1     -41.998-122.958 -50.632  0.00  0.00     0.182 A 
ATOM      7  O   UNL d   1     -42.617-123.497 -49.349  0.00  0.00    -0.327 OA
ATOM      8  C   UNL d   1     -42.625-123.099 -48.817  0.00  0.00     0.188 A 
ATOM      9  O   UNL d   1     -42.301-122.695 -49.331  0.00  0.00    -0.332 OA
ATOM     10  C   UNL d   1     -42.014-122.582 -50.100  0.00  0.00     0.177 A 
ATOM     11  O   UNL d   1     -42.432-123.554 -50.011  0.00  0.00    -0.290 OA
ATOM     12  C   UNL d   1     -42.956-123.628 -48.439  0.00  0.00     0.061 C 
ATOM     13  C   UNL d   1     -42.643-122.677 -48.219  0.00  0.00     0.061 C 
ENDROOT
BRANCH   2  14
ATOM     14  O   UNL d   1     -41.133-122.349 -52.604  0.00  0.00    -0.303 OA
BRANCH  14  15
ATOM     15  C   UNL d   1     -41.509-122.143 -53.321  0.00  0.00     0.097 A 
ATOM     16  C   UNL d   1     -42.080-121.550 -53.320  0.00  0.00     0.026 A 
ATOM     17  C   UNL d   1     -42.458-121.340 -54.031  0.00  0.00     0.026 A 
ATOM     18  C   UNL d   1     -42.256-121.732 -54.737  0.00  0.00     0.094 A 
ATOM     19  C   UNL d   1     -41.680-122.329 -54.729  0.00  0.00     0.026 A 
ATOM     20  C   UNL d   1     -41.302-122.537 -54.017  0.00  0.00     0.026 A 
BRANCH  18  21
ATOM     21  O   UNL d   1     -42.635-121.522 -55.448  0.00  0.00    -0.328 OA
ATOM     22  C   UNL d   1     -42.619-122.035 -56.095  0.00  0.00     0.181 C 
ENDBRANCH  18  21
ENDBRANCH  14  15
ENDBRANCH   2  14
BRANCH   1  23
ATOM     23  N   UNL d   1     -41.715-123.245 -51.898  0.00  0.00    -0.380 NA
ATOM     24  C   UNL d   1     -41.698-123.622 -52.429  0.00  0.00     0.324 C 
ATOM     25  O   UNL d   1     -42.255-123.810 -52.714  0.00  0.00    -0.251 OA
ATOM     26  C   UNL d   1     -41.123-123.815 -52.682  0.00  0.00     0.082 C 
ENDBRANCH   1  23
TORSDOF 4
ENDMDL
