MODEL 1
REMARK VINA RESULT:      -5.2      0.000      0.000
REMARK  0 active torsions:
REMARK  status: ('A' for Active; 'I' for Inactive)
ROOT
ATOM      1  C   UNL d   1      57.269  -0.495  31.164  0.00  0.00     0.311 A 
ATOM      2  N   UNL d   1      56.899  -1.152  31.513  0.00  0.00    -0.202 NA
ATOM      3  S   UNL d   1      57.059   0.178  31.587  0.00  0.00    -0.024 SA
ATOM      4  C   UNL d   1      56.457  -0.874  32.160  0.00  0.00     0.091 A 
ATOM      5  C   UNL d   1      56.555  -0.055  32.206  0.00  0.00     0.052 A 
ATOM      6  O   UNL d   1      57.767  -0.518  30.499  0.00  0.00    -0.258 OA
ATOM      7  C   UNL d   1      55.980  -1.264  32.709  0.00  0.00     0.020 A 
ATOM      8  C   UNL d   1      56.177   0.374  32.800  0.00  0.00     0.008 A 
ATOM      9  C   UNL d   1      55.699  -0.016  33.350  0.00  0.00     0.001 A 
ATOM     10  C   UNL d   1      55.601  -0.835  33.304  0.00  0.00     0.002 A 
ENDROOT
TORSDOF 0
ENDMDL
MODEL 2
REMARK VINA RESULT:      -5.0      2.011      2.455
REMARK  0 active torsions:
REMARK  status: ('A' for Active; 'I' for Inactive)
ROOT
ATOM      1  C   UNL d   1      55.154   0.261  33.811  0.00  0.00     0.311 A 
ATOM      2  N   UNL d   1      55.178  -0.536  33.578  0.00  0.00    -0.202 NA
ATOM      3  S   UNL d   1      55.705   0.680  33.368  0.00  0.00    -0.024 SA
ATOM      4  C   UNL d   1      55.754  -0.603  32.981  0.00  0.00     0.091 A 
ATOM      5  C   UNL d   1      56.079   0.145  32.852  0.00  0.00     0.052 A 
ATOM      6  O   UNL d   1      54.655   0.578  34.396  0.00  0.00    -0.258 OA
ATOM      7  C   UNL d   1      56.021  -1.250  32.544  0.00  0.00     0.020 A 
ATOM      8  C   UNL d   1      56.670   0.247  32.286  0.00  0.00     0.008 A 
ATOM      9  C   UNL d   1      56.937  -0.400  31.847  0.00  0.00     0.001 A 
ATOM     10  C   UNL d   1      56.612  -1.149  31.976  0.00  0.00     0.002 A 
ENDROOT
TORSDOF 0
ENDMDL
MODEL 3
REMARK VINA RESULT:      -4.7      0.779      1.172
REMARK  0 active torsions:
REMARK  status: ('A' for Active; 'I' for Inactive)
ROOT
ATOM      1  C   UNL d   1      57.193   0.128  31.411  0.00  0.00     0.311 A 
ATOM      2  N   UNL d   1      56.734   0.645  31.872  0.00  0.00    -0.202 NA
ATOM      3  S   UNL d   1      57.025  -0.644  31.640  0.00  0.00    -0.024 SA
ATOM      4  C   UNL d   1      56.280   0.179  32.391  0.00  0.00     0.091 A 
ATOM      5  C   UNL d   1      56.459  -0.614  32.248  0.00  0.00     0.052 A 
ATOM      6  O   UNL d   1      57.730   0.356  30.819  0.00  0.00    -0.258 OA
ATOM      7  C   UNL d   1      55.729   0.380  32.971  0.00  0.00     0.020 A 
ATOM      8  C   UNL d   1      56.087  -1.207  32.685  0.00  0.00     0.008 A 
ATOM      9  C   UNL d   1      55.535  -1.006  33.266  0.00  0.00     0.001 A 
ATOM     10  C   UNL d   1      55.356  -0.212  33.409  0.00  0.00     0.002 A 
ENDROOT
TORSDOF 0
ENDMDL
MODEL 4
REMARK VINA RESULT:      -4.5      1.009      1.423
REMARK  0 active torsions:
REMARK  status: ('A' for Active; 'I' for Inactive)
ROOT
ATOM      1  C   UNL d   1      56.627  -1.021  31.878  0.00  0.00     0.311 A 
ATOM      2  N   UNL d   1      56.526  -0.197  31.915  0.00  0.00    -0.202 NA
ATOM      3  S   UNL d   1      56.270  -1.357  32.539  0.00  0.00    -0.024 SA
ATOM      4  C   UNL d   1      56.100  -0.029  32.610  0.00  0.00     0.091 A 
ATOM      5  C   UNL d   1      55.942  -0.743  32.994  0.00  0.00     0.052 A 
ATOM      6  O   UNL d   1      57.023  -1.433  31.275  0.00  0.00    -0.258 OA
ATOM      7  C   UNL d   1      55.839   0.682  32.937  0.00  0.00     0.020 A 
ATOM      8  C   UNL d   1      55.523  -0.746  33.704  0.00  0.00     0.008 A 
ATOM      9  C   UNL d   1      55.262  -0.035  34.032  0.00  0.00     0.001 A 
ATOM     10  C   UNL d   1      55.419   0.679  33.648  0.00  0.00     0.002 A 
ENDROOT
TORSDOF 0
ENDMDL
MODEL 5
REMARK VINA RESULT:      -4.5      1.483      2.131
REMARK  0 active torsions:
REMARK  status: ('A' for Active; 'I' for Inactive)
ROOT
ATOM      1  C   UNL d   1      55.981  -1.286  32.833  0.00  0.00     0.311 A 
ATOM      2  N   UNL d   1      56.473  -1.529  32.209  0.00  0.00    -0.202 NA
ATOM      3  S   UNL d   1      55.973  -0.464  32.854  0.00  0.00    -0.024 SA
ATOM      4  C   UNL d   1      56.771  -0.843  31.844  0.00  0.00     0.091 A 
ATOM      5  C   UNL d   1      56.463  -0.187  32.241  0.00  0.00     0.052 A 
ATOM      6  O   UNL d   1      55.567  -1.791  33.347  0.00  0.00    -0.258 OA
ATOM      7  C   UNL d   1      57.280  -0.736  31.204  0.00  0.00     0.020 A 
ATOM      8  C   UNL d   1      56.664   0.575  31.998  0.00  0.00     0.008 A 
ATOM      9  C   UNL d   1      57.174   0.682  31.358  0.00  0.00     0.001 A 
ATOM     10  C   UNL d   1      57.482   0.026  30.961  0.00  0.00     0.002 A 
ENDROOT
TORSDOF 0
ENDMDL
MODEL 6
REMARK VINA RESULT:      -3.2      1.386      2.565
REMARK  0 active torsions:
REMARK  status: ('A' for Active; 'I' for Inactive)
ROOT
ATOM      1  C   UNL d   1      56.663  -0.877  31.875  0.00  0.00     0.311 A 
ATOM      2  N   UNL d   1      57.058  -1.262  31.253  0.00  0.00    -0.202 NA
ATOM      3  S   UNL d   1      56.907  -0.092  31.892  0.00  0.00    -0.024 SA
ATOM      4  C   UNL d   1      57.550  -0.701  30.885  0.00  0.00     0.091 A 
ATOM      5  C   UNL d   1      57.458   0.019  31.278  0.00  0.00     0.052 A 
ATOM      6  O   UNL d   1      56.115  -1.229  32.391  0.00  0.00    -0.258 OA
ATOM      7  C   UNL d   1      58.068  -0.759  30.245  0.00  0.00     0.020 A 
ATOM      8  C   UNL d   1      57.882   0.682  31.031  0.00  0.00     0.008 A 
ATOM      9  C   UNL d   1      58.400   0.625  30.391  0.00  0.00     0.001 A 
ATOM     10  C   UNL d   1      58.493  -0.096  29.998  0.00  0.00     0.002 A 
ENDROOT
TORSDOF 0
ENDMDL
MODEL 7
REMARK VINA RESULT:      -3.1      8.857      9.223
REMARK  0 active torsions:
REMARK  status: ('A' for Active; 'I' for Inactive)
ROOT
ATOM      1  C   UNL d   1      60.416  -9.118  34.484  0.00  0.00     0.311 A 
ATOM      2  N   UNL d   1      59.666  -8.853  34.721  0.00  0.00    -0.202 NA
ATOM      3  S   UNL d   1      60.986  -8.682  34.887  0.00  0.00    -0.024 SA
ATOM      4  C   UNL d   1      59.780  -8.246  35.279  0.00  0.00     0.091 A 
ATOM      5  C   UNL d   1      60.593  -8.140  35.380  0.00  0.00     0.052 A 
ATOM      6  O   UNL d   1      60.564  -9.722  33.932  0.00  0.00    -0.258 OA
ATOM      7  C   UNL d   1      59.247  -7.780  35.702  0.00  0.00     0.020 A 
ATOM      8  C   UNL d   1      60.873  -7.569  35.905  0.00  0.00     0.008 A 
ATOM      9  C   UNL d   1      60.340  -7.102  36.329  0.00  0.00     0.001 A 
ATOM     10  C   UNL d   1      59.527  -7.208  36.227  0.00  0.00     0.002 A 
ENDROOT
TORSDOF 0
ENDMDL
MODEL 8
REMARK VINA RESULT:      -2.8      1.229      1.761
REMARK  0 active torsions:
REMARK  status: ('A' for Active; 'I' for Inactive)
ROOT
ATOM      1  C   UNL d   1      58.009  -0.205  30.029  0.00  0.00     0.311 A 
ATOM      2  N   UNL d   1      57.700   0.480  30.385  0.00  0.00    -0.202 NA
ATOM      3  S   UNL d   1      57.813  -0.853  30.497  0.00  0.00    -0.024 SA
ATOM      4  C   UNL d   1      57.310   0.244  31.082  0.00  0.00     0.091 A 
ATOM      5  C   UNL d   1      57.380  -0.576  31.150  0.00  0.00     0.052 A 
ATOM      6  O   UNL d   1      58.441  -0.227  29.320  0.00  0.00    -0.258 OA
ATOM      7  C   UNL d   1      56.904   0.673  31.657  0.00  0.00     0.020 A 
ATOM      8  C   UNL d   1      57.043  -0.967  31.794  0.00  0.00     0.008 A 
ATOM      9  C   UNL d   1      56.636  -0.538  32.370  0.00  0.00     0.001 A 
ATOM     10  C   UNL d   1      56.566   0.283  32.301  0.00  0.00     0.002 A 
ENDROOT
TORSDOF 0
ENDMDL
MODEL 9
REMARK VINA RESULT:      -2.6      9.407      9.767
REMARK  0 active torsions:
REMARK  status: ('A' for Active; 'I' for Inactive)
ROOT
ATOM      1  C   UNL d   1      59.885  -8.477  35.469  0.00  0.00     0.311 A 
ATOM      2  N   UNL d   1      60.642  -8.497  35.125  0.00  0.00    -0.202 NA
ATOM      3  S   UNL d   1      59.353  -8.828  34.948  0.00  0.00    -0.024 SA
ATOM      4  C   UNL d   1      60.569  -8.866  34.383  0.00  0.00     0.091 A 
ATOM      5  C   UNL d   1      59.776  -9.069  34.274  0.00  0.00     0.052 A 
ATOM      6  O   UNL d   1      59.701  -8.157  36.213  0.00  0.00    -0.258 OA
ATOM      7  C   UNL d   1      61.124  -9.039  33.798  0.00  0.00     0.020 A 
ATOM      8  C   UNL d   1      59.538  -9.447  33.580  0.00  0.00     0.008 A 
ATOM      9  C   UNL d   1      60.094  -9.620  32.994  0.00  0.00     0.001 A 
ATOM     10  C   UNL d   1      60.887  -9.416  33.103  0.00  0.00     0.002 A 
ENDROOT
TORSDOF 0
ENDMDL
