MODEL 1
REMARK VINA RESULT:      -7.5      0.000      0.000
REMARK  3 active torsions:
REMARK  status: ('A' for Active; 'I' for Inactive)
REMARK    1  A    between atoms: N_2  and  S_1 
REMARK    2  A    between atoms: C_3  and  S_1 
REMARK    3  A    between atoms: C_11  and  C_6 
ROOT
ATOM      1  C   UNL d   1     -48.117  14.056  22.840  0.00  0.00     0.104 A 
ATOM      2  C   UNL d   1     -46.636  13.321  22.686  0.00  0.00     0.000 A 
ATOM      3  C   UNL d   1     -47.425  14.499  22.905  0.00  0.00     0.013 A 
ATOM      4  C   UNL d   1     -48.068  13.246  22.698  0.00  0.00     0.013 A 
ATOM      5  C   UNL d   1     -47.331  12.880  22.621  0.00  0.00     0.001 A 
ATOM      6  C   UNL d   1     -46.687  14.133  22.828  0.00  0.00     0.001 A 
ENDROOT
BRANCH   1   7
ATOM      7  S   UNL d   1     -48.851  14.420  22.917  0.00  0.00     0.271 S 
ATOM      8  O   UNL d   1     -48.582  15.056  22.469  0.00  0.00    -0.200 OA
ATOM      9  O   UNL d   1     -49.123  13.777  23.370  0.00  0.00    -0.200 OA
BRANCH   7  10
ATOM     10  N   UNL d   1     -49.587  14.785  22.993  0.00  0.00    -0.229 N 
ATOM     11  C   UNL d   1     -49.696  15.362  23.551  0.00  0.00     0.092 A 
ATOM     12  C   UNL d   1     -50.447  15.735  23.629  0.00  0.00     0.020 A 
ATOM     13  C   UNL d   1     -51.064  15.519  23.147  0.00  0.00     0.003 A 
ATOM     14  C   UNL d   1     -50.946  14.928  22.579  0.00  0.00     0.020 A 
ATOM     15  C   UNL d   1     -50.229  14.572  22.504  0.00  0.00     0.092 A 
ENDBRANCH   7  10
ENDBRANCH   1   7
BRANCH   2  16
ATOM     16  C   UNL d   1     -45.905  12.958  22.610  0.00  0.00     0.000 C 
ATOM     17  C   UNL d   1     -45.769  12.233  22.969  0.00  0.00     0.000 C 
ATOM     18  C   UNL d   1     -45.304  13.319  22.174  0.00  0.00     0.000 C 
ENDBRANCH   2  16
TORSDOF 3
ENDMDL
MODEL 2
REMARK VINA RESULT:      -7.1      1.200      4.035
REMARK  3 active torsions:
REMARK  status: ('A' for Active; 'I' for Inactive)
REMARK    1  A    between atoms: N_2  and  S_1 
REMARK    2  A    between atoms: C_3  and  S_1 
REMARK    3  A    between atoms: C_11  and  C_6 
ROOT
ATOM      1  C   UNL d   1     -48.208  14.115  22.871  0.00  0.00     0.104 A 
ATOM      2  C   UNL d   1     -49.661  14.904  23.021  0.00  0.00     0.000 A 
ATOM      3  C   UNL d   1     -48.847  13.743  23.234  0.00  0.00     0.013 A 
ATOM      4  C   UNL d   1     -48.295  14.882  22.582  0.00  0.00     0.013 A 
ATOM      5  C   UNL d   1     -49.019  15.276  22.657  0.00  0.00     0.001 A 
ATOM      6  C   UNL d   1     -49.571  14.136  23.309  0.00  0.00     0.001 A 
ENDROOT
BRANCH   1   7
ATOM      7  S   UNL d   1     -47.488  13.724  22.796  0.00  0.00     0.271 S 
ATOM      8  O   UNL d   1     -47.138  14.272  23.299  0.00  0.00    -0.200 OA
ATOM      9  O   UNL d   1     -47.842  13.168  22.287  0.00  0.00    -0.200 OA
BRANCH   7  10
ATOM     10  N   UNL d   1     -46.766  13.332  22.722  0.00  0.00    -0.229 N 
ATOM     11  C   UNL d   1     -46.194  13.629  22.233  0.00  0.00     0.092 A 
ATOM     12  C   UNL d   1     -45.456  13.228  22.157  0.00  0.00     0.020 A 
ATOM     13  C   UNL d   1     -45.316  12.544  22.572  0.00  0.00     0.003 A 
ATOM     14  C   UNL d   1     -45.906  12.246  23.071  0.00  0.00     0.020 A 
ATOM     15  C   UNL d   1     -46.610  12.628  23.143  0.00  0.00     0.092 A 
ENDBRANCH   7  10
ENDBRANCH   1   7
BRANCH   2  16
ATOM     16  C   UNL d   1     -50.378  15.294  23.095  0.00  0.00     0.000 C 
ATOM     17  C   UNL d   1     -51.007  15.089  22.608  0.00  0.00     0.000 C 
ATOM     18  C   UNL d   1     -50.472  15.892  23.656  0.00  0.00     0.000 C 
ENDBRANCH   2  16
TORSDOF 3
ENDMDL
MODEL 3
REMARK VINA RESULT:      -6.6      1.644      2.071
REMARK  3 active torsions:
REMARK  status: ('A' for Active; 'I' for Inactive)
REMARK    1  A    between atoms: N_2  and  S_1 
REMARK    2  A    between atoms: C_3  and  S_1 
REMARK    3  A    between atoms: C_11  and  C_6 
ROOT
ATOM      1  C   UNL d   1     -47.889  12.804  22.891  0.00  0.00     0.104 A 
ATOM      2  C   UNL d   1     -46.300  13.169  22.580  0.00  0.00     0.000 A 
ATOM      3  C   UNL d   1     -47.689  13.259  22.233  0.00  0.00     0.013 A 
ATOM      4  C   UNL d   1     -47.295  12.532  23.393  0.00  0.00     0.013 A 
ATOM      5  C   UNL d   1     -46.503  12.714  23.238  0.00  0.00     0.001 A 
ATOM      6  C   UNL d   1     -46.897  13.441  22.078  0.00  0.00     0.001 A 
ENDROOT
BRANCH   1   7
ATOM      7  S   UNL d   1     -48.677  12.623  23.045  0.00  0.00     0.271 S 
ATOM      8  O   UNL d   1     -48.776  13.357  23.401  0.00  0.00    -0.200 OA
ATOM      9  O   UNL d   1     -48.576  11.879  22.684  0.00  0.00    -0.200 OA
BRANCH   7  10
ATOM     10  N   UNL d   1     -49.467  12.441  23.199  0.00  0.00    -0.229 N 
ATOM     11  C   UNL d   1     -50.047  12.973  23.013  0.00  0.00     0.092 A 
ATOM     12  C   UNL d   1     -50.854  12.787  23.171  0.00  0.00     0.020 A 
ATOM     13  C   UNL d   1     -51.053  12.076  23.510  0.00  0.00     0.003 A 
ATOM     14  C   UNL d   1     -50.453  11.536  23.698  0.00  0.00     0.020 A 
ATOM     15  C   UNL d   1     -49.683  11.713  23.547  0.00  0.00     0.092 A 
ENDBRANCH   7  10
ENDBRANCH   1   7
BRANCH   2  16
ATOM     16  C   UNL d   1     -45.515  13.350  22.426  0.00  0.00     0.000 C 
ATOM     17  C   UNL d   1     -45.039  12.806  22.036  0.00  0.00     0.000 C 
ATOM     18  C   UNL d   1     -45.200  14.075  22.662  0.00  0.00     0.000 C 
ENDBRANCH   2  16
TORSDOF 3
ENDMDL
MODEL 4
REMARK VINA RESULT:      -6.0      8.405     10.521
REMARK  3 active torsions:
REMARK  status: ('A' for Active; 'I' for Inactive)
REMARK    1  A    between atoms: N_2  and  S_1 
REMARK    2  A    between atoms: C_3  and  S_1 
REMARK    3  A    between atoms: C_11  and  C_6 
ROOT
ATOM      1  C   UNL d   1     -39.650  14.204  18.562  0.00  0.00     0.104 A 
ATOM      2  C   UNL d   1     -40.506  14.559  19.939  0.00  0.00     0.000 A 
ATOM      3  C   UNL d   1     -40.474  14.230  18.543  0.00  0.00     0.013 A 
ATOM      4  C   UNL d   1     -39.254  14.356  19.268  0.00  0.00     0.013 A 
ATOM      5  C   UNL d   1     -39.681  14.532  19.955  0.00  0.00     0.001 A 
ATOM      6  C   UNL d   1     -40.900  14.406  19.230  0.00  0.00     0.001 A 
ENDROOT
BRANCH   1   7
ATOM      7  S   UNL d   1     -39.226  14.028  17.879  0.00  0.00     0.271 S 
ATOM      8  O   UNL d   1     -38.768  14.702  17.989  0.00  0.00    -0.200 OA
ATOM      9  O   UNL d   1     -39.689  13.345  17.767  0.00  0.00    -0.200 OA
BRANCH   7  10
ATOM     10  N   UNL d   1     -38.800  13.852  17.194  0.00  0.00    -0.229 N 
ATOM     11  C   UNL d   1     -38.811  14.365  16.568  0.00  0.00     0.092 A 
ATOM     12  C   UNL d   1     -38.377  14.184  15.869  0.00  0.00     0.020 A 
ATOM     13  C   UNL d   1     -37.946  13.498  15.819  0.00  0.00     0.003 A 
ATOM     14  C   UNL d   1     -37.940  12.977  16.463  0.00  0.00     0.020 A 
ATOM     15  C   UNL d   1     -38.354  13.149  17.131  0.00  0.00     0.092 A 
ENDBRANCH   7  10
ENDBRANCH   1   7
BRANCH   2  16
ATOM     16  C   UNL d   1     -40.929  14.734  20.619  0.00  0.00     0.000 C 
ATOM     17  C   UNL d   1     -41.058  15.517  20.830  0.00  0.00     0.000 C 
ATOM     18  C   UNL d   1     -41.225  14.128  21.094  0.00  0.00     0.000 C 
ENDBRANCH   2  16
TORSDOF 3
ENDMDL
MODEL 5
REMARK VINA RESULT:      -5.7      8.657      9.322
REMARK  3 active torsions:
REMARK  status: ('A' for Active; 'I' for Inactive)
REMARK    1  A    between atoms: N_2  and  S_1 
REMARK    2  A    between atoms: C_3  and  S_1 
REMARK    3  A    between atoms: C_11  and  C_6 
ROOT
ATOM      1  C   UNL d   1     -39.875  14.665  19.849  0.00  0.00     0.104 A 
ATOM      2  C   UNL d   1     -39.330  14.265  21.365  0.00  0.00     0.000 A 
ATOM      3  C   UNL d   1     -40.411  14.534  20.461  0.00  0.00     0.013 A 
ATOM      4  C   UNL d   1     -39.066  14.596  19.995  0.00  0.00     0.013 A 
ATOM      5  C   UNL d   1     -38.795  14.397  20.750  0.00  0.00     0.001 A 
ATOM      6  C   UNL d   1     -40.139  14.334  21.216  0.00  0.00     0.001 A 
ENDROOT
BRANCH   1   7
ATOM      7  S   UNL d   1     -40.144  14.864  19.097  0.00  0.00     0.271 S 
ATOM      8  O   UNL d   1     -40.530  14.140  19.044  0.00  0.00    -0.200 OA
ATOM      9  O   UNL d   1     -39.753  15.597  19.150  0.00  0.00    -0.200 OA
BRANCH   7  10
ATOM     10  N   UNL d   1     -40.415  15.063  18.343  0.00  0.00    -0.229 N 
ATOM     11  C   UNL d   1     -40.878  15.718  18.240  0.00  0.00     0.092 A 
ATOM     12  C   UNL d   1     -41.154  15.922  17.470  0.00  0.00     0.020 A 
ATOM     13  C   UNL d   1     -40.958  15.463  16.830  0.00  0.00     0.003 A 
ATOM     14  C   UNL d   1     -40.483  14.794  16.942  0.00  0.00     0.020 A 
ATOM     15  C   UNL d   1     -40.220  14.600  17.677  0.00  0.00     0.092 A 
ENDBRANCH   7  10
ENDBRANCH   1   7
BRANCH   2  16
ATOM     16  C   UNL d   1     -39.062  14.067  22.114  0.00  0.00     0.000 C 
ATOM     17  C   UNL d   1     -39.061  14.631  22.710  0.00  0.00     0.000 C 
ATOM     18  C   UNL d   1     -38.792  13.303  22.272  0.00  0.00     0.000 C 
ENDBRANCH   2  16
TORSDOF 3
ENDMDL
MODEL 6
REMARK VINA RESULT:      -5.6      8.936      9.798
REMARK  3 active torsions:
REMARK  status: ('A' for Active; 'I' for Inactive)
REMARK    1  A    between atoms: N_2  and  S_1 
REMARK    2  A    between atoms: C_3  and  S_1 
REMARK    3  A    between atoms: C_11  and  C_6 
ROOT
ATOM      1  C   UNL d   1     -39.942  14.826  19.101  0.00  0.00     0.104 A 
ATOM      2  C   UNL d   1     -40.551  15.401  17.669  0.00  0.00     0.000 A 
ATOM      3  C   UNL d   1     -39.938  15.635  18.944  0.00  0.00     0.013 A 
ATOM      4  C   UNL d   1     -40.251  14.305  18.543  0.00  0.00     0.013 A 
ATOM      5  C   UNL d   1     -40.554  14.592  17.829  0.00  0.00     0.001 A 
ATOM      6  C   UNL d   1     -40.242  15.922  18.230  0.00  0.00     0.001 A 
ENDROOT
BRANCH   1   7
ATOM      7  S   UNL d   1     -39.639  14.541  19.812  0.00  0.00     0.271 S 
ATOM      8  O   UNL d   1     -40.401  14.365  20.065  0.00  0.00    -0.200 OA
ATOM      9  O   UNL d   1     -38.867  14.720  19.555  0.00  0.00    -0.200 OA
BRANCH   7  10
ATOM     10  N   UNL d   1     -39.336  14.256  20.524  0.00  0.00    -0.229 N 
ATOM     11  C   UNL d   1     -38.634  13.855  20.532  0.00  0.00     0.092 A 
ATOM     12  C   UNL d   1     -38.324  13.563  21.260  0.00  0.00     0.020 A 
ATOM     13  C   UNL d   1     -38.728  13.682  21.954  0.00  0.00     0.003 A 
ATOM     14  C   UNL d   1     -39.447  14.093  21.939  0.00  0.00     0.020 A 
ATOM     15  C   UNL d   1     -39.742  14.371  21.245  0.00  0.00     0.092 A 
ENDBRANCH   7  10
ENDBRANCH   1   7
BRANCH   2  16
ATOM     16  C   UNL d   1     -40.853  15.685  16.961  0.00  0.00     0.000 C 
ATOM     17  C   UNL d   1     -41.638  15.920  16.915  0.00  0.00     0.000 C 
ATOM     18  C   UNL d   1     -40.370  15.737  16.293  0.00  0.00     0.000 C 
ENDBRANCH   2  16
TORSDOF 3
ENDMDL
