MODEL 1
REMARK VINA RESULT:      19.2      0.000      0.000
REMARK  2 active torsions:
REMARK  status: ('A' for Active; 'I' for Inactive)
REMARK    1  A    between atoms: C_9  and  C_1 
REMARK    2  A    between atoms: O_13  and  C_11 
ROOT
ATOM      1  C   UNL d   1      45.824 -16.508  44.323  0.00  0.00     0.064 A 
ATOM      2  C   UNL d   1      46.043 -16.767  43.578  0.00  0.00     0.199 A 
ATOM      3  C   UNL d   1      46.200 -17.567  43.419  0.00  0.00     0.062 A 
ATOM      4  C   UNL d   1      45.755 -17.071  44.954  0.00  0.00     0.126 A 
ATOM      5  C   UNL d   1      46.132 -18.115  44.033  0.00  0.00     0.105 A 
ATOM      6  O   UNL d   1      45.907 -17.869  44.811  0.00  0.00    -0.305 OA
ATOM      7  C   UNL d   1      46.411 -17.806  42.690  0.00  0.00     0.007 A 
ATOM      8  C   UNL d   1      46.276 -18.908  43.923  0.00  0.00     0.049 A 
ATOM      9  O   UNL d   1      46.110 -16.222  42.968  0.00  0.00    -0.286 OA
ATOM     10  C   UNL d   1      46.495 -19.160  43.169  0.00  0.00     0.096 A 
ATOM     11  C   UNL d   1      46.565 -18.596  42.539  0.00  0.00     0.024 A 
ENDROOT
BRANCH   1  12
ATOM     12  C   UNL d   1      45.680 -15.723  44.441  0.00  0.00     0.005 A 
ATOM     13  C   UNL d   1      46.255 -15.149  44.216  0.00  0.00     0.000 A 
ATOM     14  C   UNL d   1      46.111 -14.364  44.334  0.00  0.00     0.000 A 
ATOM     15  C   UNL d   1      45.402 -14.110  44.675  0.00  0.00     0.000 A 
ATOM     16  C   UNL d   1      44.823 -14.672  44.903  0.00  0.00     0.000 A 
ATOM     17  C   UNL d   1      44.971 -15.468  44.783  0.00  0.00     0.000 A 
ENDBRANCH   1  12
BRANCH  10  18
ATOM     18  O   UNL d   1      46.647 -19.999  43.056  0.00  0.00    -0.328 OA
ATOM     19  C   UNL d   1      46.506 -20.325  42.316  0.00  0.00     0.181 C 
ENDBRANCH  10  18
TORSDOF 2
ENDMDL
MODEL 2
REMARK VINA RESULT:      19.2      1.166      2.111
REMARK  2 active torsions:
REMARK  status: ('A' for Active; 'I' for Inactive)
REMARK    1  A    between atoms: C_9  and  C_1 
REMARK    2  A    between atoms: O_13  and  C_11 
ROOT
ATOM      1  C   UNL d   1      45.500 -14.530  44.429  0.00  0.00     0.064 A 
ATOM      2  C   UNL d   1      46.037 -14.987  44.012  0.00  0.00     0.199 A 
ATOM      3  C   UNL d   1      46.030 -15.816  44.046  0.00  0.00     0.062 A 
ATOM      4  C   UNL d   1      44.917 -14.914  44.911  0.00  0.00     0.126 A 
ATOM      5  C   UNL d   1      45.462 -16.190  44.516  0.00  0.00     0.105 A 
ATOM      6  O   UNL d   1      44.898 -15.738  44.955  0.00  0.00    -0.305 OA
ATOM      7  C   UNL d   1      46.558 -16.248  43.636  0.00  0.00     0.007 A 
ATOM      8  C   UNL d   1      45.418 -16.999  44.579  0.00  0.00     0.049 A 
ATOM      9  O   UNL d   1      46.602 -14.615  43.546  0.00  0.00    -0.286 OA
ATOM     10  C   UNL d   1      45.963 -17.450  44.156  0.00  0.00     0.096 A 
ATOM     11  C   UNL d   1      46.546 -17.066  43.674  0.00  0.00     0.024 A 
ENDROOT
BRANCH   1  12
ATOM     12  C   UNL d   1      45.537 -13.726  44.372  0.00  0.00     0.005 A 
ATOM     13  C   UNL d   1      45.173 -13.332  43.721  0.00  0.00     0.000 A 
ATOM     14  C   UNL d   1      45.210 -12.528  43.664  0.00  0.00     0.000 A 
ATOM     15  C   UNL d   1      45.601 -12.080  44.238  0.00  0.00     0.000 A 
ATOM     16  C   UNL d   1      45.967 -12.461  44.889  0.00  0.00     0.000 A 
ATOM     17  C   UNL d   1      45.928 -13.277  44.946  0.00  0.00     0.000 A 
ENDBRANCH   1  12
BRANCH  10  18
ATOM     18  O   UNL d   1      45.914 -18.307  44.225  0.00  0.00    -0.328 OA
ATOM     19  C   UNL d   1      46.504 -18.761  43.881  0.00  0.00     0.181 C 
ENDBRANCH  10  18
TORSDOF 2
ENDMDL
MODEL 3
REMARK VINA RESULT:      20.0      0.845      3.965
REMARK  2 active torsions:
REMARK  status: ('A' for Active; 'I' for Inactive)
REMARK    1  A    between atoms: C_9  and  C_1 
REMARK    2  A    between atoms: O_13  and  C_11 
ROOT
ATOM      1  C   UNL d   1      46.157 -18.206  43.719  0.00  0.00     0.064 A 
ATOM      2  C   UNL d   1      46.097 -17.499  43.309  0.00  0.00     0.199 A 
ATOM      3  C   UNL d   1      45.933 -16.782  43.693  0.00  0.00     0.062 A 
ATOM      4  C   UNL d   1      46.049 -18.208  44.560  0.00  0.00     0.126 A 
ATOM      5  C   UNL d   1      45.829 -16.783  44.513  0.00  0.00     0.105 A 
ATOM      6  O   UNL d   1      45.886 -17.502  44.955  0.00  0.00    -0.305 OA
ATOM      7  C   UNL d   1      45.877 -16.101  43.284  0.00  0.00     0.007 A 
ATOM      8  C   UNL d   1      45.667 -16.105  44.930  0.00  0.00     0.049 A 
ATOM      9  O   UNL d   1      46.201 -17.497  42.495  0.00  0.00    -0.286 OA
ATOM     10  C   UNL d   1      45.608 -15.398  44.510  0.00  0.00     0.096 A 
ATOM     11  C   UNL d   1      45.716 -15.396  43.669  0.00  0.00     0.024 A 
ENDROOT
BRANCH   1  12
ATOM     12  C   UNL d   1      46.317 -18.885  43.312  0.00  0.00     0.005 A 
ATOM     13  C   UNL d   1      46.393 -19.616  43.725  0.00  0.00     0.000 A 
ATOM     14  C   UNL d   1      46.553 -20.294  43.319  0.00  0.00     0.000 A 
ATOM     15  C   UNL d   1      46.645 -20.285  42.498  0.00  0.00     0.000 A 
ATOM     16  C   UNL d   1      46.571 -19.564  42.077  0.00  0.00     0.000 A 
ATOM     17  C   UNL d   1      46.409 -18.876  42.490  0.00  0.00     0.000 A 
ENDBRANCH   1  12
BRANCH  10  18
ATOM     18  O   UNL d   1      45.437 -14.680  44.954  0.00  0.00    -0.328 OA
ATOM     19  C   UNL d   1      45.488 -13.959  44.567  0.00  0.00     0.181 C 
ENDBRANCH  10  18
TORSDOF 2
ENDMDL
MODEL 4
REMARK VINA RESULT:      21.2      0.841      4.089
REMARK  2 active torsions:
REMARK  status: ('A' for Active; 'I' for Inactive)
REMARK    1  A    between atoms: C_9  and  C_1 
REMARK    2  A    between atoms: O_13  and  C_11 
ROOT
ATOM      1  C   UNL d   1      46.192 -17.906  43.432  0.00  0.00     0.064 A 
ATOM      2  C   UNL d   1      45.943 -17.568  44.135  0.00  0.00     0.199 A 
ATOM      3  C   UNL d   1      45.796 -16.754  44.204  0.00  0.00     0.062 A 
ATOM      4  C   UNL d   1      46.305 -17.411  42.752  0.00  0.00     0.126 A 
ATOM      5  C   UNL d   1      45.906 -16.272  43.542  0.00  0.00     0.105 A 
ATOM      6  O   UNL d   1      46.164 -16.600  42.805  0.00  0.00    -0.305 OA
ATOM      7  C   UNL d   1      45.554 -16.437  44.893  0.00  0.00     0.007 A 
ATOM      8  C   UNL d   1      45.775 -15.470  43.563  0.00  0.00     0.049 A 
ATOM      9  O   UNL d   1      45.833 -18.046  44.793  0.00  0.00    -0.286 OA
ATOM     10  C   UNL d   1      45.524 -15.139  44.275  0.00  0.00     0.096 A 
ATOM     11  C   UNL d   1      45.411 -15.633  44.955  0.00  0.00     0.024 A 
ENDROOT
BRANCH   1  12
ATOM     12  C   UNL d   1      46.325 -18.701  43.402  0.00  0.00     0.005 A 
ATOM     13  C   UNL d   1      46.302 -19.105  42.662  0.00  0.00     0.000 A 
ATOM     14  C   UNL d   1      46.435 -19.901  42.632  0.00  0.00     0.000 A 
ATOM     15  C   UNL d   1      46.594 -20.330  43.319  0.00  0.00     0.000 A 
ATOM     16  C   UNL d   1      46.619 -19.939  44.061  0.00  0.00     0.000 A 
ATOM     17  C   UNL d   1      46.484 -19.131  44.090  0.00  0.00     0.000 A 
ENDBRANCH   1  12
BRANCH  10  18
ATOM     18  O   UNL d   1      45.386 -14.289  44.295  0.00  0.00    -0.328 OA
ATOM     19  C   UNL d   1      45.650 -13.866  44.946  0.00  0.00     0.181 C 
ENDBRANCH  10  18
TORSDOF 2
ENDMDL
