MODEL 1
REMARK VINA RESULT:      -2.3      0.000      0.000
REMARK  5 active torsions:
REMARK  status: ('A' for Active; 'I' for Inactive)
REMARK    1  A    between atoms: N_7  and  C_1 
REMARK    2  A    between atoms: C_6  and  N_2 
REMARK    3  A    between atoms: C_11  and  C_6 
REMARK    4  A    between atoms: C_12  and  N_7 
REMARK    5  A    between atoms: C_13  and  C_12 
ROOT
ATOM      1  C   UNL d   1      58.862  -1.524  29.185  0.00  0.00     0.735 A 
ATOM      2  N   UNL d   1      58.948  -0.706  29.082  0.00  0.00    -0.138 N 
ATOM      3  N   UNL d   1      58.363  -1.658  29.834  0.00  0.00    -0.059 NA
ATOM      4  C   UNL d   1      58.503  -0.330  29.667  0.00  0.00     0.100 A 
ATOM      5  C   UNL d   1      58.143  -0.922  30.131  0.00  0.00     0.116 A 
ATOM      6  C   UNL d   1      58.375   0.466  29.843  0.00  0.00     0.020 A 
ATOM      7  C   UNL d   1      57.659  -0.702  30.765  0.00  0.00     0.021 A 
ATOM      8  C   UNL d   1      57.893   0.677  30.474  0.00  0.00     0.002 A 
ATOM      9  C   UNL d   1      57.531   0.093  30.940  0.00  0.00     0.002 A 
ENDROOT
BRANCH   1  10
ATOM     10  N   UNL d   1      59.212  -2.111  28.721  0.00  0.00    -0.056 NA
BRANCH  10  11
ATOM     11  C   UNL d   1      59.121  -2.907  28.913  0.00  0.00     0.163 C 
BRANCH  11  12
ATOM     12  C   UNL d   1      59.480  -3.494  28.462  0.00  0.00     0.255 C 
ATOM     13  O   UNL d   1      59.724  -4.197  28.813  0.00  0.00    -0.281 OA
ENDBRANCH  11  12
ENDBRANCH  10  11
ENDBRANCH   1  10
BRANCH   2  14
ATOM     14  C   UNL d   1      59.398  -0.337  28.499  0.00  0.00     0.098 C 
BRANCH  14  15
ATOM     15  C   UNL d   1      60.172  -0.090  28.670  0.00  0.00     0.018 C 
ATOM     16  C   UNL d   1      60.704  -0.607  29.019  0.00  0.00     0.002 C 
ATOM     17  C   UNL d   1      60.405   0.682  28.485  0.00  0.00     0.002 C 
ENDBRANCH  14  15
ENDBRANCH   2  14
TORSDOF 5
ENDMDL
MODEL 2
REMARK VINA RESULT:      -2.1      1.755      3.212
REMARK  5 active torsions:
REMARK  status: ('A' for Active; 'I' for Inactive)
REMARK    1  A    between atoms: N_7  and  C_1 
REMARK    2  A    between atoms: C_6  and  N_2 
REMARK    3  A    between atoms: C_11  and  C_6 
REMARK    4  A    between atoms: C_12  and  N_7 
REMARK    5  A    between atoms: C_13  and  C_12 
ROOT
ATOM      1  C   UNL d   1      58.655  -0.239  30.043  0.00  0.00     0.735 A 
ATOM      2  N   UNL d   1      58.951  -0.611  29.364  0.00  0.00    -0.138 N 
ATOM      3  N   UNL d   1      59.218   0.308  30.311  0.00  0.00    -0.059 NA
ATOM      4  C   UNL d   1      59.699  -0.296  29.209  0.00  0.00     0.100 A 
ATOM      5  C   UNL d   1      59.860   0.273  29.798  0.00  0.00     0.116 A 
ATOM      6  C   UNL d   1      60.254  -0.446  28.617  0.00  0.00     0.020 A 
ATOM      7  C   UNL d   1      60.579   0.682  29.780  0.00  0.00     0.021 A 
ATOM      8  C   UNL d   1      60.966  -0.035  28.606  0.00  0.00     0.002 A 
ATOM      9  C   UNL d   1      61.133   0.532  29.189  0.00  0.00     0.002 A 
ENDROOT
BRANCH   1  10
ATOM     10  N   UNL d   1      57.922  -0.386  30.395  0.00  0.00    -0.056 NA
BRANCH  10  11
ATOM     11  C   UNL d   1      57.624   0.125  30.968  0.00  0.00     0.163 C 
BRANCH  11  12
ATOM     12  C   UNL d   1      57.058  -0.130  31.507  0.00  0.00     0.255 C 
ATOM     13  O   UNL d   1      56.343   0.271  31.581  0.00  0.00    -0.281 OA
ENDBRANCH  11  12
ENDBRANCH  10  11
ENDBRANCH   1  10
BRANCH   2  14
ATOM     14  C   UNL d   1      58.567  -1.191  28.923  0.00  0.00     0.098 C 
BRANCH  14  15
ATOM     15  C   UNL d   1      58.778  -1.990  29.018  0.00  0.00     0.018 C 
ATOM     16  C   UNL d   1      58.509  -2.415  29.665  0.00  0.00     0.002 C 
ATOM     17  C   UNL d   1      59.262  -2.354  28.455  0.00  0.00     0.002 C 
ENDBRANCH  14  15
ENDBRANCH   2  14
TORSDOF 5
ENDMDL
MODEL 3
REMARK VINA RESULT:      -2.0      0.696      2.334
REMARK  5 active torsions:
REMARK  status: ('A' for Active; 'I' for Inactive)
REMARK    1  A    between atoms: N_7  and  C_1 
REMARK    2  A    between atoms: C_6  and  N_2 
REMARK    3  A    between atoms: C_11  and  C_6 
REMARK    4  A    between atoms: C_12  and  N_7 
REMARK    5  A    between atoms: C_13  and  C_12 
ROOT
ATOM      1  C   UNL d   1      59.142  -1.690  28.990  0.00  0.00     0.735 A 
ATOM      2  N   UNL d   1      58.928  -0.909  29.164  0.00  0.00    -0.138 N 
ATOM      3  N   UNL d   1      59.953  -1.710  28.817  0.00  0.00    -0.059 NA
ATOM      4  C   UNL d   1      59.606  -0.441  29.100  0.00  0.00     0.100 A 
ATOM      5  C   UNL d   1      60.238  -0.941  28.885  0.00  0.00     0.116 A 
ATOM      6  C   UNL d   1      59.736   0.367  29.207  0.00  0.00     0.020 A 
ATOM      7  C   UNL d   1      60.993  -0.618  28.781  0.00  0.00     0.021 A 
ATOM      8  C   UNL d   1      60.489   0.680  29.102  0.00  0.00     0.002 A 
ATOM      9  C   UNL d   1      61.123   0.189  28.888  0.00  0.00     0.002 A 
ENDROOT
BRANCH   1  10
ATOM     10  N   UNL d   1      58.635  -2.343  28.987  0.00  0.00    -0.056 NA
BRANCH  10  11
ATOM     11  C   UNL d   1      58.898  -3.076  28.720  0.00  0.00     0.163 C 
BRANCH  11  12
ATOM     12  C   UNL d   1      58.366  -3.647  28.460  0.00  0.00     0.255 C 
ATOM     13  O   UNL d   1      58.435  -4.427  28.715  0.00  0.00    -0.281 OA
ENDBRANCH  11  12
ENDBRANCH  10  11
ENDBRANCH   1  10
BRANCH   2  14
ATOM     14  C   UNL d   1      58.173  -0.647  29.365  0.00  0.00     0.098 C 
BRANCH  14  15
ATOM     15  C   UNL d   1      57.983  -0.509  30.162  0.00  0.00     0.018 C 
ATOM     16  C   UNL d   1      57.836   0.253  30.427  0.00  0.00     0.002 C 
ATOM     17  C   UNL d   1      57.941  -1.146  30.689  0.00  0.00     0.002 C 
ENDBRANCH  14  15
ENDBRANCH   2  14
TORSDOF 5
ENDMDL
MODEL 4
REMARK VINA RESULT:      -1.4      8.999      9.600
REMARK  5 active torsions:
REMARK  status: ('A' for Active; 'I' for Inactive)
REMARK    1  A    between atoms: N_7  and  C_1 
REMARK    2  A    between atoms: C_6  and  N_2 
REMARK    3  A    between atoms: C_11  and  C_6 
REMARK    4  A    between atoms: C_12  and  N_7 
REMARK    5  A    between atoms: C_13  and  C_12 
ROOT
ATOM      1  C   UNL d   1      59.052  -9.705  33.512  0.00  0.00     0.735 A 
ATOM      2  N   UNL d   1      59.475  -9.767  32.802  0.00  0.00    -0.138 N 
ATOM      3  N   UNL d   1      58.242  -9.668  33.335  0.00  0.00    -0.059 NA
ATOM      4  C   UNL d   1      58.929  -9.769  32.182  0.00  0.00     0.100 A 
ATOM      5  C   UNL d   1      58.168  -9.708  32.516  0.00  0.00     0.116 A 
ATOM      6  C   UNL d   1      59.018  -9.818  31.363  0.00  0.00     0.020 A 
ATOM      7  C   UNL d   1      57.506  -9.696  32.018  0.00  0.00     0.021 A 
ATOM      8  C   UNL d   1      58.357  -9.806  30.875  0.00  0.00     0.002 A 
ATOM      9  C   UNL d   1      57.596  -9.745  31.200  0.00  0.00     0.002 A 
ENDROOT
BRANCH   1  10
ATOM     10  N   UNL d   1      59.377  -9.684  34.271  0.00  0.00    -0.056 NA
BRANCH  10  11
ATOM     11  C   UNL d   1      58.901  -9.542  34.927  0.00  0.00     0.163 C 
BRANCH  11  12
ATOM     12  C   UNL d   1      59.226  -9.486  35.681  0.00  0.00     0.255 C 
ATOM     13  O   UNL d   1      58.749  -9.300  36.326  0.00  0.00    -0.281 OA
ENDBRANCH  11  12
ENDBRANCH  10  11
ENDBRANCH   1  10
BRANCH   2  14
ATOM     14  C   UNL d   1      60.294  -9.818  32.730  0.00  0.00     0.098 C 
BRANCH  14  15
ATOM     15  C   UNL d   1      60.739  -9.133  32.579  0.00  0.00     0.018 C 
ATOM     16  C   UNL d   1      60.997  -8.662  33.198  0.00  0.00     0.002 C 
ATOM     17  C   UNL d   1      60.919  -8.927  31.798  0.00  0.00     0.002 C 
ENDBRANCH  14  15
ENDBRANCH   2  14
TORSDOF 5
ENDMDL
MODEL 5
REMARK VINA RESULT:      -1.2      2.414      3.528
REMARK  5 active torsions:
REMARK  status: ('A' for Active; 'I' for Inactive)
REMARK    1  A    between atoms: N_7  and  C_1 
REMARK    2  A    between atoms: C_6  and  N_2 
REMARK    3  A    between atoms: C_11  and  C_6 
REMARK    4  A    between atoms: C_12  and  N_7 
REMARK    5  A    between atoms: C_13  and  C_12 
ROOT
ATOM      1  C   UNL d   1      58.193   0.599  31.190  0.00  0.00     0.735 A 
ATOM      2  N   UNL d   1      58.558   0.609  30.446  0.00  0.00    -0.138 N 
ATOM      3  N   UNL d   1      58.782   0.617  31.775  0.00  0.00    -0.059 NA
ATOM      4  C   UNL d   1      59.376   0.633  30.567  0.00  0.00     0.100 A 
ATOM      5  C   UNL d   1      59.509   0.638  31.390  0.00  0.00     0.116 A 
ATOM      6  C   UNL d   1      60.014   0.651  30.045  0.00  0.00     0.020 A 
ATOM      7  C   UNL d   1      60.286   0.661  31.674  0.00  0.00     0.021 A 
ATOM      8  C   UNL d   1      60.783   0.674  30.334  0.00  0.00     0.002 A 
ATOM      9  C   UNL d   1      60.924   0.679  31.152  0.00  0.00     0.002 A 
ENDROOT
BRANCH   1  10
ATOM     10  N   UNL d   1      57.379   0.575  31.331  0.00  0.00    -0.056 NA
BRANCH  10  11
ATOM     11  C   UNL d   1      57.087   0.543  32.100  0.00  0.00     0.163 C 
BRANCH  11  12
ATOM     12  C   UNL d   1      56.285   0.439  32.243  0.00  0.00     0.255 C 
ATOM     13  O   UNL d   1      56.030  -0.091  32.820  0.00  0.00    -0.281 OA
ENDBRANCH  11  12
ENDBRANCH  10  11
ENDBRANCH   1  10
BRANCH   2  14
ATOM     14  C   UNL d   1      58.174   0.597  29.718  0.00  0.00     0.098 C 
BRANCH  14  15
ATOM     15  C   UNL d   1      58.273  -0.053  29.209  0.00  0.00     0.018 C 
ATOM     16  C   UNL d   1      58.050  -0.804  29.448  0.00  0.00     0.002 C 
ATOM     17  C   UNL d   1      58.600   0.063  28.458  0.00  0.00     0.002 C 
ENDBRANCH  14  15
ENDBRANCH   2  14
TORSDOF 5
ENDMDL
MODEL 6
REMARK VINA RESULT:      -0.8      4.148      5.827
REMARK  5 active torsions:
REMARK  status: ('A' for Active; 'I' for Inactive)
REMARK    1  A    between atoms: N_7  and  C_1 
REMARK    2  A    between atoms: C_6  and  N_2 
REMARK    3  A    between atoms: C_11  and  C_6 
REMARK    4  A    between atoms: C_12  and  N_7 
REMARK    5  A    between atoms: C_13  and  C_12 
ROOT
ATOM      1  C   UNL d   1      56.630   0.185  33.844  0.00  0.00     0.735 A 
ATOM      2  N   UNL d   1      56.296  -0.005  33.109  0.00  0.00    -0.138 N 
ATOM      3  N   UNL d   1      57.397   0.474  33.719  0.00  0.00    -0.059 NA
ATOM      4  C   UNL d   1      56.856   0.167  32.526  0.00  0.00     0.100 A 
ATOM      5  C   UNL d   1      57.536   0.462  32.908  0.00  0.00     0.116 A 
ATOM      6  C   UNL d   1      56.842   0.095  31.704  0.00  0.00     0.020 A 
ATOM      7  C   UNL d   1      58.192   0.682  32.454  0.00  0.00     0.021 A 
ATOM      8  C   UNL d   1      57.498   0.315  31.260  0.00  0.00     0.002 A 
ATOM      9  C   UNL d   1      58.178   0.610  31.633  0.00  0.00     0.002 A 
ENDROOT
BRANCH   1  10
ATOM     10  N   UNL d   1      56.263   0.101  34.579  0.00  0.00    -0.056 NA
BRANCH  10  11
ATOM     11  C   UNL d   1      56.360   0.673  35.163  0.00  0.00     0.163 C 
BRANCH  11  12
ATOM     12  C   UNL d   1      56.214   0.499  35.954  0.00  0.00     0.255 C 
ATOM     13  O   UNL d   1      55.486   0.681  36.293  0.00  0.00    -0.281 OA
ENDBRANCH  11  12
ENDBRANCH  10  11
ENDBRANCH   1  10
BRANCH   2  14
ATOM     14  C   UNL d   1      55.541  -0.309  32.985  0.00  0.00     0.098 C 
BRANCH  14  15
ATOM     15  C   UNL d   1      55.381  -1.104  33.165  0.00  0.00     0.018 C 
ATOM     16  C   UNL d   1      55.930  -1.687  32.991  0.00  0.00     0.002 C 
ATOM     17  C   UNL d   1      54.663  -1.304  33.524  0.00  0.00     0.002 C 
ENDBRANCH  14  15
ENDBRANCH   2  14
TORSDOF 5
ENDMDL
MODEL 7
REMARK VINA RESULT:      -0.5      8.744      9.572
REMARK  5 active torsions:
REMARK  status: ('A' for Active; 'I' for Inactive)
REMARK    1  A    between atoms: N_7  and  C_1 
REMARK    2  A    between atoms: C_6  and  N_2 
REMARK    3  A    between atoms: C_11  and  C_6 
REMARK    4  A    between atoms: C_12  and  N_7 
REMARK    5  A    between atoms: C_13  and  C_12 
ROOT
ATOM      1  C   UNL d   1      59.507  -9.156  33.536  0.00  0.00     0.735 A 
ATOM      2  N   UNL d   1      59.185  -9.520  32.864  0.00  0.00    -0.138 N 
ATOM      3  N   UNL d   1      60.290  -8.939  33.369  0.00  0.00    -0.059 NA
ATOM      4  C   UNL d   1      59.768  -9.531  32.279  0.00  0.00     0.100 A 
ATOM      5  C   UNL d   1      60.450  -9.171  32.595  0.00  0.00     0.116 A 
ATOM      6  C   UNL d   1      59.773  -9.818  31.505  0.00  0.00     0.020 A 
ATOM      7  C   UNL d   1      61.129  -9.105  32.125  0.00  0.00     0.021 A 
ATOM      8  C   UNL d   1      60.451  -9.748  31.044  0.00  0.00     0.002 A 
ATOM      9  C   UNL d   1      61.133  -9.391  31.352  0.00  0.00     0.002 A 
ENDROOT
BRANCH   1  10
ATOM     10  N   UNL d   1      59.117  -9.028  34.252  0.00  0.00    -0.056 NA
BRANCH  10  11
ATOM     11  C   UNL d   1      59.543  -8.891  34.943  0.00  0.00     0.163 C 
BRANCH  11  12
ATOM     12  C   UNL d   1      59.176  -8.589  35.614  0.00  0.00     0.255 C 
ATOM     13  O   UNL d   1      58.547  -8.992  35.961  0.00  0.00    -0.281 OA
ENDBRANCH  11  12
ENDBRANCH  10  11
ENDBRANCH   1  10
BRANCH   2  14
ATOM     14  C   UNL d   1      58.420  -9.818  32.795  0.00  0.00     0.098 C 
BRANCH  14  15
ATOM     15  C   UNL d   1      57.850  -9.396  32.362  0.00  0.00     0.018 C 
ATOM     16  C   UNL d   1      57.688  -8.614  32.543  0.00  0.00     0.002 C 
ATOM     17  C   UNL d   1      57.447  -9.771  31.745  0.00  0.00     0.002 C 
ENDBRANCH  14  15
ENDBRANCH   2  14
TORSDOF 5
ENDMDL
MODEL 8
REMARK VINA RESULT:      -0.4      8.312      9.038
REMARK  5 active torsions:
REMARK  status: ('A' for Active; 'I' for Inactive)
REMARK    1  A    between atoms: N_7  and  C_1 
REMARK    2  A    between atoms: C_6  and  N_2 
REMARK    3  A    between atoms: C_11  and  C_6 
REMARK    4  A    between atoms: C_12  and  N_7 
REMARK    5  A    between atoms: C_13  and  C_12 
ROOT
ATOM      1  C   UNL d   1      59.341  -9.816  31.194  0.00  0.00     0.735 A 
ATOM      2  N   UNL d   1      59.679  -9.815  30.437  0.00  0.00    -0.138 N 
ATOM      3  N   UNL d   1      58.515  -9.815  31.115  0.00  0.00    -0.059 NA
ATOM      4  C   UNL d   1      59.063  -9.813  29.886  0.00  0.00     0.100 A 
ATOM      5  C   UNL d   1      58.345  -9.813  30.310  0.00  0.00     0.116 A 
ATOM      6  C   UNL d   1      59.055  -9.812  29.061  0.00  0.00     0.020 A 
ATOM      7  C   UNL d   1      57.629  -9.811  29.895  0.00  0.00     0.021 A 
ATOM      8  C   UNL d   1      58.340  -9.810  28.655  0.00  0.00     0.002 A 
ATOM      9  C   UNL d   1      57.622  -9.810  29.071  0.00  0.00     0.002 A 
ENDROOT
BRANCH   1  10
ATOM     10  N   UNL d   1      59.755  -9.818  31.909  0.00  0.00    -0.056 NA
BRANCH  10  11
ATOM     11  C   UNL d   1      59.351  -9.813  32.627  0.00  0.00     0.163 C 
BRANCH  11  12
ATOM     12  C   UNL d   1      59.748  -9.684  33.335  0.00  0.00     0.255 C 
ATOM     13  O   UNL d   1      59.357  -9.349  33.977  0.00  0.00    -0.281 OA
ENDBRANCH  11  12
ENDBRANCH  10  11
ENDBRANCH   1  10
BRANCH   2  14
ATOM     14  C   UNL d   1      60.484  -9.816  30.266  0.00  0.00     0.098 C 
BRANCH  14  15
ATOM     15  C   UNL d   1      60.827  -9.163  29.884  0.00  0.00     0.018 C 
ATOM     16  C   UNL d   1      61.066  -8.509  30.316  0.00  0.00     0.002 C 
ATOM     17  C   UNL d   1      60.925  -9.175  29.063  0.00  0.00     0.002 C 
ENDBRANCH  14  15
ENDBRANCH   2  14
TORSDOF 5
ENDMDL
MODEL 9
REMARK VINA RESULT:       0.0      2.866      4.009
REMARK  5 active torsions:
REMARK  status: ('A' for Active; 'I' for Inactive)
REMARK    1  A    between atoms: N_7  and  C_1 
REMARK    2  A    between atoms: C_6  and  N_2 
REMARK    3  A    between atoms: C_11  and  C_6 
REMARK    4  A    between atoms: C_12  and  N_7 
REMARK    5  A    between atoms: C_13  and  C_12 
ROOT
ATOM      1  C   UNL d   1      57.766   0.479  31.935  0.00  0.00     0.735 A 
ATOM      2  N   UNL d   1      58.165   0.517  31.209  0.00  0.00    -0.138 N 
ATOM      3  N   UNL d   1      58.326   0.514  32.546  0.00  0.00    -0.059 NA
ATOM      4  C   UNL d   1      58.974   0.575  31.368  0.00  0.00     0.100 A 
ATOM      5  C   UNL d   1      59.069   0.573  32.196  0.00  0.00     0.116 A 
ATOM      6  C   UNL d   1      59.635   0.629  30.876  0.00  0.00     0.020 A 
ATOM      7  C   UNL d   1      59.830   0.625  32.517  0.00  0.00     0.021 A 
ATOM      8  C   UNL d   1      60.387   0.681  31.202  0.00  0.00     0.002 A 
ATOM      9  C   UNL d   1      60.490   0.680  32.026  0.00  0.00     0.002 A 
ENDROOT
BRANCH   1  10
ATOM     10  N   UNL d   1      56.949   0.418  32.036  0.00  0.00    -0.056 NA
BRANCH  10  11
ATOM     11  C   UNL d   1      56.592   0.682  32.730  0.00  0.00     0.163 C 
BRANCH  11  12
ATOM     12  C   UNL d   1      55.859   0.393  32.964  0.00  0.00     0.255 C 
ATOM     13  O   UNL d   1      55.540   0.607  33.692  0.00  0.00    -0.281 OA
ENDBRANCH  11  12
ENDBRANCH  10  11
ENDBRANCH   1  10
BRANCH   2  14
ATOM     14  C   UNL d   1      57.816   0.499  30.463  0.00  0.00     0.098 C 
BRANCH  14  15
ATOM     15  C   UNL d   1      57.965  -0.138  29.952  0.00  0.00     0.018 C 
ATOM     16  C   UNL d   1      58.370  -0.019  29.249  0.00  0.00     0.002 C 
ATOM     17  C   UNL d   1      57.702  -0.895  30.155  0.00  0.00     0.002 C 
ENDBRANCH  14  15
ENDBRANCH   2  14
TORSDOF 5
ENDMDL
