MODEL 1
REMARK VINA RESULT:      -8.3      0.000      0.000
REMARK  3 active torsions:
REMARK  status: ('A' for Active; 'I' for Inactive)
REMARK    1  A    between atoms: S_3  and  N_1 
REMARK    2  A    between atoms: C_5  and  C_4 
REMARK    3  A    between atoms: C_12  and  C_6 
ROOT
ATOM      1  N   UNL d   1     -49.096  13.033  22.357  0.00  0.00    -0.155 N 
ATOM      2  N   UNL d   1     -49.743  13.516  22.467  0.00  0.00    -0.153 NA
ATOM      3  C   UNL d   1     -48.480  13.316  22.805  0.00  0.00     0.098 A 
ATOM      4  C   UNL d   1     -49.523  14.111  22.995  0.00  0.00     0.126 A 
ATOM      5  C   UNL d   1     -48.742  13.988  23.204  0.00  0.00     0.043 A 
ENDROOT
BRANCH   3   6
ATOM      6  C   UNL d   1     -47.722  12.991  22.855  0.00  0.00     0.047 A 
ATOM      7  C   UNL d   1     -47.079  13.394  22.534  0.00  0.00     0.140 A 
ATOM      8  N   UNL d   1     -46.322  13.069  22.584  0.00  0.00    -0.234 NA
ATOM      9 CL   UNL d   1     -47.192  14.122  22.161  0.00  0.00    -0.061 Cl
ATOM     10  C   UNL d   1     -46.209  12.342  22.956  0.00  0.00     0.082 A 
ATOM     11  C   UNL d   1     -46.852  11.939  23.277  0.00  0.00     0.018 A 
ATOM     12  C   UNL d   1     -45.452  12.018  23.005  0.00  0.00     0.018 A 
ATOM     13  C   UNL d   1     -47.609  12.263  23.227  0.00  0.00     0.005 A 
ATOM     14  C   UNL d   1     -46.740  11.211  23.649  0.00  0.00     0.002 A 
ATOM     15  C   UNL d   1     -45.999  10.907  23.691  0.00  0.00     0.000 A 
ATOM     16  C   UNL d   1     -45.356  11.309  23.370  0.00  0.00     0.002 A 
ATOM     17  C   UNL d   1     -44.808  12.421  22.683  0.00  0.00     0.002 C 
ENDBRANCH   3   6
BRANCH   1  18
ATOM     18  S   UNL d   1     -49.496  12.546  21.840  0.00  0.00     0.266 S 
ATOM     19  O   UNL d   1     -49.884  11.868  22.103  0.00  0.00    -0.203 OA
ATOM     20  O   UNL d   1     -49.403  12.892  21.098  0.00  0.00    -0.203 OA
ATOM     21  C   UNL d   1     -49.836  12.194  21.175  0.00  0.00     0.165 C 
ENDBRANCH   1  18
BRANCH   4  22
ATOM     22  C   UNL d   1     -49.995  14.713  23.261  0.00  0.00     0.119 A 
ATOM     23  O   UNL d   1     -50.793  14.697  23.398  0.00  0.00    -0.304 OA
ATOM     24  C   UNL d   1     -51.042  15.430  23.664  0.00  0.00     0.123 A 
ATOM     25  C   UNL d   1     -50.392  15.922  23.698  0.00  0.00     0.029 A 
ATOM     26  C   UNL d   1     -49.730  15.489  23.449  0.00  0.00     0.028 A 
ENDBRANCH   4  22
TORSDOF 3
ENDMDL
MODEL 2
REMARK VINA RESULT:      -6.9      2.288      4.518
REMARK  3 active torsions:
REMARK  status: ('A' for Active; 'I' for Inactive)
REMARK    1  A    between atoms: S_3  and  N_1 
REMARK    2  A    between atoms: C_5  and  C_4 
REMARK    3  A    between atoms: C_12  and  C_6 
ROOT
ATOM      1  N   UNL d   1     -46.522  13.674  22.565  0.00  0.00    -0.155 N 
ATOM      2  N   UNL d   1     -45.727  13.719  22.388  0.00  0.00    -0.153 NA
ATOM      3  C   UNL d   1     -46.761  12.901  22.492  0.00  0.00     0.098 A 
ATOM      4  C   UNL d   1     -45.470  12.957  22.201  0.00  0.00     0.126 A 
ATOM      5  C   UNL d   1     -46.109  12.451  22.266  0.00  0.00     0.043 A 
ENDROOT
BRANCH   3   6
ATOM      6  C   UNL d   1     -47.524  12.612  22.621  0.00  0.00     0.047 A 
ATOM      7  C   UNL d   1     -47.661  12.065  23.222  0.00  0.00     0.140 A 
ATOM      8  N   UNL d   1     -48.424  11.776  23.351  0.00  0.00    -0.234 NA
ATOM      9 CL   UNL d   1     -47.036  11.806  23.695  0.00  0.00    -0.061 Cl
ATOM     10  C   UNL d   1     -49.048  12.035  22.878  0.00  0.00     0.082 A 
ATOM     11  C   UNL d   1     -48.911  12.582  22.277  0.00  0.00     0.018 A 
ATOM     12  C   UNL d   1     -49.810  11.747  23.008  0.00  0.00     0.018 A 
ATOM     13  C   UNL d   1     -48.149  12.871  22.148  0.00  0.00     0.005 A 
ATOM     14  C   UNL d   1     -49.535  12.842  21.804  0.00  0.00     0.002 A 
ATOM     15  C   UNL d   1     -50.271  12.553  21.940  0.00  0.00     0.000 A 
ATOM     16  C   UNL d   1     -50.409  12.006  22.541  0.00  0.00     0.002 A 
ATOM     17  C   UNL d   1     -49.947  11.199  23.609  0.00  0.00     0.002 C 
ENDBRANCH   3   6
BRANCH   1  18
ATOM     18  S   UNL d   1     -46.575  14.474  22.711  0.00  0.00     0.266 S 
ATOM     19  O   UNL d   1     -47.009  14.971  22.218  0.00  0.00    -0.203 OA
ATOM     20  O   UNL d   1     -46.131  14.601  23.393  0.00  0.00    -0.203 OA
ATOM     21  C   UNL d   1     -46.508  15.235  23.023  0.00  0.00     0.165 C 
ENDBRANCH   1  18
BRANCH   4  22
ATOM     22  C   UNL d   1     -44.717  12.744  21.991  0.00  0.00     0.119 A 
ATOM     23  O   UNL d   1     -44.227  12.215  22.360  0.00  0.00    -0.304 OA
ATOM     24  C   UNL d   1     -43.515  12.171  21.957  0.00  0.00     0.123 A 
ATOM     25  C   UNL d   1     -43.551  12.681  21.322  0.00  0.00     0.029 A 
ATOM     26  C   UNL d   1     -44.296  13.046  21.328  0.00  0.00     0.028 A 
ENDBRANCH   4  22
TORSDOF 3
ENDMDL
MODEL 3
REMARK VINA RESULT:      -6.7      7.882      9.984
REMARK  3 active torsions:
REMARK  status: ('A' for Active; 'I' for Inactive)
REMARK    1  A    between atoms: S_3  and  N_1 
REMARK    2  A    between atoms: C_5  and  C_4 
REMARK    3  A    between atoms: C_12  and  C_6 
ROOT
ATOM      1  N   UNL d   1     -40.065  14.871  20.693  0.00  0.00    -0.155 N 
ATOM      2  N   UNL d   1     -39.991  14.675  21.481  0.00  0.00    -0.153 NA
ATOM      3  C   UNL d   1     -39.366  14.701  20.316  0.00  0.00     0.098 A 
ATOM      4  C   UNL d   1     -39.229  14.377  21.593  0.00  0.00     0.126 A 
ATOM      5  C   UNL d   1     -38.843  14.392  20.873  0.00  0.00     0.043 A 
ENDROOT
BRANCH   3   6
ATOM      6  C   UNL d   1     -39.204  14.814  19.514  0.00  0.00     0.047 A 
ATOM      7  C   UNL d   1     -38.703  15.424  19.277  0.00  0.00     0.140 A 
ATOM      8  N   UNL d   1     -38.540  15.538  18.476  0.00  0.00    -0.234 NA
ATOM      9 CL   UNL d   1     -38.363  15.922  19.842  0.00  0.00    -0.061 Cl
ATOM     10  C   UNL d   1     -38.880  15.040  17.912  0.00  0.00     0.082 A 
ATOM     11  C   UNL d   1     -39.381  14.430  18.149  0.00  0.00     0.018 A 
ATOM     12  C   UNL d   1     -38.717  15.154  17.112  0.00  0.00     0.018 A 
ATOM     13  C   UNL d   1     -39.544  14.316  18.950  0.00  0.00     0.005 A 
ATOM     14  C   UNL d   1     -39.721  13.933  17.585  0.00  0.00     0.002 A 
ATOM     15  C   UNL d   1     -39.555  14.054  16.810  0.00  0.00     0.000 A 
ATOM     16  C   UNL d   1     -39.054  14.664  16.573  0.00  0.00     0.002 A 
ATOM     17  C   UNL d   1     -38.216  15.765  16.875  0.00  0.00     0.002 C 
ENDBRANCH   3   6
BRANCH   1  18
ATOM     18  S   UNL d   1     -40.833  15.128  20.788  0.00  0.00     0.266 S 
ATOM     19  O   UNL d   1     -41.007  15.922  20.919  0.00  0.00    -0.203 OA
ATOM     20  O   UNL d   1     -41.298  14.450  20.721  0.00  0.00    -0.203 OA
ATOM     21  C   UNL d   1     -41.654  15.182  20.856  0.00  0.00     0.165 C 
ENDBRANCH   1  18
BRANCH   4  22
ATOM     22  C   UNL d   1     -38.917  14.114  22.293  0.00  0.00     0.119 A 
ATOM     23  O   UNL d   1     -38.708  14.552  22.941  0.00  0.00    -0.304 OA
ATOM     24  C   UNL d   1     -38.415  14.058  23.525  0.00  0.00     0.123 A 
ATOM     25  C   UNL d   1     -38.437  13.293  23.245  0.00  0.00     0.029 A 
ATOM     26  C   UNL d   1     -38.749  13.310  22.476  0.00  0.00     0.028 A 
ENDBRANCH   4  22
TORSDOF 3
ENDMDL
MODEL 4
REMARK VINA RESULT:      -5.7      1.820      2.727
REMARK  3 active torsions:
REMARK  status: ('A' for Active; 'I' for Inactive)
REMARK    1  A    between atoms: S_3  and  N_1 
REMARK    2  A    between atoms: C_5  and  C_4 
REMARK    3  A    between atoms: C_12  and  C_6 
ROOT
ATOM      1  N   UNL d   1     -47.285  13.572  22.735  0.00  0.00    -0.155 N 
ATOM      2  N   UNL d   1     -48.098  13.563  22.797  0.00  0.00    -0.153 NA
ATOM      3  C   UNL d   1     -47.016  12.805  22.720  0.00  0.00     0.098 A 
ATOM      4  C   UNL d   1     -48.337  12.773  22.821  0.00  0.00     0.126 A 
ATOM      5  C   UNL d   1     -47.669  12.305  22.773  0.00  0.00     0.043 A 
ENDROOT
BRANCH   3   6
ATOM      6  C   UNL d   1     -46.229  12.564  22.661  0.00  0.00     0.047 A 
ATOM      7  C   UNL d   1     -45.944  11.965  23.150  0.00  0.00     0.140 A 
ATOM      8  N   UNL d   1     -45.156  11.724  23.091  0.00  0.00    -0.234 NA
ATOM      9 CL   UNL d   1     -46.445  11.605  23.698  0.00  0.00    -0.061 Cl
ATOM     10  C   UNL d   1     -44.655  12.084  22.544  0.00  0.00     0.082 A 
ATOM     11  C   UNL d   1     -44.940  12.683  22.055  0.00  0.00     0.018 A 
ATOM     12  C   UNL d   1     -43.868  11.843  22.486  0.00  0.00     0.018 A 
ATOM     13  C   UNL d   1     -45.727  12.924  22.113  0.00  0.00     0.005 A 
ATOM     14  C   UNL d   1     -44.439  13.043  21.507  0.00  0.00     0.002 A 
ATOM     15  C   UNL d   1     -43.676  12.800  21.460  0.00  0.00     0.000 A 
ATOM     16  C   UNL d   1     -43.391  12.201  21.949  0.00  0.00     0.002 A 
ATOM     17  C   UNL d   1     -43.583  11.243  22.975  0.00  0.00     0.002 C 
ENDBRANCH   3   6
BRANCH   1  18
ATOM     18  S   UNL d   1     -47.254  14.387  22.727  0.00  0.00     0.266 S 
ATOM     19  O   UNL d   1     -46.895  14.807  23.337  0.00  0.00    -0.203 OA
ATOM     20  O   UNL d   1     -47.634  14.611  22.031  0.00  0.00    -0.203 OA
ATOM     21  C   UNL d   1     -47.326  15.186  22.537  0.00  0.00     0.165 C 
ENDBRANCH   1  18
BRANCH   4  22
ATOM     22  C   UNL d   1     -49.100  12.507  22.881  0.00  0.00     0.119 A 
ATOM     23  O   UNL d   1     -49.579  12.508  23.534  0.00  0.00    -0.304 OA
ATOM     24  C   UNL d   1     -50.306  12.185  23.344  0.00  0.00     0.123 A 
ATOM     25  C   UNL d   1     -50.292  11.975  22.556  0.00  0.00     0.029 A 
ATOM     26  C   UNL d   1     -49.545  12.169  22.252  0.00  0.00     0.028 A 
ENDBRANCH   4  22
TORSDOF 3
ENDMDL
