MODEL 1
REMARK VINA RESULT:      -2.7      0.000      0.000
REMARK  6 active torsions:
REMARK  status: ('A' for Active; 'I' for Inactive)
REMARK    1  A    between atoms: C_2  and  S_1 
REMARK    2  A    between atoms: N_5  and  S_1 
REMARK    3  A    between atoms: C_14  and  N_5 
REMARK    4  A    between atoms: C_7  and  C_6 
REMARK    5  A    between atoms: C_19  and  C_14 
REMARK    6  A    between atoms: O_18  and  C_19 
ROOT
ATOM      1  C   UNL d   1      32.400  22.160 -21.070  0.00  0.00     0.105 A 
ATOM      2  C   UNL d   1      32.686  20.703 -21.818  0.00  0.00     0.000 A 
ATOM      3  C   UNL d   1      33.069  22.062 -21.542  0.00  0.00     0.013 A 
ATOM      4  C   UNL d   1      31.872  21.534 -20.970  0.00  0.00     0.013 A 
ATOM      5  C   UNL d   1      32.016  20.801 -21.346  0.00  0.00     0.001 A 
ATOM      6  C   UNL d   1      33.213  21.330 -21.918  0.00  0.00     0.001 A 
ENDROOT
BRANCH   1   7
ATOM      7  S   UNL d   1      32.254  22.883 -20.698  0.00  0.00     0.285 S 
ATOM      8  O   UNL d   1      32.107  23.601 -20.332  0.00  0.00    -0.198 OA
ATOM      9  O   UNL d   1      31.785  23.120 -21.331  0.00  0.00    -0.198 OA
BRANCH   7  10
ATOM     10  N   UNL d   1      32.719  22.651 -20.065  0.00  0.00    -0.155 NA
BRANCH  10  11
ATOM     11  C   UNL d   1      32.638  23.027 -19.328  0.00  0.00     0.138 C 
BRANCH  11  12
ATOM     12  C   UNL d   1      33.228  22.946 -18.764  0.00  0.00     0.138 C 
BRANCH  12  13
ATOM     13  O   UNL d   1      33.047  22.655 -18.007  0.00  0.00    -0.325 OA
ATOM     14  C   UNL d   1      33.188  23.110 -17.338  0.00  0.00     0.182 C 
ENDBRANCH  12  13
ENDBRANCH  11  12
ENDBRANCH  10  11
ENDBRANCH   7  10
ENDBRANCH   1   7
BRANCH   2  15
ATOM     15  C   UNL d   1      32.823  19.985 -22.184  0.00  0.00     0.000 A 
ATOM     16  C   UNL d   1      33.043  19.330 -21.733  0.00  0.00     0.000 A 
ATOM     17  C   UNL d   1      33.184  18.601 -22.095  0.00  0.00     0.000 A 
ATOM     18  C   UNL d   1      33.101  18.533 -22.925  0.00  0.00     0.000 A 
ATOM     19  C   UNL d   1      32.881  19.188 -23.376  0.00  0.00     0.000 A 
ATOM     20  C   UNL d   1      33.241  17.805 -23.291  0.00  0.00     0.000 C 
ATOM     21  C   UNL d   1      32.741  19.915 -23.010  0.00  0.00     0.000 A 
ENDBRANCH   2  15
TORSDOF 6
ENDMDL
MODEL 2
REMARK VINA RESULT:      -2.2      3.918      5.828
REMARK  6 active torsions:
REMARK  status: ('A' for Active; 'I' for Inactive)
REMARK    1  A    between atoms: C_2  and  S_1 
REMARK    2  A    between atoms: N_5  and  S_1 
REMARK    3  A    between atoms: C_14  and  N_5 
REMARK    4  A    between atoms: C_7  and  C_6 
REMARK    5  A    between atoms: C_19  and  C_14 
REMARK    6  A    between atoms: O_18  and  C_19 
ROOT
ATOM      1  C   UNL d   1      32.666  17.673 -23.951  0.00  0.00     0.105 A 
ATOM      2  C   UNL d   1      32.860  19.009 -22.981  0.00  0.00     0.000 A 
ATOM      3  C   UNL d   1      33.045  17.602 -23.222  0.00  0.00     0.013 A 
ATOM      4  C   UNL d   1      32.383  18.407 -24.198  0.00  0.00     0.013 A 
ATOM      5  C   UNL d   1      32.480  19.079 -23.710  0.00  0.00     0.001 A 
ATOM      6  C   UNL d   1      33.143  18.274 -22.734  0.00  0.00     0.001 A 
ENDROOT
BRANCH   1   7
ATOM      7  S   UNL d   1      32.567  17.011 -24.435  0.00  0.00     0.285 S 
ATOM      8  O   UNL d   1      32.474  16.357 -24.919  0.00  0.00    -0.198 OA
ATOM      9  O   UNL d   1      33.207  17.249 -24.896  0.00  0.00    -0.198 OA
BRANCH   7  10
ATOM     10  N   UNL d   1      31.931  16.771 -23.981  0.00  0.00    -0.155 NA
BRANCH  10  11
ATOM     11  C   UNL d   1      31.423  16.173 -24.256  0.00  0.00     0.138 C 
BRANCH  11  12
ATOM     12  C   UNL d   1      30.887  15.827 -23.741  0.00  0.00     0.138 C 
BRANCH  12  13
ATOM     13  O   UNL d   1      30.082  16.032 -23.775  0.00  0.00    -0.325 OA
ATOM     14  C   UNL d   1      29.500  15.459 -23.682  0.00  0.00     0.182 C 
ENDBRANCH  12  13
ENDBRANCH  11  12
ENDBRANCH  10  11
ENDBRANCH   7  10
ENDBRANCH   1   7
BRANCH   2  15
ATOM     15  C   UNL d   1      32.954  19.668 -22.507  0.00  0.00     0.000 A 
ATOM     16  C   UNL d   1      33.062  20.410 -22.852  0.00  0.00     0.000 A 
ATOM     17  C   UNL d   1      33.157  21.081 -22.379  0.00  0.00     0.000 A 
ATOM     18  C   UNL d   1      33.143  21.002 -21.547  0.00  0.00     0.000 A 
ATOM     19  C   UNL d   1      33.035  20.260 -21.201  0.00  0.00     0.000 A 
ATOM     20  C   UNL d   1      33.238  21.670 -21.071  0.00  0.00     0.000 C 
ATOM     21  C   UNL d   1      32.940  19.591 -21.677  0.00  0.00     0.000 A 
ENDBRANCH   2  15
TORSDOF 6
ENDMDL
MODEL 3
REMARK VINA RESULT:      -1.5      0.715      1.080
REMARK  6 active torsions:
REMARK  status: ('A' for Active; 'I' for Inactive)
REMARK    1  A    between atoms: C_2  and  S_1 
REMARK    2  A    between atoms: N_5  and  S_1 
REMARK    3  A    between atoms: C_14  and  N_5 
REMARK    4  A    between atoms: C_7  and  C_6 
REMARK    5  A    between atoms: C_19  and  C_14 
REMARK    6  A    between atoms: O_18  and  C_19 
ROOT
ATOM      1  C   UNL d   1      33.134  22.183 -21.496  0.00  0.00     0.105 A 
ATOM      2  C   UNL d   1      33.158  20.654 -22.145  0.00  0.00     0.000 A 
ATOM      3  C   UNL d   1      33.052  21.525 -21.006  0.00  0.00     0.013 A 
ATOM      4  C   UNL d   1      33.229  22.081 -22.309  0.00  0.00     0.013 A 
ATOM      5  C   UNL d   1      33.241  21.312 -22.636  0.00  0.00     0.001 A 
ATOM      6  C   UNL d   1      33.064  20.756 -21.332  0.00  0.00     0.001 A 
ENDROOT
BRANCH   1   7
ATOM      7  S   UNL d   1      33.123  22.945 -21.177  0.00  0.00     0.285 S 
ATOM      8  O   UNL d   1      33.112  23.702 -20.865  0.00  0.00    -0.198 OA
ATOM      9  O   UNL d   1      33.098  23.266 -21.934  0.00  0.00    -0.198 OA
BRANCH   7  10
ATOM     10  N   UNL d   1      33.148  22.630 -20.422  0.00  0.00    -0.155 NA
BRANCH  10  11
ATOM     11  C   UNL d   1      33.161  23.134 -19.760  0.00  0.00     0.138 C 
BRANCH  11  12
ATOM     12  C   UNL d   1      33.237  22.814 -19.009  0.00  0.00     0.138 C 
BRANCH  12  13
ATOM     13  O   UNL d   1      32.834  23.155 -18.366  0.00  0.00    -0.325 OA
ATOM     14  C   UNL d   1      33.150  23.122 -17.609  0.00  0.00     0.182 C 
ENDBRANCH  12  13
ENDBRANCH  11  12
ENDBRANCH  10  11
ENDBRANCH   7  10
ENDBRANCH   1   7
BRANCH   2  15
ATOM     15  C   UNL d   1      33.171  19.902 -22.469  0.00  0.00     0.000 A 
ATOM     16  C   UNL d   1      33.144  19.807 -23.288  0.00  0.00     0.000 A 
ATOM     17  C   UNL d   1      33.156  19.052 -23.622  0.00  0.00     0.000 A 
ATOM     18  C   UNL d   1      33.196  18.383 -23.122  0.00  0.00     0.000 A 
ATOM     19  C   UNL d   1      33.222  18.477 -22.302  0.00  0.00     0.000 A 
ATOM     20  C   UNL d   1      33.208  17.626 -23.452  0.00  0.00     0.000 C 
ATOM     21  C   UNL d   1      33.210  19.234 -21.972  0.00  0.00     0.000 A 
ENDBRANCH   2  15
TORSDOF 6
ENDMDL
MODEL 4
REMARK VINA RESULT:      -1.5      3.020      5.073
REMARK  6 active torsions:
REMARK  status: ('A' for Active; 'I' for Inactive)
REMARK    1  A    between atoms: C_2  and  S_1 
REMARK    2  A    between atoms: N_5  and  S_1 
REMARK    3  A    between atoms: C_14  and  N_5 
REMARK    4  A    between atoms: C_7  and  C_6 
REMARK    5  A    between atoms: C_19  and  C_14 
REMARK    6  A    between atoms: O_18  and  C_19 
ROOT
ATOM      1  C   UNL d   1      32.871  19.342 -23.310  0.00  0.00     0.105 A 
ATOM      2  C   UNL d   1      32.996  20.418 -22.049  0.00  0.00     0.000 A 
ATOM      3  C   UNL d   1      33.078  19.074 -22.558  0.00  0.00     0.013 A 
ATOM      4  C   UNL d   1      32.727  20.144 -23.436  0.00  0.00     0.013 A 
ATOM      5  C   UNL d   1      32.790  20.685 -22.801  0.00  0.00     0.001 A 
ATOM      6  C   UNL d   1      33.141  19.615 -21.923  0.00  0.00     0.001 A 
ENDROOT
BRANCH   1   7
ATOM      7  S   UNL d   1      32.808  18.810 -23.939  0.00  0.00     0.285 S 
ATOM      8  O   UNL d   1      32.748  18.287 -24.566  0.00  0.00    -0.198 OA
ATOM      9  O   UNL d   1      33.241  19.320 -24.419  0.00  0.00    -0.198 OA
BRANCH   7  10
ATOM     10  N   UNL d   1      32.377  18.301 -23.466  0.00  0.00    -0.155 NA
BRANCH  10  11
ATOM     11  C   UNL d   1      32.106  17.576 -23.772  0.00  0.00     0.138 C 
BRANCH  11  12
ATOM     12  C   UNL d   1      31.431  17.231 -23.460  0.00  0.00     0.138 C 
BRANCH  12  13
ATOM     13  O   UNL d   1      31.403  16.410 -23.327  0.00  0.00    -0.325 OA
ATOM     14  C   UNL d   1      30.701  15.994 -23.423  0.00  0.00     0.182 C 
ENDBRANCH  12  13
ENDBRANCH  11  12
ENDBRANCH  10  11
ENDBRANCH   7  10
ENDBRANCH   1   7
BRANCH   2  15
ATOM     15  C   UNL d   1      33.057  20.950 -21.431  0.00  0.00     0.000 A 
ATOM     16  C   UNL d   1      33.104  21.759 -21.589  0.00  0.00     0.000 A 
ATOM     17  C   UNL d   1      33.166  22.302 -20.970  0.00  0.00     0.000 A 
ATOM     18  C   UNL d   1      33.180  22.026 -20.181  0.00  0.00     0.000 A 
ATOM     19  C   UNL d   1      33.132  21.217 -20.023  0.00  0.00     0.000 A 
ATOM     20  C   UNL d   1      33.241  22.566 -19.559  0.00  0.00     0.000 C 
ATOM     21  C   UNL d   1      33.071  20.676 -20.644  0.00  0.00     0.000 A 
ENDBRANCH   2  15
TORSDOF 6
ENDMDL
MODEL 5
REMARK VINA RESULT:      -0.4      1.415      4.734
REMARK  6 active torsions:
REMARK  status: ('A' for Active; 'I' for Inactive)
REMARK    1  A    between atoms: C_2  and  S_1 
REMARK    2  A    between atoms: N_5  and  S_1 
REMARK    3  A    between atoms: C_14  and  N_5 
REMARK    4  A    between atoms: C_7  and  C_6 
REMARK    5  A    between atoms: C_19  and  C_14 
REMARK    6  A    between atoms: O_18  and  C_19 
ROOT
ATOM      1  C   UNL d   1      32.741  22.705 -21.088  0.00  0.00     0.105 A 
ATOM      2  C   UNL d   1      32.762  22.897 -19.437  0.00  0.00     0.000 A 
ATOM      3  C   UNL d   1      32.820  22.047 -20.597  0.00  0.00     0.013 A 
ATOM      4  C   UNL d   1      32.673  23.458 -20.759  0.00  0.00     0.013 A 
ATOM      5  C   UNL d   1      32.683  23.555 -19.929  0.00  0.00     0.001 A 
ATOM      6  C   UNL d   1      32.831  22.143 -19.767  0.00  0.00     0.001 A 
ENDROOT
BRANCH   1   7
ATOM      7  S   UNL d   1      32.731  22.613 -21.909  0.00  0.00     0.285 S 
ATOM      8  O   UNL d   1      32.718  22.527 -22.723  0.00  0.00    -0.198 OA
ATOM      9  O   UNL d   1      32.431  23.375 -21.994  0.00  0.00    -0.198 OA
BRANCH   7  10
ATOM     10  N   UNL d   1      33.028  21.855 -21.830  0.00  0.00    -0.155 NA
BRANCH  10  11
ATOM     11  C   UNL d   1      33.236  21.416 -22.504  0.00  0.00     0.138 C 
BRANCH  11  12
ATOM     12  C   UNL d   1      32.804  20.748 -22.703  0.00  0.00     0.138 C 
BRANCH  12  13
ATOM     13  O   UNL d   1      33.187  20.017 -22.808  0.00  0.00    -0.325 OA
ATOM     14  C   UNL d   1      32.816  19.404 -23.210  0.00  0.00     0.182 C 
ENDBRANCH  12  13
ENDBRANCH  11  12
ENDBRANCH  10  11
ENDBRANCH   7  10
ENDBRANCH   1   7
BRANCH   2  15
ATOM     15  C   UNL d   1      32.772  22.995 -18.625  0.00  0.00     0.000 A 
ATOM     16  C   UNL d   1      33.223  22.488 -18.156  0.00  0.00     0.000 A 
ATOM     17  C   UNL d   1      33.238  22.581 -17.335  0.00  0.00     0.000 A 
ATOM     18  C   UNL d   1      32.792  23.195 -16.984  0.00  0.00     0.000 A 
ATOM     19  C   UNL d   1      32.341  23.702 -17.453  0.00  0.00     0.000 A 
ATOM     20  C   UNL d   1      32.804  23.291 -16.163  0.00  0.00     0.000 C 
ATOM     21  C   UNL d   1      32.328  23.606 -18.274  0.00  0.00     0.000 A 
ENDBRANCH   2  15
TORSDOF 6
ENDMDL
