MODEL 1
REMARK VINA RESULT:      -2.6      0.000      0.000
REMARK  1 active torsions:
REMARK  status: ('A' for Active; 'I' for Inactive)
REMARK    1  A    between atoms: C_9  and  C_3 
ROOT
ATOM      1  N   UNL d   1      29.886  16.205 -24.270  0.00  0.00    -0.145 NA
ATOM      2  N   UNL d   1      29.072  16.082 -24.267  0.00  0.00    -0.106 NA
ATOM      3  C   UNL d   1      30.341  15.977 -23.617  0.00  0.00     0.103 A 
ATOM      4  C   UNL d   1      28.709  15.732 -23.614  0.00  0.00     0.297 A 
ATOM      5  C   UNL d   1      29.985  15.626 -22.961  0.00  0.00     0.026 A 
ATOM      6  C   UNL d   1      29.163  15.505 -22.963  0.00  0.00     0.066 A 
ATOM      7  O   UNL d   1      27.895  15.610 -23.612  0.00  0.00    -0.264 OA
ENDROOT
BRANCH   3   8
ATOM      8  C   UNL d   1      31.156  16.099 -23.620  0.00  0.00     0.022 A 
ATOM      9  C   UNL d   1      31.461  16.869 -23.566  0.00  0.00     0.022 A 
ATOM     10  C   UNL d   1      32.276  16.992 -23.568  0.00  0.00     0.099 A 
ATOM     11  N   UNL d   1      32.790  16.350 -23.625  0.00  0.00    -0.242 NA
ATOM     12  C   UNL d   1      32.481  15.577 -23.680  0.00  0.00     0.099 A 
ATOM     13  C   UNL d   1      31.666  15.454 -23.677  0.00  0.00     0.022 A 
ENDBRANCH   3   8
TORSDOF 1
ENDMDL
MODEL 2
REMARK VINA RESULT:      -2.4      6.175      7.131
REMARK  1 active torsions:
REMARK  status: ('A' for Active; 'I' for Inactive)
REMARK    1  A    between atoms: C_9  and  C_3 
ROOT
ATOM      1  N   UNL d   1      32.122  22.459 -20.832  0.00  0.00    -0.145 NA
ATOM      2  N   UNL d   1      31.973  23.044 -20.272  0.00  0.00    -0.106 NA
ATOM      3  C   UNL d   1      32.755  21.938 -20.726  0.00  0.00     0.103 A 
ATOM      4  C   UNL d   1      32.454  23.110 -19.605  0.00  0.00     0.297 A 
ATOM      5  C   UNL d   1      33.241  21.998 -20.062  0.00  0.00     0.026 A 
ATOM      6  C   UNL d   1      33.086  22.590 -19.499  0.00  0.00     0.066 A 
ATOM      7  O   UNL d   1      32.304  23.696 -19.045  0.00  0.00    -0.264 OA
ENDROOT
BRANCH   3   8
ATOM      8  C   UNL d   1      32.905  21.353 -21.286  0.00  0.00     0.022 A 
ATOM      9  C   UNL d   1      33.088  21.562 -22.068  0.00  0.00     0.022 A 
ATOM     10  C   UNL d   1      33.238  20.977 -22.629  0.00  0.00     0.099 A 
ATOM     11  N   UNL d   1      33.206  20.181 -22.414  0.00  0.00    -0.242 NA
ATOM     12  C   UNL d   1      33.022  19.974 -21.628  0.00  0.00     0.099 A 
ATOM     13  C   UNL d   1      32.872  20.558 -21.067  0.00  0.00     0.022 A 
ENDBRANCH   3   8
TORSDOF 1
ENDMDL
MODEL 3
REMARK VINA RESULT:      -2.4      1.630      2.364
REMARK  1 active torsions:
REMARK  status: ('A' for Active; 'I' for Inactive)
REMARK    1  A    between atoms: C_9  and  C_3 
ROOT
ATOM      1  N   UNL d   1      30.855  17.444 -24.279  0.00  0.00    -0.145 NA
ATOM      2  N   UNL d   1      30.327  16.821 -24.180  0.00  0.00    -0.106 NA
ATOM      3  C   UNL d   1      31.629  17.378 -23.995  0.00  0.00     0.103 A 
ATOM      4  C   UNL d   1      30.567  16.131 -23.797  0.00  0.00     0.297 A 
ATOM      5  C   UNL d   1      31.877  16.692 -23.610  0.00  0.00     0.026 A 
ATOM      6  C   UNL d   1      31.340  16.066 -23.513  0.00  0.00     0.066 A 
ATOM      7  O   UNL d   1      30.038  15.508 -23.698  0.00  0.00    -0.264 OA
ENDROOT
BRANCH   3   8
ATOM      8  C   UNL d   1      32.158  18.002 -24.094  0.00  0.00     0.022 A 
ATOM      9  C   UNL d   1      32.383  18.240 -24.857  0.00  0.00     0.022 A 
ATOM     10  C   UNL d   1      32.912  18.864 -24.956  0.00  0.00     0.099 A 
ATOM     11  N   UNL d   1      33.220  19.253 -24.297  0.00  0.00    -0.242 NA
ATOM     12  C   UNL d   1      32.993  19.012 -23.532  0.00  0.00     0.099 A 
ATOM     13  C   UNL d   1      32.464  18.388 -23.432  0.00  0.00     0.022 A 
ENDBRANCH   3   8
TORSDOF 1
ENDMDL
MODEL 4
REMARK VINA RESULT:      -2.4      1.774      3.127
REMARK  1 active torsions:
REMARK  status: ('A' for Active; 'I' for Inactive)
REMARK    1  A    between atoms: C_9  and  C_3 
ROOT
ATOM      1  N   UNL d   1      30.606  17.326 -24.413  0.00  0.00    -0.145 NA
ATOM      2  N   UNL d   1      31.336  17.700 -24.336  0.00  0.00    -0.106 NA
ATOM      3  C   UNL d   1      30.489  16.577 -24.082  0.00  0.00     0.103 A 
ATOM      4  C   UNL d   1      31.950  17.328 -23.928  0.00  0.00     0.297 A 
ATOM      5  C   UNL d   1      31.098  16.199 -23.673  0.00  0.00     0.026 A 
ATOM      6  C   UNL d   1      31.832  16.580 -23.598  0.00  0.00     0.066 A 
ATOM      7  O   UNL d   1      32.679  17.703 -23.852  0.00  0.00    -0.264 OA
ENDROOT
BRANCH   3   8
ATOM      8  C   UNL d   1      29.759  16.203 -24.159  0.00  0.00     0.022 A 
ATOM      9  C   UNL d   1      29.221  16.205 -23.527  0.00  0.00     0.022 A 
ATOM     10  C   UNL d   1      28.491  15.831 -23.604  0.00  0.00     0.099 A 
ATOM     11  N   UNL d   1      28.293  15.453 -24.310  0.00  0.00    -0.242 NA
ATOM     12  C   UNL d   1      28.835  15.453 -24.944  0.00  0.00     0.099 A 
ATOM     13  C   UNL d   1      29.565  15.826 -24.867  0.00  0.00     0.022 A 
ENDBRANCH   3   8
TORSDOF 1
ENDMDL
MODEL 5
REMARK VINA RESULT:      -2.3      2.257      3.436
REMARK  1 active torsions:
REMARK  status: ('A' for Active; 'I' for Inactive)
REMARK    1  A    between atoms: C_9  and  C_3 
ROOT
ATOM      1  N   UNL d   1      32.174  17.928 -23.448  0.00  0.00    -0.145 NA
ATOM      2  N   UNL d   1      32.628  18.590 -23.629  0.00  0.00    -0.106 NA
ATOM      3  C   UNL d   1      31.876  17.452 -24.056  0.00  0.00     0.103 A 
ATOM      4  C   UNL d   1      32.787  18.781 -24.416  0.00  0.00     0.297 A 
ATOM      5  C   UNL d   1      32.031  17.636 -24.845  0.00  0.00     0.026 A 
ATOM      6  C   UNL d   1      32.489  18.306 -25.022  0.00  0.00     0.066 A 
ATOM      7  O   UNL d   1      33.241  19.444 -24.596  0.00  0.00    -0.264 OA
ENDROOT
BRANCH   3   8
ATOM      8  C   UNL d   1      31.422  16.789 -23.875  0.00  0.00     0.022 A 
ATOM      9  C   UNL d   1      30.604  16.794 -24.016  0.00  0.00     0.022 A 
ATOM     10  C   UNL d   1      30.150  16.131 -23.835  0.00  0.00     0.099 A 
ATOM     11  N   UNL d   1      30.506  15.461 -23.513  0.00  0.00    -0.242 NA
ATOM     12  C   UNL d   1      31.328  15.459 -23.372  0.00  0.00     0.099 A 
ATOM     13  C   UNL d   1      31.783  16.121 -23.553  0.00  0.00     0.022 A 
ENDBRANCH   3   8
TORSDOF 1
ENDMDL
MODEL 6
REMARK VINA RESULT:      -1.7      6.062      7.131
REMARK  1 active torsions:
REMARK  status: ('A' for Active; 'I' for Inactive)
REMARK    1  A    between atoms: C_9  and  C_3 
ROOT
ATOM      1  N   UNL d   1      32.441  20.947 -20.906  0.00  0.00    -0.145 NA
ATOM      2  N   UNL d   1      32.530  20.271 -21.367  0.00  0.00    -0.106 NA
ATOM      3  C   UNL d   1      32.752  21.669 -21.166  0.00  0.00     0.103 A 
ATOM      4  C   UNL d   1      32.930  20.312 -22.088  0.00  0.00     0.297 A 
ATOM      5  C   UNL d   1      33.153  21.717 -21.885  0.00  0.00     0.026 A 
ATOM      6  C   UNL d   1      33.241  21.032 -22.347  0.00  0.00     0.066 A 
ATOM      7  O   UNL d   1      33.019  19.635 -22.548  0.00  0.00    -0.264 OA
ENDROOT
BRANCH   3   8
ATOM      8  C   UNL d   1      32.663  22.346 -20.705  0.00  0.00     0.022 A 
ATOM      9  C   UNL d   1      33.054  22.407 -19.975  0.00  0.00     0.022 A 
ATOM     10  C   UNL d   1      32.964  23.084 -19.514  0.00  0.00     0.099 A 
ATOM     11  N   UNL d   1      32.486  23.703 -19.776  0.00  0.00    -0.242 NA
ATOM     12  C   UNL d   1      32.095  23.638 -20.510  0.00  0.00     0.099 A 
ATOM     13  C   UNL d   1      32.184  22.962 -20.971  0.00  0.00     0.022 A 
ENDBRANCH   3   8
TORSDOF 1
ENDMDL
