MODEL 1
REMARK VINA RESULT:      -6.6      0.000      0.000
REMARK  5 active torsions:
REMARK  status: ('A' for Active; 'I' for Inactive)
REMARK    1  A    between atoms: N_4  and  C_1 
REMARK    2  A    between atoms: C_8  and  C_3 
REMARK       I    between atoms: C_7  and  N_4 
REMARK    3  A    between atoms: C_11  and  C_7 
REMARK    4  A    between atoms: C_12  and  C_11 
REMARK    5  A    between atoms: O_18  and  C_13 
ROOT
ATOM      1  N   UNL d   1     -47.024  13.110  23.650  0.00  0.00    -0.183 NA
ATOM      2  C   UNL d   1     -47.321  13.455  22.962  0.00  0.00     0.281 C 
ATOM      3  O   UNL d   1     -47.237  13.061  22.235  0.00  0.00    -0.265 OA
ENDROOT
BRANCH   1   4
ATOM      4  C   UNL d   1     -46.645  12.375  23.611  0.00  0.00     0.197 A 
ATOM      5  N   UNL d   1     -45.849  12.252  23.487  0.00  0.00    -0.221 NA
ATOM      6  C   UNL d   1     -45.708  11.440  23.489  0.00  0.00     0.090 A 
ATOM      7  C   UNL d   1     -46.432  11.064  23.615  0.00  0.00     0.058 A 
ATOM      8  S   UNL d   1     -47.012  11.656  23.691  0.00  0.00    -0.046 SA
BRANCH   6   9
ATOM      9  C   UNL d   1     -44.992  11.076  23.385  0.00  0.00     0.021 A 
ATOM     10  C   UNL d   1     -44.396  11.468  22.965  0.00  0.00     0.022 A 
ATOM     11  C   UNL d   1     -43.663  11.096  22.859  0.00  0.00     0.099 A 
ATOM     12  N   UNL d   1     -43.537  10.341  23.173  0.00  0.00    -0.242 NA
ATOM     13  C   UNL d   1     -44.125   9.956  23.586  0.00  0.00     0.099 A 
ATOM     14  C   UNL d   1     -44.864  10.323  23.697  0.00  0.00     0.022 A 
ENDBRANCH   6   9
ENDBRANCH   1   4
BRANCH   2  15
ATOM     15  C   UNL d   1     -47.700  14.186  22.994  0.00  0.00     0.063 C 
BRANCH  15  16
ATOM     16  C   UNL d   1     -48.468  14.258  22.714  0.00  0.00     0.005 A 
ATOM     17  C   UNL d   1     -48.615  14.259  21.891  0.00  0.00     0.002 A 
ATOM     18  C   UNL d   1     -49.386  14.332  21.619  0.00  0.00     0.024 A 
ATOM     19  C   UNL d   1     -50.012  14.402  22.140  0.00  0.00     0.094 A 
ATOM     20  C   UNL d   1     -49.865  14.401  22.963  0.00  0.00     0.024 A 
ATOM     21  C   UNL d   1     -49.097  14.329  23.243  0.00  0.00     0.002 A 
BRANCH  19  22
ATOM     22  O   UNL d   1     -50.787  14.475  21.869  0.00  0.00    -0.328 OA
ATOM     23  C   UNL d   1     -51.064  14.016  21.253  0.00  0.00     0.181 C 
ENDBRANCH  19  22
ENDBRANCH  15  16
ENDBRANCH   2  15
TORSDOF 5
ENDMDL
MODEL 2
REMARK VINA RESULT:      -6.5      7.938      9.649
REMARK  5 active torsions:
REMARK  status: ('A' for Active; 'I' for Inactive)
REMARK    1  A    between atoms: N_4  and  C_1 
REMARK    2  A    between atoms: C_8  and  C_3 
REMARK       I    between atoms: C_7  and  N_4 
REMARK    3  A    between atoms: C_11  and  C_7 
REMARK    4  A    between atoms: C_12  and  C_11 
REMARK    5  A    between atoms: O_18  and  C_13 
ROOT
ATOM      1  N   UNL d   1     -40.698  14.617  19.048  0.00  0.00    -0.183 NA
ATOM      2  C   UNL d   1     -40.564  15.161  19.653  0.00  0.00     0.281 C 
ATOM      3  O   UNL d   1     -40.198  15.887  19.479  0.00  0.00    -0.265 OA
ENDROOT
BRANCH   1   4
ATOM      4  C   UNL d   1     -40.469  14.797  18.273  0.00  0.00     0.197 A 
ATOM      5  N   UNL d   1     -39.756  14.607  17.928  0.00  0.00    -0.221 NA
ATOM      6  C   UNL d   1     -39.759  14.890  17.154  0.00  0.00     0.090 A 
ATOM      7  C   UNL d   1     -40.487  15.258  17.028  0.00  0.00     0.058 A 
ATOM      8  S   UNL d   1     -40.925  15.195  17.733  0.00  0.00    -0.046 SA
BRANCH   6   9
ATOM      9  C   UNL d   1     -39.159  14.820  16.615  0.00  0.00     0.021 A 
ATOM     10  C   UNL d   1     -38.815  15.504  16.301  0.00  0.00     0.022 A 
ATOM     11  C   UNL d   1     -38.200  15.433  15.749  0.00  0.00     0.099 A 
ATOM     12  N   UNL d   1     -37.940  14.682  15.520  0.00  0.00    -0.242 NA
ATOM     13  C   UNL d   1     -38.279  14.009  15.831  0.00  0.00     0.099 A 
ATOM     14  C   UNL d   1     -38.897  14.071  16.385  0.00  0.00     0.022 A 
ENDBRANCH   6   9
ENDBRANCH   1   4
BRANCH   2  15
ATOM     15  C   UNL d   1     -40.790  14.988  20.426  0.00  0.00     0.063 C 
BRANCH  15  16
ATOM     16  C   UNL d   1     -40.250  15.081  21.038  0.00  0.00     0.005 A 
ATOM     17  C   UNL d   1     -40.118  15.838  21.368  0.00  0.00     0.002 A 
ATOM     18  C   UNL d   1     -39.576  15.922  21.979  0.00  0.00     0.024 A 
ATOM     19  C   UNL d   1     -39.165  15.278  22.269  0.00  0.00     0.094 A 
ATOM     20  C   UNL d   1     -39.297  14.522  21.939  0.00  0.00     0.024 A 
ATOM     21  C   UNL d   1     -39.837  14.429  21.327  0.00  0.00     0.002 A 
BRANCH  19  22
ATOM     22  O   UNL d   1     -38.620  15.361  22.882  0.00  0.00    -0.328 OA
ATOM     23  C   UNL d   1     -38.728  15.916  23.472  0.00  0.00     0.181 C 
ENDBRANCH  19  22
ENDBRANCH  15  16
ENDBRANCH   2  15
TORSDOF 5
ENDMDL
MODEL 3
REMARK VINA RESULT:      -5.8      1.536      1.960
REMARK  5 active torsions:
REMARK  status: ('A' for Active; 'I' for Inactive)
REMARK    1  A    between atoms: N_4  and  C_1 
REMARK    2  A    between atoms: C_8  and  C_3 
REMARK       I    between atoms: C_7  and  N_4 
REMARK    3  A    between atoms: C_11  and  C_7 
REMARK    4  A    between atoms: C_12  and  C_11 
REMARK    5  A    between atoms: O_18  and  C_13 
ROOT
ATOM      1  N   UNL d   1     -48.334  12.116  23.585  0.00  0.00    -0.183 NA
ATOM      2  C   UNL d   1     -48.883  11.981  22.984  0.00  0.00     0.281 C 
ATOM      3  O   UNL d   1     -48.620  11.732  22.236  0.00  0.00    -0.265 OA
ENDROOT
BRANCH   1   4
ATOM      4  C   UNL d   1     -47.527  12.003  23.439  0.00  0.00     0.197 A 
ATOM      5  N   UNL d   1     -47.041  12.503  23.018  0.00  0.00    -0.221 NA
ATOM      6  C   UNL d   1     -46.283  12.181  23.007  0.00  0.00     0.090 A 
ATOM      7  C   UNL d   1     -46.309  11.472  23.429  0.00  0.00     0.058 A 
ATOM      8  S   UNL d   1     -47.091  11.369  23.696  0.00  0.00    -0.046 SA
BRANCH   6   9
ATOM      9  C   UNL d   1     -45.631  12.501  22.649  0.00  0.00     0.021 A 
ATOM     10  C   UNL d   1     -44.965  12.025  22.521  0.00  0.00     0.022 A 
ATOM     11  C   UNL d   1     -44.297  12.351  22.155  0.00  0.00     0.099 A 
ATOM     12  N   UNL d   1     -44.304  13.145  21.921  0.00  0.00    -0.242 NA
ATOM     13  C   UNL d   1     -44.961  13.612  22.047  0.00  0.00     0.099 A 
ATOM     14  C   UNL d   1     -45.635  13.293  22.415  0.00  0.00     0.022 A 
ENDBRANCH   6   9
ENDBRANCH   1   4
BRANCH   2  15
ATOM     15  C   UNL d   1     -49.687  12.091  23.123  0.00  0.00     0.063 C 
BRANCH  15  16
ATOM     16  C   UNL d   1     -50.017  12.837  23.030  0.00  0.00     0.005 A 
ATOM     17  C   UNL d   1     -50.071  13.179  22.269  0.00  0.00     0.002 A 
ATOM     18  C   UNL d   1     -50.402  13.925  22.184  0.00  0.00     0.024 A 
ATOM     19  C   UNL d   1     -50.679  14.339  22.832  0.00  0.00     0.094 A 
ATOM     20  C   UNL d   1     -50.625  13.998  23.594  0.00  0.00     0.024 A 
ATOM     21  C   UNL d   1     -50.295  13.251  23.687  0.00  0.00     0.002 A 
BRANCH  19  22
ATOM     22  O   UNL d   1     -51.011  15.089  22.749  0.00  0.00    -0.328 OA
ATOM     23  C   UNL d   1     -50.548  15.762  22.772  0.00  0.00     0.181 C 
ENDBRANCH  19  22
ENDBRANCH  15  16
ENDBRANCH   2  15
TORSDOF 5
ENDMDL
MODEL 4
REMARK VINA RESULT:      -5.5      1.946      5.229
REMARK  5 active torsions:
REMARK  status: ('A' for Active; 'I' for Inactive)
REMARK    1  A    between atoms: N_4  and  C_1 
REMARK    2  A    between atoms: C_8  and  C_3 
REMARK       I    between atoms: C_7  and  N_4 
REMARK    3  A    between atoms: C_11  and  C_7 
REMARK    4  A    between atoms: C_12  and  C_11 
REMARK    5  A    between atoms: O_18  and  C_13 
ROOT
ATOM      1  N   UNL d   1     -48.077  11.782  23.119  0.00  0.00    -0.183 NA
ATOM      2  C   UNL d   1     -47.409  12.179  23.396  0.00  0.00     0.281 C 
ATOM      3  O   UNL d   1     -47.484  12.951  23.694  0.00  0.00    -0.265 OA
ENDROOT
BRANCH   1   4
ATOM      4  C   UNL d   1     -48.815  12.155  23.139  0.00  0.00     0.197 A 
ATOM      5  N   UNL d   1     -49.009  12.856  22.773  0.00  0.00    -0.221 NA
ATOM      6  C   UNL d   1     -49.799  13.025  22.935  0.00  0.00     0.090 A 
ATOM      7  C   UNL d   1     -50.090  12.415  23.409  0.00  0.00     0.058 A 
ATOM      8  S   UNL d   1     -49.468  11.875  23.531  0.00  0.00    -0.046 SA
BRANCH   6   9
ATOM      9  C   UNL d   1     -50.215  13.671  22.679  0.00  0.00     0.021 A 
ATOM     10  C   UNL d   1     -50.638  13.624  21.969  0.00  0.00     0.022 A 
ATOM     11  C   UNL d   1     -51.064  14.284  21.706  0.00  0.00     0.099 A 
ATOM     12  N   UNL d   1     -51.061  14.980  22.154  0.00  0.00    -0.242 NA
ATOM     13  C   UNL d   1     -50.643  15.025  22.853  0.00  0.00     0.099 A 
ATOM     14  C   UNL d   1     -50.212  14.366  23.124  0.00  0.00     0.022 A 
ENDBRANCH   6   9
ENDBRANCH   1   4
BRANCH   2  15
ATOM     15  C   UNL d   1     -46.671  11.814  23.379  0.00  0.00     0.063 C 
BRANCH  15  16
ATOM     16  C   UNL d   1     -46.050  12.171  22.977  0.00  0.00     0.005 A 
ATOM     17  C   UNL d   1     -45.303  11.798  22.945  0.00  0.00     0.002 A 
ATOM     18  C   UNL d   1     -44.688  12.162  22.541  0.00  0.00     0.024 A 
ATOM     19  C   UNL d   1     -44.795  12.883  22.171  0.00  0.00     0.094 A 
ATOM     20  C   UNL d   1     -45.542  13.256  22.204  0.00  0.00     0.024 A 
ATOM     21  C   UNL d   1     -46.163  12.899  22.605  0.00  0.00     0.002 A 
BRANCH  19  22
ATOM     22  O   UNL d   1     -44.178  13.250  21.765  0.00  0.00    -0.328 OA
ATOM     23  C   UNL d   1     -43.595  12.812  21.396  0.00  0.00     0.181 C 
ENDBRANCH  19  22
ENDBRANCH  15  16
ENDBRANCH   2  15
TORSDOF 5
ENDMDL
MODEL 5
REMARK VINA RESULT:      -5.3      8.078      9.434
REMARK  5 active torsions:
REMARK  status: ('A' for Active; 'I' for Inactive)
REMARK    1  A    between atoms: N_4  and  C_1 
REMARK    2  A    between atoms: C_8  and  C_3 
REMARK       I    between atoms: C_7  and  N_4 
REMARK    3  A    between atoms: C_11  and  C_7 
REMARK    4  A    between atoms: C_12  and  C_11 
REMARK    5  A    between atoms: O_18  and  C_13 
ROOT
ATOM      1  N   UNL d   1     -40.645  14.763  19.434  0.00  0.00    -0.183 NA
ATOM      2  C   UNL d   1     -40.369  15.148  18.760  0.00  0.00     0.281 C 
ATOM      3  O   UNL d   1     -39.928  15.848  18.838  0.00  0.00    -0.265 OA
ENDROOT
BRANCH   1   4
ATOM      4  C   UNL d   1     -40.483  15.076  20.183  0.00  0.00     0.197 A 
ATOM      5  N   UNL d   1     -39.888  14.835  20.685  0.00  0.00    -0.221 NA
ATOM      6  C   UNL d   1     -39.924  15.292  21.369  0.00  0.00     0.090 A 
ATOM      7  C   UNL d   1     -40.553  15.820  21.281  0.00  0.00     0.058 A 
ATOM      8  S   UNL d   1     -40.896  15.677  20.536  0.00  0.00    -0.046 SA
BRANCH   6   9
ATOM      9  C   UNL d   1     -39.433  15.236  22.011  0.00  0.00     0.021 A 
ATOM     10  C   UNL d   1     -39.226  15.922  22.424  0.00  0.00     0.022 A 
ATOM     11  C   UNL d   1     -38.724  15.865  23.081  0.00  0.00     0.099 A 
ATOM     12  N   UNL d   1     -38.438  15.124  23.315  0.00  0.00    -0.242 NA
ATOM     13  C   UNL d   1     -38.643  14.448  22.907  0.00  0.00     0.099 A 
ATOM     14  C   UNL d   1     -39.146  14.498  22.246  0.00  0.00     0.022 A 
ENDBRANCH   6   9
ENDBRANCH   1   4
BRANCH   2  15
ATOM     15  C   UNL d   1     -40.527  14.842  18.011  0.00  0.00     0.063 C 
BRANCH  15  16
ATOM     16  C   UNL d   1     -39.910  14.717  17.485  0.00  0.00     0.005 A 
ATOM     17  C   UNL d   1     -39.692  15.317  16.945  0.00  0.00     0.002 A 
ATOM     18  C   UNL d   1     -39.074  15.184  16.422  0.00  0.00     0.024 A 
ATOM     19  C   UNL d   1     -38.668  14.474  16.420  0.00  0.00     0.094 A 
ATOM     20  C   UNL d   1     -38.886  13.874  16.960  0.00  0.00     0.024 A 
ATOM     21  C   UNL d   1     -39.503  13.999  17.487  0.00  0.00     0.002 A 
BRANCH  19  22
ATOM     22  O   UNL d   1     -38.047  14.339  15.896  0.00  0.00    -0.328 OA
ATOM     23  C   UNL d   1     -38.022  13.665  15.434  0.00  0.00     0.181 C 
ENDBRANCH  19  22
ENDBRANCH  15  16
ENDBRANCH   2  15
TORSDOF 5
ENDMDL
MODEL 6
REMARK VINA RESULT:      -4.8      8.605      9.234
REMARK  5 active torsions:
REMARK  status: ('A' for Active; 'I' for Inactive)
REMARK    1  A    between atoms: N_4  and  C_1 
REMARK    2  A    between atoms: C_8  and  C_3 
REMARK       I    between atoms: C_7  and  N_4 
REMARK    3  A    between atoms: C_11  and  C_7 
REMARK    4  A    between atoms: C_12  and  C_11 
REMARK    5  A    between atoms: O_18  and  C_13 
ROOT
ATOM      1  N   UNL d   1     -38.947  13.684  19.046  0.00  0.00    -0.183 NA
ATOM      2  C   UNL d   1     -38.695  14.186  18.442  0.00  0.00     0.281 C 
ATOM      3  O   UNL d   1     -38.179  14.812  18.617  0.00  0.00    -0.265 OA
ENDROOT
BRANCH   1   4
ATOM      4  C   UNL d   1     -38.684  13.808  19.821  0.00  0.00     0.197 A 
ATOM      5  N   UNL d   1     -39.073  14.234  20.397  0.00  0.00    -0.221 NA
ATOM      6  C   UNL d   1     -38.618  14.217  21.084  0.00  0.00     0.090 A 
ATOM      7  C   UNL d   1     -37.940  13.774  20.922  0.00  0.00     0.058 A 
ATOM      8  S   UNL d   1     -37.991  13.522  20.129  0.00  0.00    -0.046 SA
BRANCH   6   9
ATOM      9  C   UNL d   1     -38.800  14.571  21.789  0.00  0.00     0.021 A 
ATOM     10  C   UNL d   1     -39.183  15.304  21.788  0.00  0.00     0.022 A 
ATOM     11  C   UNL d   1     -39.369  15.667  22.510  0.00  0.00     0.099 A 
ATOM     12  N   UNL d   1     -39.171  15.291  23.220  0.00  0.00    -0.242 NA
ATOM     13  C   UNL d   1     -38.794  14.568  23.220  0.00  0.00     0.099 A 
ATOM     14  C   UNL d   1     -38.603  14.198  22.500  0.00  0.00     0.022 A 
ENDBRANCH   6   9
ENDBRANCH   1   4
BRANCH   2  15
ATOM     15  C   UNL d   1     -38.953  14.067  17.669  0.00  0.00     0.063 C 
BRANCH  15  16
ATOM     16  C   UNL d   1     -39.562  14.529  17.369  0.00  0.00     0.005 A 
ATOM     17  C   UNL d   1     -39.389  15.248  16.979  0.00  0.00     0.002 A 
ATOM     18  C   UNL d   1     -40.004  15.703  16.682  0.00  0.00     0.024 A 
ATOM     19  C   UNL d   1     -40.782  15.465  16.761  0.00  0.00     0.094 A 
ATOM     20  C   UNL d   1     -40.955  14.746  17.151  0.00  0.00     0.024 A 
ATOM     21  C   UNL d   1     -40.346  14.284  17.451  0.00  0.00     0.002 A 
BRANCH  19  22
ATOM     22  O   UNL d   1     -41.401  15.921  16.464  0.00  0.00    -0.328 OA
ATOM     23  C   UNL d   1     -41.958  15.601  15.959  0.00  0.00     0.181 C 
ENDBRANCH  19  22
ENDBRANCH  15  16
ENDBRANCH   2  15
TORSDOF 5
ENDMDL
MODEL 7
REMARK VINA RESULT:      -4.0      3.899      6.397
REMARK  5 active torsions:
REMARK  status: ('A' for Active; 'I' for Inactive)
REMARK    1  A    between atoms: N_4  and  C_1 
REMARK    2  A    between atoms: C_8  and  C_3 
REMARK       I    between atoms: C_7  and  N_4 
REMARK    3  A    between atoms: C_11  and  C_7 
REMARK    4  A    between atoms: C_12  and  C_11 
REMARK    5  A    between atoms: O_18  and  C_13 
ROOT
ATOM      1  N   UNL d   1     -43.297  12.927  20.959  0.00  0.00    -0.183 NA
ATOM      2  C   UNL d   1     -42.613  13.329  21.185  0.00  0.00     0.281 C 
ATOM      3  O   UNL d   1     -42.519  13.567  21.976  0.00  0.00    -0.265 OA
ENDROOT
BRANCH   1   4
ATOM      4  C   UNL d   1     -43.883  12.763  21.520  0.00  0.00     0.197 A 
ATOM      5  N   UNL d   1     -44.557  13.201  21.652  0.00  0.00    -0.221 NA
ATOM      6  C   UNL d   1     -44.985  12.843  22.257  0.00  0.00     0.090 A 
ATOM      7  C   UNL d   1     -44.564  12.175  22.498  0.00  0.00     0.058 A 
ATOM      8  S   UNL d   1     -43.875  12.133  22.031  0.00  0.00    -0.046 SA
BRANCH   6   9
ATOM      9  C   UNL d   1     -45.691  13.098  22.562  0.00  0.00     0.021 A 
ATOM     10  C   UNL d   1     -45.891  13.899  22.506  0.00  0.00     0.022 A 
ATOM     11  C   UNL d   1     -46.613  14.161  22.818  0.00  0.00     0.099 A 
ATOM     12  N   UNL d   1     -47.123  13.619  23.181  0.00  0.00    -0.242 NA
ATOM     13  C   UNL d   1     -46.925  12.830  23.235  0.00  0.00     0.099 A 
ATOM     14  C   UNL d   1     -46.202  12.559  22.924  0.00  0.00     0.022 A 
ENDBRANCH   6   9
ENDBRANCH   1   4
BRANCH   2  15
ATOM     15  C   UNL d   1     -42.026  13.495  20.631  0.00  0.00     0.063 C 
BRANCH  15  16
ATOM     16  C   UNL d   1     -41.456  14.061  20.801  0.00  0.00     0.005 A 
ATOM     17  C   UNL d   1     -40.714  13.829  21.109  0.00  0.00     0.002 A 
ATOM     18  C   UNL d   1     -40.150  14.401  21.276  0.00  0.00     0.024 A 
ATOM     19  C   UNL d   1     -40.303  15.194  21.146  0.00  0.00     0.094 A 
ATOM     20  C   UNL d   1     -41.045  15.426  20.839  0.00  0.00     0.024 A 
ATOM     21  C   UNL d   1     -41.615  14.860  20.669  0.00  0.00     0.002 A 
BRANCH  19  22
ATOM     22  O   UNL d   1     -39.738  15.770  21.314  0.00  0.00    -0.328 OA
ATOM     23  C   UNL d   1     -39.123  15.922  20.798  0.00  0.00     0.181 C 
ENDBRANCH  19  22
ENDBRANCH  15  16
ENDBRANCH   2  15
TORSDOF 5
ENDMDL
