MODEL 1
REMARK VINA RESULT:      -0.4      0.000      0.000
REMARK  3 active torsions:
REMARK  status: ('A' for Active; 'I' for Inactive)
REMARK    1  A    between atoms: C_4  and  N_1 
REMARK    2  A    between atoms: S_5  and  C_6 
REMARK    3  A    between atoms: C_9  and  S_5 
ROOT
ATOM      1  C   UNL d   1     -41.749-122.707 -50.182  0.00  0.00     0.078 A 
ATOM      2  C   UNL d   1     -42.498-122.594 -49.830  0.00  0.00     0.080 A 
ATOM      3  C   UNL d   1     -41.123-122.994 -49.730  0.00  0.00     0.018 A 
ATOM      4  C   UNL d   1     -42.604-122.771 -49.029  0.00  0.00     0.010 A 
ATOM      5  C   UNL d   1     -41.231-123.170 -48.932  0.00  0.00     0.002 A 
ATOM      6  C   UNL d   1     -41.975-123.058 -48.580  0.00  0.00     0.001 A 
ENDROOT
BRANCH   1   7
ATOM      7  N   UNL d   1     -41.640-122.532 -50.977  0.00  0.00    -0.241 N 
ATOM      8  C   UNL d   1     -41.780-123.040 -51.611  0.00  0.00     0.267 A 
ATOM      9  C   UNL d   1     -41.597-122.636 -52.304  0.00  0.00     0.061 A 
ATOM     10  O   UNL d   1     -42.056-123.817 -51.560  0.00  0.00    -0.267 OA
ATOM     11  C   UNL d   1     -41.629-122.863 -53.091  0.00  0.00     0.005 A 
ATOM     12  C   UNL d   1     -41.344-121.881 -52.105  0.00  0.00     0.061 A 
ATOM     13  C   UNL d   1     -41.407-122.333 -53.685  0.00  0.00     0.000 A 
ATOM     14  C   UNL d   1     -41.153-121.571 -53.475  0.00  0.00     0.000 A 
ATOM     15  C   UNL d   1     -41.123-121.349 -52.687  0.00  0.00     0.005 A 
ATOM     16  C   UNL d   1     -41.370-121.812 -51.283  0.00  0.00     0.267 A 
ATOM     17  O   UNL d   1     -41.162-121.144 -50.842  0.00  0.00    -0.267 OA
ENDBRANCH   1   7
BRANCH   2  18
ATOM     18  S   UNL d   1     -43.127-122.307 -50.281  0.00  0.00     0.160 S 
ATOM     19  O   UNL d   1     -43.497-121.934 -50.821  0.00  0.00    -0.244 OA
BRANCH  18  20
ATOM     20  C   UNL d   1     -43.900-122.513 -50.084  0.00  0.00     0.477 C 
ATOM     21  F   UNL d   1     -44.254-123.299 -49.998  0.00  0.00    -0.158 F 
ATOM     22  F   UNL d   1     -44.575-122.001 -49.908  0.00  0.00    -0.158 F 
ATOM     23  F   UNL d   1     -44.604-122.701 -49.904  0.00  0.00    -0.158 F 
ENDBRANCH  18  20
ENDBRANCH   2  18
TORSDOF 3
ENDMDL
MODEL 2
REMARK VINA RESULT:       1.0      1.795      3.555
REMARK  3 active torsions:
REMARK  status: ('A' for Active; 'I' for Inactive)
REMARK    1  A    between atoms: C_4  and  N_1 
REMARK    2  A    between atoms: S_5  and  C_6 
REMARK    3  A    between atoms: C_9  and  S_5 
ROOT
ATOM      1  C   UNL d   1     -42.013-122.720 -51.830  0.00  0.00     0.078 A 
ATOM      2  C   UNL d   1     -41.590-122.032 -52.043  0.00  0.00     0.080 A 
ATOM      3  C   UNL d   1     -42.245-123.256 -52.411  0.00  0.00     0.018 A 
ATOM      4  C   UNL d   1     -41.407-121.896 -52.839  0.00  0.00     0.010 A 
ATOM      5  C   UNL d   1     -42.062-123.117 -53.203  0.00  0.00     0.002 A 
ATOM      6  C   UNL d   1     -41.641-122.434 -53.418  0.00  0.00     0.001 A 
ENDROOT
BRANCH   1   7
ATOM      7  N   UNL d   1     -42.197-122.859 -51.041  0.00  0.00    -0.241 N 
ATOM      8  C   UNL d   1     -41.789-123.359 -50.528  0.00  0.00     0.267 A 
ATOM      9  C   UNL d   1     -42.164-123.330 -49.796  0.00  0.00     0.061 A 
ATOM     10  O   UNL d   1     -41.123-123.810 -50.715  0.00  0.00    -0.267 OA
ATOM     11  C   UNL d   1     -42.004-123.708 -49.087  0.00  0.00     0.005 A 
ATOM     12  C   UNL d   1     -42.802-122.816 -49.852  0.00  0.00     0.061 A 
ATOM     13  C   UNL d   1     -42.483-123.572 -48.427  0.00  0.00     0.000 A 
ATOM     14  C   UNL d   1     -43.126-123.050 -48.492  0.00  0.00     0.000 A 
ATOM     15  C   UNL d   1     -43.281-122.675 -49.203  0.00  0.00     0.005 A 
ATOM     16  C   UNL d   1     -42.825-122.522 -50.622  0.00  0.00     0.267 A 
ATOM     17  O   UNL d   1     -43.378-121.985 -50.925  0.00  0.00    -0.267 OA
ENDBRANCH   1   7
BRANCH   2  18
ATOM     18  S   UNL d   1     -41.357-121.494 -51.463  0.00  0.00     0.160 S 
ATOM     19  O   UNL d   1     -41.160-121.224 -50.788  0.00  0.00    -0.244 OA
BRANCH  18  20
ATOM     20  C   UNL d   1     -41.236-120.704 -51.662  0.00  0.00     0.477 C 
ATOM     21  F   UNL d   1     -41.184-120.009 -51.148  0.00  0.00    -0.158 F 
ATOM     22  F   UNL d   1     -41.126-120.347 -52.443  0.00  0.00    -0.158 F 
ATOM     23  F   UNL d   1     -41.125-119.984 -51.843  0.00  0.00    -0.158 F 
ENDBRANCH  18  20
ENDBRANCH   2  18
TORSDOF 3
ENDMDL
MODEL 3
REMARK VINA RESULT:       1.8      1.826      3.512
REMARK  3 active torsions:
REMARK  status: ('A' for Active; 'I' for Inactive)
REMARK    1  A    between atoms: C_4  and  N_1 
REMARK    2  A    between atoms: S_5  and  C_6 
REMARK    3  A    between atoms: C_9  and  S_5 
ROOT
ATOM      1  C   UNL d   1     -41.938-121.744 -51.292  0.00  0.00     0.078 A 
ATOM      2  C   UNL d   1     -41.719-122.079 -52.025  0.00  0.00     0.080 A 
ATOM      3  C   UNL d   1     -41.772-120.952 -51.137  0.00  0.00     0.018 A 
ATOM      4  C   UNL d   1     -41.337-121.611 -52.590  0.00  0.00     0.010 A 
ATOM      5  C   UNL d   1     -41.391-120.488 -51.701  0.00  0.00     0.002 A 
ATOM      6  C   UNL d   1     -41.172-120.818 -52.431  0.00  0.00     0.001 A 
ENDROOT
BRANCH   1   7
ATOM      7  N   UNL d   1     -42.318-122.206 -50.728  0.00  0.00    -0.241 N 
ATOM      8  C   UNL d   1     -43.128-122.357 -50.688  0.00  0.00     0.267 A 
ATOM      9  C   UNL d   1     -43.262-122.843 -50.039  0.00  0.00     0.061 A 
ATOM     10  O   UNL d   1     -43.702-122.072 -51.209  0.00  0.00    -0.267 OA
ATOM     11  C   UNL d   1     -43.951-123.167 -49.733  0.00  0.00     0.005 A 
ATOM     12  C   UNL d   1     -42.542-122.995 -49.675  0.00  0.00     0.061 A 
ATOM     13  C   UNL d   1     -43.921-123.644 -49.060  0.00  0.00     0.000 A 
ATOM     14  C   UNL d   1     -43.189-123.793 -48.698  0.00  0.00     0.000 A 
ATOM     15  C   UNL d   1     -42.504-123.467 -49.007  0.00  0.00     0.005 A 
ATOM     16  C   UNL d   1     -41.954-122.601 -50.099  0.00  0.00     0.267 A 
ATOM     17  O   UNL d   1     -41.145-122.601 -49.929  0.00  0.00    -0.267 OA
ENDBRANCH   1   7
BRANCH   2  18
ATOM     18  S   UNL d   1     -41.884-122.872 -52.182  0.00  0.00     0.160 S 
ATOM     19  O   UNL d   1     -42.076-123.591 -52.064  0.00  0.00    -0.244 OA
BRANCH  18  20
ATOM     20  C   UNL d   1     -41.827-123.157 -52.953  0.00  0.00     0.477 C 
ATOM     21  F   UNL d   1     -42.451-123.438 -53.483  0.00  0.00    -0.158 F 
ATOM     22  F   UNL d   1     -41.124-123.256 -53.449  0.00  0.00    -0.158 F 
ATOM     23  F   UNL d   1     -41.775-123.417 -53.656  0.00  0.00    -0.158 F 
ENDBRANCH  18  20
ENDBRANCH   2  18
TORSDOF 3
ENDMDL
MODEL 4
REMARK VINA RESULT:       1.8      1.922      2.563
REMARK  3 active torsions:
REMARK  status: ('A' for Active; 'I' for Inactive)
REMARK    1  A    between atoms: C_4  and  N_1 
REMARK    2  A    between atoms: S_5  and  C_6 
REMARK    3  A    between atoms: C_9  and  S_5 
ROOT
ATOM      1  C   UNL d   1     -42.188-122.885 -52.064  0.00  0.00     0.078 A 
ATOM      2  C   UNL d   1     -41.853-122.353 -51.513  0.00  0.00     0.080 A 
ATOM      3  C   UNL d   1     -42.572-123.563 -51.798  0.00  0.00     0.018 A 
ATOM      4  C   UNL d   1     -41.910-122.514 -50.704  0.00  0.00     0.010 A 
ATOM      5  C   UNL d   1     -42.628-123.720 -50.990  0.00  0.00     0.002 A 
ATOM      6  C   UNL d   1     -42.296-123.194 -50.440  0.00  0.00     0.001 A 
ENDROOT
BRANCH   1   7
ATOM      7  N   UNL d   1     -42.133-122.729 -52.869  0.00  0.00    -0.241 N 
ATOM      8  C   UNL d   1     -41.644-123.118 -53.407  0.00  0.00     0.267 A 
ATOM      9  C   UNL d   1     -41.769-122.784 -54.148  0.00  0.00     0.061 A 
ATOM     10  O   UNL d   1     -41.123-123.735 -53.233  0.00  0.00    -0.267 OA
ATOM     11  C   UNL d   1     -41.440-122.947 -54.881  0.00  0.00     0.005 A 
ATOM     12  C   UNL d   1     -42.330-122.190 -54.074  0.00  0.00     0.061 A 
ATOM     13  C   UNL d   1     -41.673-122.514 -55.545  0.00  0.00     0.000 A 
ATOM     14  C   UNL d   1     -42.242-121.914 -55.462  0.00  0.00     0.000 A 
ATOM     15  C   UNL d   1     -42.567-121.756 -54.727  0.00  0.00     0.005 A 
ATOM     16  C   UNL d   1     -42.558-122.152 -53.282  0.00  0.00     0.267 A 
ATOM     17  O   UNL d   1     -43.113-121.633 -52.956  0.00  0.00    -0.267 OA
ENDBRANCH   1   7
BRANCH   2  18
ATOM     18  S   UNL d   1     -41.467-121.674 -51.778  0.00  0.00     0.160 S 
ATOM     19  O   UNL d   1     -41.123-121.193 -52.245  0.00  0.00    -0.244 OA
BRANCH  18  20
ATOM     20  C   UNL d   1     -41.315-121.058 -51.252  0.00  0.00     0.477 C 
ATOM     21  F   UNL d   1     -41.131-121.090 -50.406  0.00  0.00    -0.158 F 
ATOM     22  F   UNL d   1     -41.296-120.205 -51.399  0.00  0.00    -0.158 F 
ATOM     23  F   UNL d   1     -41.176-120.497 -50.772  0.00  0.00    -0.158 F 
ENDBRANCH  18  20
ENDBRANCH   2  18
TORSDOF 3
ENDMDL
MODEL 5
REMARK VINA RESULT:       2.0      1.029      1.425
REMARK  3 active torsions:
REMARK  status: ('A' for Active; 'I' for Inactive)
REMARK    1  A    between atoms: C_4  and  N_1 
REMARK    2  A    between atoms: S_5  and  C_6 
REMARK    3  A    between atoms: C_9  and  S_5 
ROOT
ATOM      1  C   UNL d   1     -41.732-122.980 -51.658  0.00  0.00     0.078 A 
ATOM      2  C   UNL d   1     -42.340-122.772 -51.124  0.00  0.00     0.080 A 
ATOM      3  C   UNL d   1     -41.130-123.488 -51.417  0.00  0.00     0.018 A 
ATOM      4  C   UNL d   1     -42.331-123.080 -50.356  0.00  0.00     0.010 A 
ATOM      5  C   UNL d   1     -41.124-123.793 -50.651  0.00  0.00     0.002 A 
ATOM      6  C   UNL d   1     -41.727-123.588 -50.118  0.00  0.00     0.001 A 
ENDROOT
BRANCH   1   7
ATOM      7  N   UNL d   1     -41.737-122.676 -52.421  0.00  0.00    -0.241 N 
ATOM      8  C   UNL d   1     -42.019-123.059 -53.095  0.00  0.00     0.267 A 
ATOM      9  C   UNL d   1     -41.915-122.552 -53.735  0.00  0.00     0.061 A 
ATOM     10  O   UNL d   1     -42.347-123.816 -53.123  0.00  0.00    -0.267 OA
ATOM     11  C   UNL d   1     -42.091-122.637 -54.531  0.00  0.00     0.005 A 
ATOM     12  C   UNL d   1     -41.570-121.858 -53.463  0.00  0.00     0.061 A 
ATOM     13  C   UNL d   1     -41.923-122.026 -55.060  0.00  0.00     0.000 A 
ATOM     14  C   UNL d   1     -41.575-121.327 -54.778  0.00  0.00     0.000 A 
ATOM     15  C   UNL d   1     -41.401-121.247 -53.981  0.00  0.00     0.005 A 
ATOM     16  C   UNL d   1     -41.458-121.931 -52.649  0.00  0.00     0.267 A 
ATOM     17  O   UNL d   1     -41.127-121.362 -52.148  0.00  0.00    -0.267 OA
ENDBRANCH   1   7
BRANCH   2  18
ATOM     18  S   UNL d   1     -42.943-122.263 -51.363  0.00  0.00     0.160 S 
ATOM     19  O   UNL d   1     -43.386-121.856 -51.817  0.00  0.00    -0.244 OA
BRANCH  18  20
ATOM     20  C   UNL d   1     -43.447-121.933 -50.801  0.00  0.00     0.477 C 
ATOM     21  F   UNL d   1     -44.190-122.241 -50.480  0.00  0.00    -0.158 F 
ATOM     22  F   UNL d   1     -43.374-121.183 -50.375  0.00  0.00    -0.158 F 
ATOM     23  F   UNL d   1     -43.907-121.632 -50.289  0.00  0.00    -0.158 F 
ENDBRANCH  18  20
ENDBRANCH   2  18
TORSDOF 3
ENDMDL
