MODEL 1
REMARK VINA RESULT:      -5.8      0.000      0.000
REMARK  6 active torsions:
REMARK  status: ('A' for Active; 'I' for Inactive)
REMARK    1  A    between atoms: C_7  and  S_1 
REMARK    2  A    between atoms: N_18  and  S_1 
REMARK    3  A    between atoms: C_6  and  C_4 
REMARK    4  A    between atoms: C_9  and  C_24 
REMARK    5  A    between atoms: C_26  and  N_18 
REMARK    6  A    between atoms: C_24  and  C_26 
ROOT
ATOM      1  S   UNL d   1      57.344   0.132  32.089  0.00  0.00     0.285 S 
ATOM      2  O   UNL d   1      57.994   0.493  31.733  0.00  0.00    -0.198 OA
ATOM      3  O   UNL d   1      57.383   0.682  32.698  0.00  0.00    -0.198 OA
ENDROOT
BRANCH   1   4
ATOM      4  C   UNL d   1      56.697  -0.222  32.451  0.00  0.00     0.105 A 
ATOM      5  C   UNL d   1      56.235   0.208  32.982  0.00  0.00     0.019 A 
ATOM      6  C   UNL d   1      55.590  -0.143  33.342  0.00  0.00     0.100 A 
ATOM      7  C   UNL d   1      55.400  -0.930  33.175  0.00  0.00     0.144 A 
ATOM      8  C   UNL d   1      55.860  -1.358  32.647  0.00  0.00     0.030 A 
ATOM      9  F   UNL d   1      54.755  -1.288  33.534  0.00  0.00    -0.204 F 
ATOM     10  C   UNL d   1      56.508  -1.009  32.284  0.00  0.00     0.015 A 
BRANCH   6  11
ATOM     11  C   UNL d   1      55.133   0.286  33.868  0.00  0.00     0.421 C 
ATOM     12  F   UNL d   1      54.720   0.681  34.358  0.00  0.00    -0.166 F 
ATOM     13  F   UNL d   1      54.298   0.486  33.830  0.00  0.00    -0.166 F 
ATOM     14  F   UNL d   1      55.369   0.657  34.611  0.00  0.00    -0.166 F 
ENDBRANCH   6  11
ENDBRANCH   1   4
BRANCH   1  15
ATOM     15  N   UNL d   1      57.314  -0.416  31.472  0.00  0.00    -0.157 NA
BRANCH  15  16
ATOM     16  C   UNL d   1      57.929  -0.482  30.951  0.00  0.00     0.114 C 
BRANCH  16  17
ATOM     17  C   UNL d   1      57.794  -0.733  30.171  0.00  0.00     0.042 C 
BRANCH  17  18
ATOM     18  C   UNL d   1      58.362  -1.220  29.791  0.00  0.00     0.102 A 
ATOM     19  N   UNL d   1      58.335  -2.029  29.732  0.00  0.00    -0.227 NA
ATOM     20  C   UNL d   1      59.000  -2.290  29.316  0.00  0.00     0.148 A 
ATOM     21  C   UNL d   1      59.254  -3.040  29.097  0.00  0.00     0.037 A 
ATOM     22  N   UNL d   1      59.444  -1.630  29.114  0.00  0.00    -0.288 N 
ATOM     23  C   UNL d   1      59.954  -3.127  28.676  0.00  0.00     0.004 A 
ATOM     24  C   UNL d   1      60.206  -3.881  28.457  0.00  0.00     0.000 C 
ATOM     25  C   UNL d   1      60.406  -2.476  28.468  0.00  0.00     0.019 A 
ATOM     26  C   UNL d   1      60.146  -1.718  28.691  0.00  0.00     0.082 A 
ATOM     27  C   UNL d   1      59.055  -0.955  29.406  0.00  0.00     0.101 A 
ENDBRANCH  17  18
ENDBRANCH  16  17
ENDBRANCH  15  16
ENDBRANCH   1  15
TORSDOF 6
ENDMDL
MODEL 2
REMARK VINA RESULT:      -5.7      1.943      2.303
REMARK  6 active torsions:
REMARK  status: ('A' for Active; 'I' for Inactive)
REMARK    1  A    between atoms: C_7  and  S_1 
REMARK    2  A    between atoms: N_18  and  S_1 
REMARK    3  A    between atoms: C_6  and  C_4 
REMARK    4  A    between atoms: C_9  and  C_24 
REMARK    5  A    between atoms: C_26  and  N_18 
REMARK    6  A    between atoms: C_24  and  C_26 
ROOT
ATOM      1  S   UNL d   1      56.339  -1.176  32.480  0.00  0.00     0.285 S 
ATOM      2  O   UNL d   1      56.728  -1.649  31.928  0.00  0.00    -0.198 OA
ATOM      3  O   UNL d   1      56.218  -1.839  32.949  0.00  0.00    -0.198 OA
ENDROOT
BRANCH   1   4
ATOM      4  C   UNL d   1      55.951  -0.712  33.034  0.00  0.00     0.105 A 
ATOM      5  C   UNL d   1      56.369  -0.391  33.669  0.00  0.00     0.019 A 
ATOM      6  C   UNL d   1      55.984   0.072  34.223  0.00  0.00     0.100 A 
ATOM      7  C   UNL d   1      55.174   0.218  34.148  0.00  0.00     0.144 A 
ATOM      8  C   UNL d   1      54.757  -0.101  33.517  0.00  0.00     0.030 A 
ATOM      9  F   UNL d   1      54.781   0.682  34.700  0.00  0.00    -0.204 F 
ATOM     10  C   UNL d   1      55.141  -0.566  32.959  0.00  0.00     0.015 A 
BRANCH   6  11
ATOM     11  C   UNL d   1      56.402   0.389  34.850  0.00  0.00     0.421 C 
ATOM     12  F   UNL d   1      56.793   0.682  35.424  0.00  0.00    -0.166 F 
ATOM     13  F   UNL d   1      56.131   0.588  35.642  0.00  0.00    -0.166 F 
ATOM     14  F   UNL d   1      57.234   0.613  34.888  0.00  0.00    -0.166 F 
ENDBRANCH   6  11
ENDBRANCH   1   4
BRANCH   1  15
ATOM     15  N   UNL d   1      56.467  -0.515  31.999  0.00  0.00    -0.157 NA
BRANCH  15  16
ATOM     16  C   UNL d   1      57.063  -0.515  31.452  0.00  0.00     0.114 C 
BRANCH  16  17
ATOM     17  C   UNL d   1      57.136   0.112  30.913  0.00  0.00     0.042 C 
BRANCH  17  18
ATOM     18  C   UNL d   1      57.841   0.189  30.465  0.00  0.00     0.102 A 
ATOM     19  N   UNL d   1      58.576   0.372  30.758  0.00  0.00    -0.227 NA
ATOM     20  C   UNL d   1      59.116   0.393  30.132  0.00  0.00     0.148 A 
ATOM     21  C   UNL d   1      59.923   0.547  30.106  0.00  0.00     0.037 A 
ATOM     22  N   UNL d   1      58.708   0.219  29.443  0.00  0.00    -0.288 N 
ATOM     23  C   UNL d   1      60.319   0.526  29.387  0.00  0.00     0.004 A 
ATOM     24  C   UNL d   1      61.129   0.681  29.364  0.00  0.00     0.000 C 
ATOM     25  C   UNL d   1      59.922   0.354  28.691  0.00  0.00     0.019 A 
ATOM     26  C   UNL d   1      59.107   0.198  28.721  0.00  0.00     0.082 A 
ATOM     27  C   UNL d   1      57.910   0.090  29.638  0.00  0.00     0.101 A 
ENDBRANCH  17  18
ENDBRANCH  16  17
ENDBRANCH  15  16
ENDBRANCH   1  15
TORSDOF 6
ENDMDL
MODEL 3
REMARK VINA RESULT:      -3.0      8.857      9.751
REMARK  6 active torsions:
REMARK  status: ('A' for Active; 'I' for Inactive)
REMARK    1  A    between atoms: C_7  and  S_1 
REMARK    2  A    between atoms: N_18  and  S_1 
REMARK    3  A    between atoms: C_6  and  C_4 
REMARK    4  A    between atoms: C_9  and  C_24 
REMARK    5  A    between atoms: C_26  and  N_18 
REMARK    6  A    between atoms: C_24  and  C_26 
ROOT
ATOM      1  S   UNL d   1      57.779  -9.736  31.878  0.00  0.00     0.285 S 
ATOM      2  O   UNL d   1      57.540  -9.804  32.664  0.00  0.00    -0.198 OA
ATOM      3  O   UNL d   1      56.993  -9.658  31.654  0.00  0.00    -0.198 OA
ENDROOT
BRANCH   1   4
ATOM      4  C   UNL d   1      58.009  -9.668  31.093  0.00  0.00     0.105 A 
ATOM      5  C   UNL d   1      57.458  -9.450  30.518  0.00  0.00     0.019 A 
ATOM      6  C   UNL d   1      57.685  -9.382  29.736  0.00  0.00     0.100 A 
ATOM      7  C   UNL d   1      58.468  -9.531  29.518  0.00  0.00     0.144 A 
ATOM      8  C   UNL d   1      59.017  -9.748  30.088  0.00  0.00     0.030 A 
ATOM      9  F   UNL d   1      58.704  -9.465  28.735  0.00  0.00    -0.204 F 
ATOM     10  C   UNL d   1      58.792  -9.818  30.875  0.00  0.00     0.015 A 
BRANCH   6  11
ATOM     11  C   UNL d   1      57.137  -9.166  29.169  0.00  0.00     0.421 C 
ATOM     12  F   UNL d   1      56.636  -8.959  28.646  0.00  0.00    -0.166 F 
ATOM     13  F   UNL d   1      56.483  -9.617  28.841  0.00  0.00    -0.166 F 
ATOM     14  F   UNL d   1      57.066  -8.419  28.743  0.00  0.00    -0.166 F 
ENDBRANCH   6  11
ENDBRANCH   1   4
BRANCH   1  15
ATOM     15  N   UNL d   1      58.567  -9.817  32.114  0.00  0.00    -0.157 NA
BRANCH  15  16
ATOM     16  C   UNL d   1      58.763  -9.813  32.899  0.00  0.00     0.114 C 
BRANCH  16  17
ATOM     17  C   UNL d   1      59.555  -9.729  33.133  0.00  0.00     0.042 C 
BRANCH  17  18
ATOM     18  C   UNL d   1      59.733  -9.318  33.842  0.00  0.00     0.102 A 
ATOM     19  N   UNL d   1      60.250  -8.697  33.917  0.00  0.00    -0.227 NA
ATOM     20  C   UNL d   1      60.263  -8.452  34.707  0.00  0.00     0.148 A 
ATOM     21  C   UNL d   1      60.680  -7.858  35.094  0.00  0.00     0.037 A 
ATOM     22  N   UNL d   1      59.746  -8.931  35.125  0.00  0.00    -0.288 N 
ATOM     23  C   UNL d   1      60.575  -7.746  35.900  0.00  0.00     0.004 A 
ATOM     24  C   UNL d   1      60.994  -7.149  36.285  0.00  0.00     0.000 C 
ATOM     25  C   UNL d   1      60.061  -8.218  36.330  0.00  0.00     0.019 A 
ATOM     26  C   UNL d   1      59.641  -8.817  35.936  0.00  0.00     0.082 A 
ATOM     27  C   UNL d   1      59.408  -9.476  34.596  0.00  0.00     0.101 A 
ENDBRANCH  17  18
ENDBRANCH  16  17
ENDBRANCH  15  16
ENDBRANCH   1  15
TORSDOF 6
ENDMDL
