MODEL 1
REMARK VINA RESULT:      -8.4      0.000      0.000
REMARK  10 active torsions:
REMARK  status: ('A' for Active; 'I' for Inactive)
REMARK    1  A    between atoms: C_9  and  C_1 
REMARK    2  A    between atoms: C_11  and  C_2 
REMARK    3  A    between atoms: S_12  and  C_3 
REMARK    4  A    between atoms: C_16  and  C_4 
REMARK    5  A    between atoms: C_7  and  N_8 
REMARK       I    between atoms: N_8  and  C_15 
REMARK    6  A    between atoms: O_26  and  C_9 
REMARK    7  A    between atoms: C_21  and  S_12 
REMARK    8  A    between atoms: C_15  and  C_21 
REMARK    9  A    between atoms: C_24  and  C_32 
REMARK   10  A    between atoms: C_32  and  O_26 
ROOT
ATOM      1  C   UNL d   1      52.904  32.363  53.366  0.00  0.00     0.081 A 
ATOM      2  C   UNL d   1      52.513  33.733  53.550  0.00  0.00     0.045 A 
ATOM      3  C   UNL d   1      51.809  33.583  53.061  0.00  0.00     0.112 A 
ATOM      4  C   UNL d   1      53.034  33.122  53.685  0.00  0.00     0.010 A 
ATOM      5  C   UNL d   1      52.238  32.221  52.904  0.00  0.00     0.087 A 
ATOM      6  N   UNL d   1      51.702  32.837  52.760  0.00  0.00    -0.239 NA
ATOM      7  C   UNL d   1      52.097  31.453  52.575  0.00  0.00     0.021 C 
ENDROOT
BRANCH   3   8
ATOM      8  S   UNL d   1      51.216  34.186  52.878  0.00  0.00    -0.062 SA
BRANCH   8   9
ATOM      9  C   UNL d   1      50.420  33.985  52.903  0.00  0.00     0.099 C 
BRANCH   9  10
ATOM     10  C   UNL d   1      49.877  34.508  52.641  0.00  0.00     0.288 C 
ATOM     11  N   UNL d   1      49.318  34.804  53.166  0.00  0.00    -0.182 NA
ATOM     12  O   UNL d   1      49.861  34.756  51.872  0.00  0.00    -0.265 OA
BRANCH  11  13
ATOM     13  C   UNL d   1      48.769  35.329  52.914  0.00  0.00     0.197 A 
ATOM     14  N   UNL d   1      48.621  35.991  53.350  0.00  0.00    -0.219 NA
ATOM     15  C   UNL d   1      48.032  36.422  52.951  0.00  0.00     0.108 A 
ATOM     16  C   UNL d   1      47.827  36.019  52.275  0.00  0.00     0.059 A 
ATOM     17  S   UNL d   1      48.285  35.333  52.245  0.00  0.00    -0.046 SA
ENDBRANCH  11  13
ENDBRANCH   9  10
ENDBRANCH   8   9
ENDBRANCH   3   8
BRANCH   2  18
ATOM     18  C   UNL d   1      52.669  34.496  53.886  0.00  0.00     0.124 C 
ATOM     19  N   UNL d   1      52.685  35.169  53.416  0.00  0.00    -0.146 N 
ENDBRANCH   2  18
BRANCH   4  20
ATOM     20  C   UNL d   1      53.688  33.262  54.139  0.00  0.00     0.000 A 
ATOM     21  C   UNL d   1      53.638  33.228  54.963  0.00  0.00     0.001 A 
ATOM     22  C   UNL d   1      54.291  33.367  55.416  0.00  0.00     0.011 A 
ATOM     23  C   UNL d   1      55.014  33.545  55.059  0.00  0.00     0.058 A 
ATOM     24  C   UNL d   1      55.069  33.580  54.229  0.00  0.00     0.011 A 
ATOM     25 CL   UNL d   1      55.688  33.689  55.527  0.00  0.00    -0.082 Cl
ATOM     26  C   UNL d   1      54.403  33.438  53.767  0.00  0.00     0.001 A 
ENDBRANCH   4  20
BRANCH   1  27
ATOM     27  C   UNL d   1      53.468  31.746  53.527  0.00  0.00     0.302 C 
ATOM     28  O   UNL d   1      54.194  31.722  53.139  0.00  0.00    -0.259 OA
BRANCH  27  29
ATOM     29  O   UNL d   1      53.274  31.166  54.082  0.00  0.00    -0.271 OA
BRANCH  29  30
ATOM     30  C   UNL d   1      53.535  30.408  53.987  0.00  0.00     0.126 C 
BRANCH  30  31
ATOM     31  C   UNL d   1      53.279  29.811  54.509  0.00  0.00     0.027 C 
ATOM     32  C   UNL d   1      53.580  29.064  54.447  0.00  0.00     0.002 C 
ENDBRANCH  30  31
ENDBRANCH  29  30
ENDBRANCH  27  29
ENDBRANCH   1  27
TORSDOF 10
ENDMDL
MODEL 2
REMARK VINA RESULT:      -6.9      1.313      2.504
REMARK  10 active torsions:
REMARK  status: ('A' for Active; 'I' for Inactive)
REMARK    1  A    between atoms: C_9  and  C_1 
REMARK    2  A    between atoms: C_11  and  C_2 
REMARK    3  A    between atoms: S_12  and  C_3 
REMARK    4  A    between atoms: C_16  and  C_4 
REMARK    5  A    between atoms: C_7  and  N_8 
REMARK       I    between atoms: N_8  and  C_15 
REMARK    6  A    between atoms: O_26  and  C_9 
REMARK    7  A    between atoms: C_21  and  S_12 
REMARK    8  A    between atoms: C_15  and  C_21 
REMARK    9  A    between atoms: C_24  and  C_32 
REMARK   10  A    between atoms: C_32  and  O_26 
ROOT
ATOM      1  C   UNL d   1      52.828  33.626  53.384  0.00  0.00     0.081 A 
ATOM      2  C   UNL d   1      51.521  33.110  53.083  0.00  0.00     0.045 A 
ATOM      3  C   UNL d   1      51.221  33.928  53.054  0.00  0.00     0.112 A 
ATOM      4  C   UNL d   1      52.310  32.988  53.246  0.00  0.00     0.010 A 
ATOM      5  C   UNL d   1      52.544  34.398  53.357  0.00  0.00     0.087 A 
ATOM      6  N   UNL d   1      51.743  34.533  53.191  0.00  0.00    -0.239 NA
ATOM      7  C   UNL d   1      53.062  35.054  53.496  0.00  0.00     0.021 C 
ENDROOT
BRANCH   3   8
ATOM      8  S   UNL d   1      50.397  34.128  52.886  0.00  0.00    -0.062 SA
BRANCH   8   9
ATOM      9  C   UNL d   1      50.147  34.905  52.980  0.00  0.00     0.099 C 
BRANCH   9  10
ATOM     10  C   UNL d   1      49.395  35.098  52.795  0.00  0.00     0.288 C 
ATOM     11  N   UNL d   1      48.996  35.647  53.258  0.00  0.00    -0.182 NA
ATOM     12  O   UNL d   1      49.014  34.769  52.163  0.00  0.00    -0.265 OA
BRANCH  11  13
ATOM     13  C   UNL d   1      48.241  35.848  53.080  0.00  0.00     0.197 A 
ATOM     14  N   UNL d   1      47.691  35.889  53.669  0.00  0.00    -0.219 NA
ATOM     15  C   UNL d   1      46.970  36.108  53.318  0.00  0.00     0.108 A 
ATOM     16  C   UNL d   1      47.087  36.198  52.518  0.00  0.00     0.059 A 
ATOM     17  S   UNL d   1      47.881  36.037  52.362  0.00  0.00    -0.046 SA
ENDBRANCH  11  13
ENDBRANCH   9  10
ENDBRANCH   8   9
ENDBRANCH   3   8
BRANCH   2  18
ATOM     18  C   UNL d   1      51.016  32.443  52.946  0.00  0.00     0.124 C 
ATOM     19  N   UNL d   1      50.301  32.367  53.345  0.00  0.00    -0.146 N 
ENDBRANCH   2  18
BRANCH   4  20
ATOM     20  C   UNL d   1      52.588  32.230  53.273  0.00  0.00     0.000 A 
ATOM     21  C   UNL d   1      52.618  31.823  53.992  0.00  0.00     0.001 A 
ATOM     22  C   UNL d   1      52.896  31.066  54.018  0.00  0.00     0.011 A 
ATOM     23  C   UNL d   1      53.153  30.692  53.328  0.00  0.00     0.058 A 
ATOM     24  C   UNL d   1      53.125  31.100  52.601  0.00  0.00     0.011 A 
ATOM     25 CL   UNL d   1      53.440  29.912  53.355  0.00  0.00    -0.082 Cl
ATOM     26  C   UNL d   1      52.841  31.872  52.574  0.00  0.00     0.001 A 
ENDBRANCH   4  20
BRANCH   1  27
ATOM     27  C   UNL d   1      53.646  33.464  53.552  0.00  0.00     0.302 C 
ATOM     28  O   UNL d   1      54.176  33.280  52.950  0.00  0.00    -0.259 OA
BRANCH  27  29
ATOM     29  O   UNL d   1      53.903  33.494  54.337  0.00  0.00    -0.271 OA
BRANCH  29  30
ATOM     30  C   UNL d   1      54.681  33.637  54.505  0.00  0.00     0.126 C 
BRANCH  30  31
ATOM     31  C   UNL d   1      54.954  33.579  55.291  0.00  0.00     0.027 C 
ATOM     32  C   UNL d   1      55.632  33.959  55.511  0.00  0.00     0.002 C 
ENDBRANCH  30  31
ENDBRANCH  29  30
ENDBRANCH  27  29
ENDBRANCH   1  27
TORSDOF 10
ENDMDL
