MODEL 1
REMARK VINA RESULT:      44.0      0.000      0.000
REMARK  6 active torsions:
REMARK  status: ('A' for Active; 'I' for Inactive)
REMARK    1  A    between atoms: C_7  and  S_1 
REMARK    2  A    between atoms: N_18  and  S_1 
REMARK    3  A    between atoms: C_6  and  C_4 
REMARK    4  A    between atoms: C_9  and  C_24 
REMARK    5  A    between atoms: C_26  and  N_18 
REMARK    6  A    between atoms: C_24  and  C_26 
ROOT
ATOM      1  S   UNL d   1      13.735  12.262  -1.853  0.00  0.00     0.285 S 
ATOM      2  O   UNL d   1      13.886  12.107  -1.058  0.00  0.00    -0.198 OA
ATOM      3  O   UNL d   1      13.069  11.783  -1.812  0.00  0.00    -0.198 OA
ENDROOT
BRANCH   1   4
ATOM      4  C   UNL d   1      13.577  12.413  -2.645  0.00  0.00     0.105 A 
ATOM      5  C   UNL d   1      13.436  13.185  -2.898  0.00  0.00     0.019 A 
ATOM      6  C   UNL d   1      13.278  13.337  -3.686  0.00  0.00     0.100 A 
ATOM      7  C   UNL d   1      13.260  12.716  -4.231  0.00  0.00     0.144 A 
ATOM      8  C   UNL d   1      13.400  11.947  -3.980  0.00  0.00     0.030 A 
ATOM      9  F   UNL d   1      13.103  12.861  -5.024  0.00  0.00    -0.204 F 
ATOM     10  C   UNL d   1      13.559  11.792  -3.190  0.00  0.00     0.015 A 
BRANCH   6  11
ATOM     11  C   UNL d   1      13.139  14.104  -3.934  0.00  0.00     0.421 C 
ATOM     12  F   UNL d   1      13.012  14.807  -4.171  0.00  0.00    -0.166 F 
ATOM     13  F   UNL d   1      12.922  14.797  -3.474  0.00  0.00    -0.166 F 
ATOM     14  F   UNL d   1      13.172  14.427  -4.733  0.00  0.00    -0.166 F 
ENDBRANCH   6  11
ENDBRANCH   1   4
BRANCH   1  15
ATOM     15  N   UNL d   1      14.407  12.743  -1.884  0.00  0.00    -0.157 NA
BRANCH  15  16
ATOM     16  C   UNL d   1      14.790  12.957  -1.205  0.00  0.00     0.114 C 
BRANCH  16  17
ATOM     17  C   UNL d   1      15.449  13.462  -1.236  0.00  0.00     0.042 C 
BRANCH  17  18
ATOM     18  C   UNL d   1      15.351  14.276  -1.058  0.00  0.00     0.102 A 
ATOM     19  N   UNL d   1      15.690  14.896  -1.459  0.00  0.00    -0.227 NA
ATOM     20  C   UNL d   1      15.452  15.605  -1.106  0.00  0.00     0.148 A 
ATOM     21  C   UNL d   1      15.622  16.391  -1.277  0.00  0.00     0.037 A 
ATOM     22  N   UNL d   1      14.959  15.418  -0.477  0.00  0.00    -0.288 N 
ATOM     23  C   UNL d   1      15.297  16.988  -0.817  0.00  0.00     0.004 A 
ATOM     24  C   UNL d   1      15.470  17.775  -0.992  0.00  0.00     0.000 C 
ATOM     25  C   UNL d   1      14.803  16.815  -0.187  0.00  0.00     0.019 A 
ATOM     26  C   UNL d   1      14.633  16.019  -0.016  0.00  0.00     0.082 A 
ATOM     27  C   UNL d   1      14.888  14.591  -0.438  0.00  0.00     0.101 A 
ENDBRANCH  17  18
ENDBRANCH  16  17
ENDBRANCH  15  16
ENDBRANCH   1  15
TORSDOF 6
ENDMDL
MODEL 2
REMARK VINA RESULT:      44.3      2.713      3.628
REMARK  6 active torsions:
REMARK  status: ('A' for Active; 'I' for Inactive)
REMARK    1  A    between atoms: C_7  and  S_1 
REMARK    2  A    between atoms: N_18  and  S_1 
REMARK    3  A    between atoms: C_6  and  C_4 
REMARK    4  A    between atoms: C_9  and  C_24 
REMARK    5  A    between atoms: C_26  and  N_18 
REMARK    6  A    between atoms: C_24  and  C_26 
ROOT
ATOM      1  S   UNL d   1      14.131  11.983  -3.216  0.00  0.00     0.285 S 
ATOM      2  O   UNL d   1      14.325  11.940  -4.016  0.00  0.00    -0.198 OA
ATOM      3  O   UNL d   1      14.904  11.779  -3.027  0.00  0.00    -0.198 OA
ENDROOT
BRANCH   1   4
ATOM      4  C   UNL d   1      13.946  12.025  -2.417  0.00  0.00     0.105 A 
ATOM      5  C   UNL d   1      14.502  12.312  -1.879  0.00  0.00     0.019 A 
ATOM      6  C   UNL d   1      14.321  12.354  -1.083  0.00  0.00     0.100 A 
ATOM      7  C   UNL d   1      13.578  12.108  -0.816  0.00  0.00     0.144 A 
ATOM      8  C   UNL d   1      13.025  11.822  -1.349  0.00  0.00     0.030 A 
ATOM      9  F   UNL d   1      13.388  12.148  -0.018  0.00  0.00    -0.204 F 
ATOM     10  C   UNL d   1      13.204  11.779  -2.149  0.00  0.00     0.015 A 
BRANCH   6  11
ATOM     11  C   UNL d   1      14.874  12.639  -0.553  0.00  0.00     0.421 C 
ATOM     12  F   UNL d   1      15.387  12.894  -0.064  0.00  0.00    -0.166 F 
ATOM     13  F   UNL d   1      14.932  13.416  -0.188  0.00  0.00    -0.166 F 
ATOM     14  F   UNL d   1      15.554  12.234  -0.212  0.00  0.00    -0.166 F 
ENDBRANCH   6  11
ENDBRANCH   1   4
BRANCH   1  15
ATOM     15  N   UNL d   1      13.356  12.188  -3.418  0.00  0.00    -0.157 NA
BRANCH  15  16
ATOM     16  C   UNL d   1      13.196  12.539  -4.129  0.00  0.00     0.114 C 
BRANCH  16  17
ATOM     17  C   UNL d   1      12.770  13.251  -4.159  0.00  0.00     0.042 C 
BRANCH  17  18
ATOM     18  C   UNL d   1      13.185  13.974  -4.257  0.00  0.00     0.102 A 
ATOM     19  N   UNL d   1      13.478  14.441  -3.662  0.00  0.00    -0.227 NA
ATOM     20  C   UNL d   1      13.847  15.101  -3.996  0.00  0.00     0.148 A 
ATOM     21  C   UNL d   1      14.233  15.745  -3.661  0.00  0.00     0.037 A 
ATOM     22  N   UNL d   1      13.780  15.039  -4.811  0.00  0.00    -0.288 N 
ATOM     23  C   UNL d   1      14.550  16.327  -4.147  0.00  0.00     0.004 A 
ATOM     24  C   UNL d   1      14.937  16.972  -3.808  0.00  0.00     0.000 C 
ATOM     25  C   UNL d   1      14.490  16.277  -4.962  0.00  0.00     0.019 A 
ATOM     26  C   UNL d   1      14.099  15.624  -5.297  0.00  0.00     0.082 A 
ATOM     27  C   UNL d   1      13.368  14.339  -4.986  0.00  0.00     0.101 A 
ENDBRANCH  17  18
ENDBRANCH  16  17
ENDBRANCH  15  16
ENDBRANCH   1  15
TORSDOF 6
ENDMDL
MODEL 3
REMARK VINA RESULT:      45.3      1.266      1.730
REMARK  6 active torsions:
REMARK  status: ('A' for Active; 'I' for Inactive)
REMARK    1  A    between atoms: C_7  and  S_1 
REMARK    2  A    between atoms: N_18  and  S_1 
REMARK    3  A    between atoms: C_6  and  C_4 
REMARK    4  A    between atoms: C_9  and  C_24 
REMARK    5  A    between atoms: C_26  and  N_18 
REMARK    6  A    between atoms: C_24  and  C_26 
ROOT
ATOM      1  S   UNL d   1      15.359  12.618  -0.942  0.00  0.00     0.285 S 
ATOM      2  O   UNL d   1      16.011  12.812  -0.477  0.00  0.00    -0.198 OA
ATOM      3  O   UNL d   1      15.729  11.917  -1.155  0.00  0.00    -0.198 OA
ENDROOT
BRANCH   1   4
ATOM      4  C   UNL d   1      14.713  12.419  -1.407  0.00  0.00     0.105 A 
ATOM      5  C   UNL d   1      14.682  12.658  -2.196  0.00  0.00     0.019 A 
ATOM      6  C   UNL d   1      14.039  12.460  -2.661  0.00  0.00     0.100 A 
ATOM      7  C   UNL d   1      13.418  12.019  -2.341  0.00  0.00     0.144 A 
ATOM      8  C   UNL d   1      13.447  11.780  -1.557  0.00  0.00     0.030 A 
ATOM      9  F   UNL d   1      12.769  11.816  -2.802  0.00  0.00    -0.204 F 
ATOM     10  C   UNL d   1      14.091  11.978  -1.087  0.00  0.00     0.015 A 
BRANCH   6  11
ATOM     11  C   UNL d   1      14.012  12.698  -3.443  0.00  0.00     0.421 C 
ATOM     12  F   UNL d   1      13.987  12.910  -4.165  0.00  0.00    -0.166 F 
ATOM     13  F   UNL d   1      13.980  13.492  -3.772  0.00  0.00    -0.166 F 
ATOM     14  F   UNL d   1      14.007  12.213  -4.156  0.00  0.00    -0.166 F 
ENDBRANCH   6  11
ENDBRANCH   1   4
BRANCH   1  15
ATOM     15  N   UNL d   1      14.995  13.327  -0.721  0.00  0.00    -0.157 NA
BRANCH  15  16
ATOM     16  C   UNL d   1      15.189  13.688  -0.023  0.00  0.00     0.114 C 
BRANCH  16  17
ATOM     17  C   UNL d   1      15.730  14.318  -0.014  0.00  0.00     0.042 C 
BRANCH  17  18
ATOM     18  C   UNL d   1      15.530  15.037  -0.398  0.00  0.00     0.102 A 
ATOM     19  N   UNL d   1      15.502  15.159  -1.200  0.00  0.00    -0.227 NA
ATOM     20  C   UNL d   1      15.282  15.942  -1.344  0.00  0.00     0.148 A 
ATOM     21  C   UNL d   1      15.168  16.363  -2.042  0.00  0.00     0.037 A 
ATOM     22  N   UNL d   1      15.173  16.310  -0.619  0.00  0.00    -0.288 N 
ATOM     23  C   UNL d   1      14.946  17.153  -2.009  0.00  0.00     0.004 A 
ATOM     24  C   UNL d   1      14.832  17.573  -2.710  0.00  0.00     0.000 C 
ATOM     25  C   UNL d   1      14.833  17.531  -1.291  0.00  0.00     0.019 A 
ATOM     26  C   UNL d   1      14.949  17.103  -0.588  0.00  0.00     0.082 A 
ATOM     27  C   UNL d   1      15.325  15.754  -0.020  0.00  0.00     0.101 A 
ENDBRANCH  17  18
ENDBRANCH  16  17
ENDBRANCH  15  16
ENDBRANCH   1  15
TORSDOF 6
ENDMDL
