MODEL 1
REMARK VINA RESULT:      -5.4      0.000      0.000
REMARK  1 active torsions:
REMARK  status: ('A' for Active; 'I' for Inactive)
REMARK    1  A    between atoms: C_7  and  C_4 
ROOT
ATOM      1  N   UNL d   1     -41.509-122.097 -50.897  0.00  0.00    -0.211 NA
ATOM      2  C   UNL d   1     -41.316-121.891 -51.672  0.00  0.00     0.140 A 
ATOM      3  C   UNL d   1     -41.316-122.468 -52.262  0.00  0.00     0.051 A 
ATOM      4  C   UNL d   1     -41.703-122.884 -50.711  0.00  0.00     0.183 A 
ATOM      5  C   UNL d   1     -41.509-123.255 -52.076  0.00  0.00     0.104 A 
ATOM      6  O   UNL d   1     -41.702-123.460 -51.301  0.00  0.00    -0.289 OA
ATOM      7  S   UNL d   1     -41.123-121.110 -51.861  0.00  0.00    -0.057 SA
ATOM      8  C   UNL d   1     -41.124-122.267 -53.036  0.00  0.00     0.004 A 
ATOM      9  C   UNL d   1     -41.507-123.818 -52.661  0.00  0.00     0.025 A 
ATOM     10  C   UNL d   1     -41.124-122.836 -53.615  0.00  0.00     0.000 A 
ATOM     11  C   UNL d   1     -41.314-123.611 -53.436  0.00  0.00     0.002 A 
ENDROOT
BRANCH   4  12
ATOM     12  C   UNL d   1     -41.896-123.089 -49.935  0.00  0.00     0.041 A 
ATOM     13  C   UNL d   1     -42.675-123.004 -49.671  0.00  0.00     0.004 A 
ATOM     14  C   UNL d   1     -42.874-123.207 -48.901  0.00  0.00     0.007 A 
ATOM     15  C   UNL d   1     -42.289-123.500 -48.381  0.00  0.00     0.035 A 
ATOM     16  C   UNL d   1     -41.513-123.583 -48.647  0.00  0.00     0.007 A 
ATOM     17 BR   UNL d   1     -42.485-123.705 -47.603  0.00  0.00    -0.049 Br
ATOM     18  C   UNL d   1     -41.312-123.378 -49.426  0.00  0.00     0.004 A 
ENDBRANCH   4  12
TORSDOF 1
ENDMDL
MODEL 2
REMARK VINA RESULT:      -4.7      2.011      4.062
REMARK  1 active torsions:
REMARK  status: ('A' for Active; 'I' for Inactive)
REMARK    1  A    between atoms: C_7  and  C_4 
ROOT
ATOM      1  N   UNL d   1     -42.752-123.386 -49.836  0.00  0.00    -0.211 NA
ATOM      2  C   UNL d   1     -42.968-123.539 -49.054  0.00  0.00     0.140 A 
ATOM      3  C   UNL d   1     -42.422-123.419 -48.447  0.00  0.00     0.051 A 
ATOM      4  C   UNL d   1     -41.987-123.113 -50.011  0.00  0.00     0.183 A 
ATOM      5  C   UNL d   1     -41.657-123.145 -48.622  0.00  0.00     0.104 A 
ATOM      6  O   UNL d   1     -41.442-122.993 -49.404  0.00  0.00    -0.289 OA
ATOM      7  S   UNL d   1     -43.727-123.811 -48.876  0.00  0.00    -0.057 SA
ATOM      8  C   UNL d   1     -42.633-123.570 -47.666  0.00  0.00     0.004 A 
ATOM      9  C   UNL d   1     -41.125-123.030 -48.020  0.00  0.00     0.025 A 
ATOM     10  C   UNL d   1     -42.095-123.452 -47.071  0.00  0.00     0.000 A 
ATOM     11  C   UNL d   1     -41.341-123.182 -47.238  0.00  0.00     0.002 A 
ENDROOT
BRANCH   4  12
ATOM     12  C   UNL d   1     -41.772-122.960 -50.793  0.00  0.00     0.041 A 
ATOM     13  C   UNL d   1     -41.489-123.576 -51.267  0.00  0.00     0.004 A 
ATOM     14  C   UNL d   1     -41.274-123.430 -52.045  0.00  0.00     0.007 A 
ATOM     15  C   UNL d   1     -41.339-122.660 -52.362  0.00  0.00     0.035 A 
ATOM     16  C   UNL d   1     -41.621-122.048 -51.886  0.00  0.00     0.007 A 
ATOM     17 BR   UNL d   1     -41.123-122.509 -53.147  0.00  0.00    -0.049 Br
ATOM     18  C   UNL d   1     -41.840-122.195 -51.099  0.00  0.00     0.004 A 
ENDBRANCH   4  12
TORSDOF 1
ENDMDL
MODEL 3
REMARK VINA RESULT:      -3.3      1.955      3.803
REMARK  1 active torsions:
REMARK  status: ('A' for Active; 'I' for Inactive)
REMARK    1  A    between atoms: C_7  and  C_4 
ROOT
ATOM      1  N   UNL d   1     -42.484-122.406 -51.263  0.00  0.00    -0.211 NA
ATOM      2  C   UNL d   1     -42.665-122.431 -50.458  0.00  0.00     0.140 A 
ATOM      3  C   UNL d   1     -42.208-122.894 -49.949  0.00  0.00     0.051 A 
ATOM      4  C   UNL d   1     -41.844-122.845 -51.560  0.00  0.00     0.183 A 
ATOM      5  C   UNL d   1     -41.568-123.332 -50.246  0.00  0.00     0.104 A 
ATOM      6  O   UNL d   1     -41.388-123.307 -51.051  0.00  0.00    -0.289 OA
ATOM      7  S   UNL d   1     -43.300-121.997 -50.159  0.00  0.00    -0.057 SA
ATOM      8  C   UNL d   1     -42.385-122.922 -49.146  0.00  0.00     0.004 A 
ATOM      9  C   UNL d   1     -41.123-123.785 -49.741  0.00  0.00     0.025 A 
ATOM     10  C   UNL d   1     -41.935-123.377 -48.648  0.00  0.00     0.000 A 
ATOM     11  C   UNL d   1     -41.304-123.810 -48.936  0.00  0.00     0.002 A 
ENDROOT
BRANCH   4  12
ATOM     12  C   UNL d   1     -41.664-122.819 -52.364  0.00  0.00     0.041 A 
ATOM     13  C   UNL d   1     -41.756-122.111 -52.782  0.00  0.00     0.004 A 
ATOM     14  C   UNL d   1     -41.579-122.079 -53.583  0.00  0.00     0.007 A 
ATOM     15  C   UNL d   1     -41.304-122.761 -53.979  0.00  0.00     0.035 A 
ATOM     16  C   UNL d   1     -41.212-123.465 -53.559  0.00  0.00     0.007 A 
ATOM     17 BR   UNL d   1     -41.123-122.733 -54.787  0.00  0.00    -0.049 Br
ATOM     18  C   UNL d   1     -41.392-123.498 -52.750  0.00  0.00     0.004 A 
ENDBRANCH   4  12
TORSDOF 1
ENDMDL
