MODEL 1
REMARK VINA RESULT:      -5.2      0.000      0.000
REMARK  4 active torsions:
REMARK  status: ('A' for Active; 'I' for Inactive)
REMARK       I    between atoms: C_3  and  N_7 
REMARK    1  A    between atoms: C_6  and  C_3 
REMARK    2  A    between atoms: C_8  and  C_6 
REMARK    3  A    between atoms: N_7  and  C_9 
REMARK    4  A    between atoms: C_13  and  C_8 
ROOT
ATOM      1  C   UNL d   1     -41.529-123.064 -51.755  0.00  0.00     0.279 C 
ATOM      2  N   UNL d   1     -41.894-122.781 -51.069  0.00  0.00    -0.207 NA
ATOM      3  O   UNL d   1     -41.124-123.774 -51.736  0.00  0.00    -0.265 OA
ENDROOT
BRANCH   1   4
ATOM      4  C   UNL d   1     -41.578-122.628 -52.454  0.00  0.00     0.062 C 
BRANCH   4   5
ATOM      5  C   UNL d   1     -41.313-122.951 -53.161  0.00  0.00     0.005 C 
BRANCH   5   6
ATOM      6  C   UNL d   1     -41.545-122.631 -53.878  0.00  0.00     0.000 A 
ATOM      7  C   UNL d   1     -41.280-122.965 -54.587  0.00  0.00     0.000 A 
ATOM      8  C   UNL d   1     -41.516-122.639 -55.299  0.00  0.00     0.000 A 
ATOM      9  C   UNL d   1     -42.011-121.986 -55.316  0.00  0.00     0.000 A 
ATOM     10  C   UNL d   1     -42.276-121.652 -54.615  0.00  0.00     0.000 A 
ATOM     11  C   UNL d   1     -42.043-121.973 -53.889  0.00  0.00     0.000 A 
ENDBRANCH   5   6
ENDBRANCH   4   5
ENDBRANCH   1   4
BRANCH   2  12
ATOM     12  C   UNL d   1     -41.846-123.215 -50.375  0.00  0.00     0.097 A 
ATOM     13  C   UNL d   1     -42.415-122.714 -50.046  0.00  0.00     0.118 A 
ATOM     14  S   UNL d   1     -42.559-122.964 -49.269  0.00  0.00     0.213 S 
ATOM     15  O   UNL d   1     -42.997-122.311 -49.509  0.00  0.00    -0.217 OA
ATOM     16  O   UNL d   1     -42.649-123.271 -48.505  0.00  0.00    -0.217 OA
ATOM     17  C   UNL d   1     -42.076-123.621 -49.119  0.00  0.00     0.100 A 
ATOM     18  C   UNL d   1     -41.637-123.777 -49.797  0.00  0.00     0.032 A 
ENDBRANCH   2  12
TORSDOF 4
ENDMDL
