MODEL 1
REMARK VINA RESULT:      28.7      0.000      0.000
REMARK  5 active torsions:
REMARK  status: ('A' for Active; 'I' for Inactive)
REMARK    1  A    between atoms: C_2  and  S_1 
REMARK    2  A    between atoms: N_3  and  S_1 
REMARK    3  A    between atoms: C_6  and  C_7 
REMARK    4  A    between atoms: C_7  and  C_8 
REMARK    5  A    between atoms: C_8  and  C_12 
ROOT
ATOM      1  C   UNL d   1     -58.280 -98.818 -44.544  0.00  0.00     0.104 A 
ATOM      2  C   UNL d   1     -58.664 -98.854 -43.832  0.00  0.00     0.012 A 
ATOM      3  C   UNL d   1     -58.693 -98.787 -45.242  0.00  0.00     0.013 A 
ATOM      4  C   UNL d   1     -59.533 -98.791 -45.225  0.00  0.00     0.001 A 
ATOM      5  C   UNL d   1     -59.504 -98.859 -43.815  0.00  0.00     0.001 A 
ATOM      6  C   UNL d   1     -59.915 -98.828 -44.510  0.00  0.00     0.000 A 
ATOM      7  C   UNL d   1     -58.229 -98.887 -43.115  0.00  0.00     0.001 C 
ENDROOT
BRANCH   1   8
ATOM      8  S   UNL d   1     -57.441 -98.813 -44.561  0.00  0.00     0.271 S 
ATOM      9  O   UNL d   1     -57.457 -98.759 -45.377  0.00  0.00    -0.200 OA
ATOM     10  O   UNL d   1     -57.423 -98.869 -43.723  0.00  0.00    -0.200 OA
BRANCH   8  11
ATOM     11  N   UNL d   1     -56.624 -98.808 -44.585  0.00  0.00    -0.229 N 
ATOM     12  C   UNL d   1     -56.199 -98.771 -43.883  0.00  0.00     0.092 A 
ATOM     13  C   UNL d   1     -55.370 -98.765 -43.909  0.00  0.00     0.020 A 
ATOM     14  C   UNL d   1     -54.971 -98.797 -44.640  0.00  0.00     0.003 A 
ATOM     15  C   UNL d   1     -55.418 -98.833 -45.322  0.00  0.00     0.020 A 
ATOM     16  C   UNL d   1     -56.243 -98.839 -45.300  0.00  0.00     0.092 A 
ENDBRANCH   8  11
ENDBRANCH   1   8
BRANCH   4  17
ATOM     17  C   UNL d   1     -59.960 -98.758 -45.961  0.00  0.00     0.006 C 
BRANCH  17  18
ATOM     18  C   UNL d   1     -59.940 -99.390 -46.507  0.00  0.00     0.070 C 
BRANCH  18  19
ATOM     19  C   UNL d   1     -59.596 -99.288 -47.243  0.00  0.00     0.211 C 
ATOM     20  O   UNL d   1     -59.954 -99.614 -47.921  0.00  0.00    -0.644 OA
ATOM     21  O   UNL d   1     -58.901 -98.867 -47.320  0.00  0.00    -0.644 OA
ENDBRANCH  18  19
ENDBRANCH  17  18
ENDBRANCH   4  17
TORSDOF 5
ENDMDL
