MODEL 1
REMARK VINA RESULT:      -3.2      0.000      0.000
REMARK  5 active torsions:
REMARK  status: ('A' for Active; 'I' for Inactive)
REMARK    1  A    between atoms: C_2  and  S_1 
REMARK    2  A    between atoms: N_11  and  S_1 
REMARK    3  A    between atoms: N_3  and  C_17 
REMARK    4  A    between atoms: C_16  and  N_11 
REMARK    5  A    between atoms: C_17  and  C_16 
ROOT
ATOM      1  S   UNL d   1      32.661  17.917 -24.079  0.00  0.00     0.285 S 
ATOM      2  O   UNL d   1      32.877  17.595 -24.808  0.00  0.00    -0.198 OA
ATOM      3  O   UNL d   1      33.239  18.505 -24.163  0.00  0.00    -0.198 OA
ENDROOT
BRANCH   1   4
ATOM      4  C   UNL d   1      32.076  17.335 -23.977  0.00  0.00     0.105 A 
ATOM      5  C   UNL d   1      32.246  16.655 -23.543  0.00  0.00     0.012 A 
ATOM      6  C   UNL d   1      31.673  16.078 -23.440  0.00  0.00     0.001 A 
ATOM      7  C   UNL d   1      32.997  16.548 -23.208  0.00  0.00     0.001 C 
ATOM      8  C   UNL d   1      30.917  16.177 -23.773  0.00  0.00     0.000 A 
ATOM      9  C   UNL d   1      30.755  16.867 -24.209  0.00  0.00     0.001 A 
ATOM     10  C   UNL d   1      30.331  15.607 -23.677  0.00  0.00     0.000 C 
ATOM     11  C   UNL d   1      31.340  17.441 -24.306  0.00  0.00     0.012 A 
ATOM     12  C   UNL d   1      31.174  18.122 -24.739  0.00  0.00     0.001 C 
ENDBRANCH   1   4
BRANCH   1  13
ATOM     13  N   UNL d   1      32.607  18.382 -23.402  0.00  0.00    -0.155 NA
BRANCH  13  14
ATOM     14  C   UNL d   1      33.046  19.078 -23.339  0.00  0.00     0.131 C 
BRANCH  14  15
ATOM     15  C   UNL d   1      33.218  19.389 -22.595  0.00  0.00     0.102 C 
BRANCH  15  16
ATOM     16  N   UNL d   1      33.224  20.207 -22.482  0.00  0.00    -0.303 N 
ATOM     17  C   UNL d   1      33.239  20.779 -23.079  0.00  0.00     0.080 A 
ATOM     18  C   UNL d   1      33.241  21.522 -22.723  0.00  0.00     0.021 A 
ATOM     19  C   UNL d   1      33.226  21.418 -21.905  0.00  0.00     0.018 A 
ATOM     20  C   UNL d   1      33.216  20.605 -21.753  0.00  0.00     0.064 A 
ATOM     21  C   UNL d   1      33.221  21.945 -21.273  0.00  0.00     0.002 A 
ATOM     22  C   UNL d   1      33.200  20.321 -20.981  0.00  0.00     0.018 A 
ATOM     23  C   UNL d   1      33.195  20.849 -20.350  0.00  0.00     0.002 A 
ATOM     24  C   UNL d   1      33.205  21.672 -20.488  0.00  0.00     0.000 A 
ENDBRANCH  15  16
ENDBRANCH  14  15
ENDBRANCH  13  14
ENDBRANCH   1  13
TORSDOF 5
ENDMDL
MODEL 2
REMARK VINA RESULT:      -2.3      1.696      2.800
REMARK  5 active torsions:
REMARK  status: ('A' for Active; 'I' for Inactive)
REMARK    1  A    between atoms: C_2  and  S_1 
REMARK    2  A    between atoms: N_11  and  S_1 
REMARK    3  A    between atoms: N_3  and  C_17 
REMARK    4  A    between atoms: C_16  and  N_11 
REMARK    5  A    between atoms: C_17  and  C_16 
ROOT
ATOM      1  S   UNL d   1      30.350  16.632 -24.425  0.00  0.00     0.285 S 
ATOM      2  O   UNL d   1      30.005  16.221 -25.052  0.00  0.00    -0.198 OA
ATOM      3  O   UNL d   1      31.088  16.591 -24.798  0.00  0.00    -0.198 OA
ENDROOT
BRANCH   1   4
ATOM      4  C   UNL d   1      29.617  16.683 -24.035  0.00  0.00     0.105 A 
ATOM      5  C   UNL d   1      29.076  17.265 -24.254  0.00  0.00     0.012 A 
ATOM      6  C   UNL d   1      28.352  17.319 -23.872  0.00  0.00     0.001 A 
ATOM      7  C   UNL d   1      29.258  17.800 -24.862  0.00  0.00     0.001 C 
ATOM      8  C   UNL d   1      28.162  16.788 -23.263  0.00  0.00     0.000 A 
ATOM      9  C   UNL d   1      28.714  16.204 -23.049  0.00  0.00     0.001 A 
ATOM     10  C   UNL d   1      27.439  16.830 -22.871  0.00  0.00     0.000 C 
ATOM     11  C   UNL d   1      29.440  16.158 -23.440  0.00  0.00     0.012 A 
ATOM     12  C   UNL d   1      29.983  15.578 -23.223  0.00  0.00     0.001 C 
ENDBRANCH   1   4
BRANCH   1  13
ATOM     13  N   UNL d   1      30.876  17.016 -23.922  0.00  0.00    -0.155 NA
BRANCH  13  14
ATOM     14  C   UNL d   1      31.592  17.307 -24.212  0.00  0.00     0.131 C 
BRANCH  14  15
ATOM     15  C   UNL d   1      32.119  17.683 -23.702  0.00  0.00     0.102 C 
BRANCH  15  16
ATOM     16  N   UNL d   1      32.438  18.416 -23.906  0.00  0.00    -0.303 N 
ATOM     17  C   UNL d   1      32.573  18.689 -24.676  0.00  0.00     0.080 A 
ATOM     18  C   UNL d   1      32.895  19.445 -24.628  0.00  0.00     0.021 A 
ATOM     19  C   UNL d   1      32.962  19.648 -23.831  0.00  0.00     0.018 A 
ATOM     20  C   UNL d   1      32.680  19.013 -23.383  0.00  0.00     0.064 A 
ATOM     21  C   UNL d   1      33.240  20.320 -23.446  0.00  0.00     0.002 A 
ATOM     22  C   UNL d   1      32.675  19.048 -22.561  0.00  0.00     0.018 A 
ATOM     23  C   UNL d   1      32.953  19.720 -22.177  0.00  0.00     0.002 A 
ATOM     24  C   UNL d   1      33.240  20.369 -22.616  0.00  0.00     0.000 A 
ENDBRANCH  15  16
ENDBRANCH  14  15
ENDBRANCH  13  14
ENDBRANCH   1  13
TORSDOF 5
ENDMDL
MODEL 3
REMARK VINA RESULT:      -0.6      2.057      5.236
REMARK  5 active torsions:
REMARK  status: ('A' for Active; 'I' for Inactive)
REMARK    1  A    between atoms: C_2  and  S_1 
REMARK    2  A    between atoms: N_11  and  S_1 
REMARK    3  A    between atoms: N_3  and  C_17 
REMARK    4  A    between atoms: C_16  and  N_11 
REMARK    5  A    between atoms: C_17  and  C_16 
ROOT
ATOM      1  S   UNL d   1      32.347  21.927 -21.780  0.00  0.00     0.285 S 
ATOM      2  O   UNL d   1      31.766  22.496 -21.917  0.00  0.00    -0.198 OA
ATOM      3  O   UNL d   1      32.139  21.538 -22.481  0.00  0.00    -0.198 OA
ENDROOT
BRANCH   1   4
ATOM      4  C   UNL d   1      32.572  22.303 -21.073  0.00  0.00     0.105 A 
ATOM      5  C   UNL d   1      32.439  21.929 -20.350  0.00  0.00     0.012 A 
ATOM      6  C   UNL d   1      32.659  22.296 -19.651  0.00  0.00     0.001 A 
ATOM      7  C   UNL d   1      32.084  21.180 -20.325  0.00  0.00     0.001 C 
ATOM      8  C   UNL d   1      33.015  23.047 -19.668  0.00  0.00     0.000 A 
ATOM      9  C   UNL d   1      33.145  23.416 -20.401  0.00  0.00     0.001 A 
ATOM     10  C   UNL d   1      33.241  23.427 -18.973  0.00  0.00     0.000 C 
ATOM     11  C   UNL d   1      32.920  23.038 -21.100  0.00  0.00     0.012 A 
ATOM     12  C   UNL d   1      33.050  23.408 -21.824  0.00  0.00     0.001 C 
ENDBRANCH   1   4
BRANCH   1  13
ATOM     13  N   UNL d   1      32.851  21.277 -21.835  0.00  0.00    -0.155 NA
BRANCH  13  14
ATOM     14  C   UNL d   1      32.968  20.901 -22.560  0.00  0.00     0.131 C 
BRANCH  14  15
ATOM     15  C   UNL d   1      33.240  20.123 -22.579  0.00  0.00     0.102 C 
BRANCH  15  16
ATOM     16  N   UNL d   1      33.210  19.694 -23.283  0.00  0.00    -0.303 N 
ATOM     17  C   UNL d   1      33.240  20.011 -24.047  0.00  0.00     0.080 A 
ATOM     18  C   UNL d   1      33.193  19.390 -24.585  0.00  0.00     0.021 A 
ATOM     19  C   UNL d   1      33.133  18.684 -24.162  0.00  0.00     0.018 A 
ATOM     20  C   UNL d   1      33.143  18.869 -23.357  0.00  0.00     0.064 A 
ATOM     21  C   UNL d   1      33.070  17.897 -24.393  0.00  0.00     0.002 A 
ATOM     22  C   UNL d   1      33.092  18.277 -22.788  0.00  0.00     0.018 A 
ATOM     23  C   UNL d   1      33.030  17.490 -23.020  0.00  0.00     0.002 A 
ATOM     24  C   UNL d   1      33.018  17.288 -23.829  0.00  0.00     0.000 A 
ENDBRANCH  15  16
ENDBRANCH  14  15
ENDBRANCH  13  14
ENDBRANCH   1  13
TORSDOF 5
ENDMDL
