MODEL 1
REMARK VINA RESULT:      87.8      0.000      0.000
REMARK  2 active torsions:
REMARK  status: ('A' for Active; 'I' for Inactive)
REMARK    1  A    between atoms: C_7  and  C_1 
REMARK       I    between atoms: N_13  and  C_7 
REMARK    2  A    between atoms: C_18  and  N_13 
ROOT
ATOM      1  N   UNL d   1     -46.812  30.447  35.205  0.00  0.00    -0.191 NA
ATOM      2  C   UNL d   1     -47.340  29.810  35.118  0.00  0.00     0.101 C 
ATOM      3  C   UNL d   1     -48.919  27.898  34.857  0.00  0.00     0.085 A 
ATOM      4  C   UNL d   1     -47.869  29.172  35.031  0.00  0.00     0.068 A 
ATOM      5  C   UNL d   1     -48.114  27.796  34.732  0.00  0.00     0.020 A 
ATOM      6  C   UNL d   1     -49.204  28.661  35.076  0.00  0.00     0.020 A 
ATOM      7  C   UNL d   1     -47.580  28.419  34.815  0.00  0.00     0.012 A 
ATOM      8  C   UNL d   1     -48.670  29.284  35.158  0.00  0.00     0.012 A 
ENDROOT
BRANCH   3   9
ATOM      9  N   UNL d   1     -49.456  27.282  34.777  0.00  0.00    -0.208 NA
ATOM     10  C   UNL d   1     -49.674  27.064  34.002  0.00  0.00     0.283 C 
ATOM     11  O   UNL d   1     -49.376  27.437  33.356  0.00  0.00    -0.265 OA
BRANCH  10  12
ATOM     12  C   UNL d   1     -50.212  26.446  33.914  0.00  0.00     0.101 A 
ATOM     13  C   UNL d   1     -49.970  25.661  33.905  0.00  0.00     0.208 A 
ATOM     14  O   UNL d   1     -50.501  25.040  33.818  0.00  0.00    -0.288 OA
ATOM     15  N   UNL d   1     -49.151  25.487  33.988  0.00  0.00    -0.121 N 
ATOM     16  C   UNL d   1     -51.322  25.215  33.735  0.00  0.00     0.103 A 
ATOM     17  C   UNL d   1     -51.560  26.015  33.745  0.00  0.00     0.023 A 
ATOM     18  C   UNL d   1     -51.847  24.618  33.650  0.00  0.00     0.039 A 
ATOM     19  C   UNL d   1     -51.033  26.620  33.831  0.00  0.00     0.010 A 
ATOM     20  C   UNL d   1     -52.379  26.198  33.663  0.00  0.00     0.003 A 
ATOM     21  C   UNL d   1     -52.909  25.577  33.576  0.00  0.00     0.016 A 
ATOM     22  C   UNL d   1     -52.667  24.793  33.567  0.00  0.00     0.066 A 
ATOM     23  C   UNL d   1     -53.734  25.727  33.492  0.00  0.00     0.003 A 
ATOM     24  N   UNL d   1     -53.191  24.204  33.482  0.00  0.00    -0.304 N 
ATOM     25  C   UNL d   1     -52.949  23.419  33.473  0.00  0.00     0.080 A 
ATOM     26  C   UNL d   1     -54.011  24.378  33.399  0.00  0.00     0.080 A 
ATOM     27  C   UNL d   1     -52.129  23.245  33.556  0.00  0.00     0.019 A 
ATOM     28  C   UNL d   1     -51.604  23.842  33.641  0.00  0.00     0.005 A 
ATOM     29  C   UNL d   1     -54.256  25.147  33.407  0.00  0.00     0.019 A 
ENDBRANCH  10  12
ENDBRANCH   3   9
TORSDOF 2
ENDMDL
