MODEL 1
REMARK VINA RESULT:      27.0      0.000      0.000
REMARK  2 active torsions:
REMARK  status: ('A' for Active; 'I' for Inactive)
REMARK    1  A    between atoms: N_4  and  C_2 
REMARK       I    between atoms: C_3  and  N_4 
REMARK    2  A    between atoms: C_5  and  C_3 
ROOT
ATOM      1  C   UNL d   1      13.445  12.001  -0.758  0.00  0.00     0.282 C 
ATOM      2  N   UNL d   1      12.973  11.907  -1.431  0.00  0.00    -0.182 NA
ATOM      3  O   UNL d   1      13.144  11.781  -0.020  0.00  0.00    -0.265 OA
ENDROOT
BRANCH   1   4
ATOM      4  C   UNL d   1      14.207  12.313  -0.836  0.00  0.00     0.069 A 
ATOM      5  C   UNL d   1      14.378  13.029  -0.477  0.00  0.00     0.063 A 
ATOM      6  C   UNL d   1      15.138  13.346  -0.552  0.00  0.00     0.023 A 
ATOM      7 CL   UNL d   1      13.813  13.435  -0.047  0.00  0.00    -0.082 Cl
ATOM      8  C   UNL d   1      15.712  12.939  -0.986  0.00  0.00     0.059 A 
ATOM      9  C   UNL d   1      15.528  12.224  -1.340  0.00  0.00     0.012 A 
ATOM     10 CL   UNL d   1      16.482  13.265  -1.059  0.00  0.00    -0.082 Cl
ATOM     11  C   UNL d   1      14.771  11.918  -1.260  0.00  0.00     0.006 A 
ENDBRANCH   1   4
BRANCH   2  12
ATOM     12  C   UNL d   1      13.264  12.124  -2.168  0.00  0.00     0.204 A 
ATOM     13  N   UNL d   1      12.945  12.707  -2.661  0.00  0.00    -0.203 NA
ATOM     14  C   UNL d   1      13.409  12.748  -3.353  0.00  0.00     0.174 A 
ATOM     15  S   UNL d   1      14.010  12.181  -3.270  0.00  0.00    -0.018 SA
ATOM     16  S   UNL d   1      13.290  13.254  -3.993  0.00  0.00    -0.050 SA
ATOM     17  S   UNL d   1      13.924  11.781  -2.519  0.00  0.00    -0.010 SA
ENDBRANCH   2  12
TORSDOF 2
ENDMDL
MODEL 2
REMARK VINA RESULT:      29.6      2.056      2.872
REMARK  2 active torsions:
REMARK  status: ('A' for Active; 'I' for Inactive)
REMARK    1  A    between atoms: N_4  and  C_2 
REMARK       I    between atoms: C_3  and  N_4 
REMARK    2  A    between atoms: C_5  and  C_3 
ROOT
ATOM      1  C   UNL d   1      13.165  12.467  -3.680  0.00  0.00     0.282 C 
ATOM      2  N   UNL d   1      13.217  11.781  -3.221  0.00  0.00    -0.182 NA
ATOM      3  O   UNL d   1      12.769  12.439  -4.405  0.00  0.00    -0.265 OA
ENDROOT
BRANCH   1   4
ATOM      4  C   UNL d   1      13.509  13.167  -3.405  0.00  0.00     0.069 A 
ATOM      5  C   UNL d   1      13.326  13.871  -3.782  0.00  0.00     0.063 A 
ATOM      6  C   UNL d   1      13.667  14.573  -3.511  0.00  0.00     0.023 A 
ATOM      7 CL   UNL d   1      12.814  13.891  -4.419  0.00  0.00    -0.082 Cl
ATOM      8  C   UNL d   1      14.185  14.558  -2.868  0.00  0.00     0.059 A 
ATOM      9  C   UNL d   1      14.360  13.847  -2.499  0.00  0.00     0.012 A 
ATOM     10 CL   UNL d   1      14.529  15.274  -2.597  0.00  0.00    -0.082 Cl
ATOM     11  C   UNL d   1      14.017  13.156  -2.775  0.00  0.00     0.006 A 
ENDBRANCH   1   4
BRANCH   2  12
ATOM     12  C   UNL d   1      13.609  11.801  -2.498  0.00  0.00     0.204 A 
ATOM     13  N   UNL d   1      13.249  11.842  -1.754  0.00  0.00    -0.203 NA
ATOM     14  C   UNL d   1      13.847  11.850  -1.174  0.00  0.00     0.174 A 
ATOM     15  S   UNL d   1      14.572  11.813  -1.578  0.00  0.00    -0.018 SA
ATOM     16  S   UNL d   1      13.736  11.888  -0.358  0.00  0.00    -0.050 SA
ATOM     17  S   UNL d   1      14.427  11.781  -2.421  0.00  0.00    -0.010 SA
ENDBRANCH   2  12
TORSDOF 2
ENDMDL
