MODEL 1
REMARK VINA RESULT:      -4.1      0.000      0.000
REMARK  0 active torsions:
REMARK  status: ('A' for Active; 'I' for Inactive)
ROOT
ATOM      1  C   UNL d   1      57.379   0.681  33.651  0.00  0.00     0.134 A 
ATOM      2  N   UNL d   1      56.675   0.680  34.080  0.00  0.00    -0.234 NA
ATOM      3  C   UNL d   1      57.350   0.681  32.825  0.00  0.00     0.045 A 
ATOM      4  C   UNL d   1      55.951   0.679  33.685  0.00  0.00     0.207 A 
ATOM      5  N   UNL d   1      55.919   0.679  32.855  0.00  0.00    -0.244 NA
ATOM      6  C   UNL d   1      56.623   0.680  32.428  0.00  0.00     0.081 A 
ATOM      7  S   UNL d   1      58.105   0.682  34.043  0.00  0.00    -0.058 SA
ATOM      8  C   UNL d   1      58.055   0.682  32.392  0.00  0.00     0.004 A 
ATOM      9  C   UNL d   1      55.972   0.679  34.507  0.00  0.00     0.023 A 
ATOM     10  C   UNL d   1      55.229   0.678  33.285  0.00  0.00     0.023 A 
ATOM     11  C   UNL d   1      56.603   0.680  31.601  0.00  0.00     0.019 A 
ATOM     12  C   UNL d   1      58.035   0.682  31.570  0.00  0.00     0.000 A 
ATOM     13  C   UNL d   1      54.530   0.678  33.707  0.00  0.00    -0.001 A 
ATOM     14  C   UNL d   1      55.269   0.678  34.936  0.00  0.00    -0.001 A 
ATOM     15  C   UNL d   1      57.307   0.681  31.173  0.00  0.00     0.002 A 
ATOM     16  C   UNL d   1      54.546   0.677  34.537  0.00  0.00    -0.000 A 
ENDROOT
TORSDOF 0
ENDMDL
MODEL 2
REMARK VINA RESULT:      -4.0      2.863      3.921
REMARK  0 active torsions:
REMARK  status: ('A' for Active; 'I' for Inactive)
ROOT
ATOM      1  C   UNL d   1      58.444   0.064  29.567  0.00  0.00     0.134 A 
ATOM      2  N   UNL d   1      57.963   0.222  30.217  0.00  0.00    -0.234 NA
ATOM      3  C   UNL d   1      58.609  -0.722  29.367  0.00  0.00     0.045 A 
ATOM      4  C   UNL d   1      57.651  -0.399  30.661  0.00  0.00     0.207 A 
ATOM      5  N   UNL d   1      57.814  -1.188  30.462  0.00  0.00    -0.244 NA
ATOM      6  C   UNL d   1      58.295  -1.346  29.813  0.00  0.00     0.081 A 
ATOM      7  S   UNL d   1      58.759   0.682  29.120  0.00  0.00    -0.058 SA
ATOM      8  C   UNL d   1      59.092  -0.884  28.715  0.00  0.00     0.004 A 
ATOM      9  C   UNL d   1      57.483   0.381  30.866  0.00  0.00     0.023 A 
ATOM     10  C   UNL d   1      57.341  -1.023  31.102  0.00  0.00     0.023 A 
ATOM     11  C   UNL d   1      58.465  -2.129  29.606  0.00  0.00     0.019 A 
ATOM     12  C   UNL d   1      59.260  -1.662  28.510  0.00  0.00     0.000 A 
ATOM     13  C   UNL d   1      56.863  -0.869  31.747  0.00  0.00    -0.001 A 
ATOM     14  C   UNL d   1      57.002   0.539  31.516  0.00  0.00    -0.001 A 
ATOM     15  C   UNL d   1      58.946  -2.286  28.956  0.00  0.00     0.002 A 
ATOM     16  C   UNL d   1      56.691  -0.085  31.957  0.00  0.00    -0.000 A 
ENDROOT
TORSDOF 0
ENDMDL
MODEL 3
REMARK VINA RESULT:      -4.0      0.490      2.788
REMARK  0 active torsions:
REMARK  status: ('A' for Active; 'I' for Inactive)
ROOT
ATOM      1  C   UNL d   1      57.070   0.669  33.942  0.00  0.00     0.134 A 
ATOM      2  N   UNL d   1      57.445   0.673  33.208  0.00  0.00    -0.234 NA
ATOM      3  C   UNL d   1      56.244   0.653  33.975  0.00  0.00     0.045 A 
ATOM      4  C   UNL d   1      56.997   0.661  32.515  0.00  0.00     0.207 A 
ATOM      5  N   UNL d   1      56.167   0.645  32.546  0.00  0.00    -0.244 NA
ATOM      6  C   UNL d   1      55.794   0.641  33.279  0.00  0.00     0.081 A 
ATOM      7  S   UNL d   1      57.515   0.681  34.637  0.00  0.00    -0.058 SA
ATOM      8  C   UNL d   1      55.866   0.649  34.711  0.00  0.00     0.004 A 
ATOM      9  C   UNL d   1      57.819   0.677  32.475  0.00  0.00     0.023 A 
ATOM     10  C   UNL d   1      56.544   0.650  31.825  0.00  0.00     0.023 A 
ATOM     11  C   UNL d   1      54.968   0.626  33.322  0.00  0.00     0.019 A 
ATOM     12  C   UNL d   1      55.045   0.634  34.752  0.00  0.00     0.000 A 
ATOM     13  C   UNL d   1      56.912   0.653  31.097  0.00  0.00    -0.001 A 
ATOM     14  C   UNL d   1      58.193   0.681  31.741  0.00  0.00    -0.001 A 
ATOM     15  C   UNL d   1      54.594   0.622  34.056  0.00  0.00     0.002 A 
ATOM     16  C   UNL d   1      57.741   0.669  31.051  0.00  0.00    -0.000 A 
ENDROOT
TORSDOF 0
ENDMDL
MODEL 4
REMARK VINA RESULT:      -3.9      1.414      3.229
REMARK  0 active torsions:
REMARK  status: ('A' for Active; 'I' for Inactive)
ROOT
ATOM      1  C   UNL d   1      57.587   0.335  32.911  0.00  0.00     0.134 A 
ATOM      2  N   UNL d   1      58.000   0.449  32.207  0.00  0.00    -0.234 NA
ATOM      3  C   UNL d   1      56.904  -0.132  32.908  0.00  0.00     0.045 A 
ATOM      4  C   UNL d   1      57.732   0.100  31.509  0.00  0.00     0.207 A 
ATOM      5  N   UNL d   1      57.047  -0.368  31.504  0.00  0.00    -0.244 NA
ATOM      6  C   UNL d   1      56.635  -0.482  32.207  0.00  0.00     0.081 A 
ATOM      7  S   UNL d   1      57.852   0.682  33.610  0.00  0.00    -0.058 SA
ATOM      8  C   UNL d   1      56.488  -0.248  33.613  0.00  0.00     0.004 A 
ATOM      9  C   UNL d   1      58.412   0.564  31.504  0.00  0.00     0.023 A 
ATOM     10  C   UNL d   1      57.460  -0.250  30.813  0.00  0.00     0.023 A 
ATOM     11  C   UNL d   1      55.951  -0.948  32.214  0.00  0.00     0.019 A 
ATOM     12  C   UNL d   1      55.808  -0.711  33.619  0.00  0.00     0.000 A 
ATOM     13  C   UNL d   1      57.867  -0.139  30.114  0.00  0.00    -0.001 A 
ATOM     14  C   UNL d   1      58.825   0.678  30.800  0.00  0.00    -0.001 A 
ATOM     15  C   UNL d   1      55.539  -1.062  32.918  0.00  0.00     0.002 A 
ATOM     16  C   UNL d   1      58.554   0.328  30.104  0.00  0.00    -0.000 A 
ENDROOT
TORSDOF 0
ENDMDL
MODEL 5
REMARK VINA RESULT:      -3.4     10.487     10.725
REMARK  0 active torsions:
REMARK  status: ('A' for Active; 'I' for Inactive)
ROOT
ATOM      1  C   UNL d   1      60.533  -9.422  33.083  0.00  0.00     0.134 A 
ATOM      2  N   UNL d   1      60.716  -9.236  33.864  0.00  0.00    -0.234 NA
ATOM      3  C   UNL d   1      59.742  -9.526  32.866  0.00  0.00     0.045 A 
ATOM      4  C   UNL d   1      60.114  -9.155  34.422  0.00  0.00     0.207 A 
ATOM      5  N   UNL d   1      59.319  -9.258  34.207  0.00  0.00    -0.244 NA
ATOM      6  C   UNL d   1      59.136  -9.444  33.426  0.00  0.00     0.081 A 
ATOM      7  S   UNL d   1      61.133  -9.505  32.522  0.00  0.00    -0.058 SA
ATOM      8  C   UNL d   1      59.555  -9.713  32.082  0.00  0.00     0.004 A 
ATOM      9  C   UNL d   1      60.899  -9.051  34.644  0.00  0.00     0.023 A 
ATOM     10  C   UNL d   1      59.508  -9.075  34.976  0.00  0.00     0.023 A 
ATOM     11  C   UNL d   1      58.347  -9.549  33.200  0.00  0.00     0.019 A 
ATOM     12  C   UNL d   1      58.770  -9.817  31.859  0.00  0.00     0.000 A 
ATOM     13  C   UNL d   1      59.686  -8.890  35.751  0.00  0.00    -0.001 A 
ATOM     14  C   UNL d   1      61.083  -8.865  35.426  0.00  0.00    -0.001 A 
ATOM     15  C   UNL d   1      58.165  -9.735  32.419  0.00  0.00     0.002 A 
ATOM     16  C   UNL d   1      60.477  -8.784  35.981  0.00  0.00    -0.000 A 
ENDROOT
TORSDOF 0
ENDMDL
MODEL 6
REMARK VINA RESULT:      -3.3      2.757      3.882
REMARK  0 active torsions:
REMARK  status: ('A' for Active; 'I' for Inactive)
ROOT
ATOM      1  C   UNL d   1      58.406  -1.324  29.812  0.00  0.00     0.134 A 
ATOM      2  N   UNL d   1      57.885  -1.144  30.425  0.00  0.00    -0.234 NA
ATOM      3  C   UNL d   1      58.825  -0.712  29.444  0.00  0.00     0.045 A 
ATOM      4  C   UNL d   1      57.783  -0.362  30.665  0.00  0.00     0.207 A 
ATOM      5  N   UNL d   1      58.202   0.254  30.298  0.00  0.00    -0.244 NA
ATOM      6  C   UNL d   1      58.723   0.074  29.686  0.00  0.00     0.081 A 
ATOM      7  S   UNL d   1      58.511  -2.105  29.569  0.00  0.00    -0.058 SA
ATOM      8  C   UNL d   1      59.349  -0.889  28.830  0.00  0.00     0.004 A 
ATOM      9  C   UNL d   1      57.364  -0.966  31.036  0.00  0.00     0.023 A 
ATOM     10  C   UNL d   1      57.685   0.422  30.903  0.00  0.00     0.023 A 
ATOM     11  C   UNL d   1      59.145   0.679  29.312  0.00  0.00     0.019 A 
ATOM     12  C   UNL d   1      59.768  -0.287  28.459  0.00  0.00     0.000 A 
ATOM     13  C   UNL d   1      57.169   0.603  31.509  0.00  0.00    -0.001 A 
ATOM     14  C   UNL d   1      56.843  -0.786  31.648  0.00  0.00    -0.001 A 
ATOM     15  C   UNL d   1      59.666   0.500  28.701  0.00  0.00     0.002 A 
ATOM     16  C   UNL d   1      56.744  -0.003  31.886  0.00  0.00    -0.000 A 
ENDROOT
TORSDOF 0
ENDMDL
MODEL 7
REMARK VINA RESULT:      -2.7      1.312      2.002
REMARK  0 active torsions:
REMARK  status: ('A' for Active; 'I' for Inactive)
ROOT
ATOM      1  C   UNL d   1      58.715   0.675  31.866  0.00  0.00     0.134 A 
ATOM      2  N   UNL d   1      58.173   0.668  32.486  0.00  0.00    -0.234 NA
ATOM      3  C   UNL d   1      58.438   0.675  31.086  0.00  0.00     0.045 A 
ATOM      4  C   UNL d   1      57.363   0.661  32.329  0.00  0.00     0.207 A 
ATOM      5  N   UNL d   1      57.082   0.661  31.548  0.00  0.00    -0.244 NA
ATOM      6  C   UNL d   1      57.624   0.668  30.928  0.00  0.00     0.081 A 
ATOM      7  S   UNL d   1      59.525   0.682  32.019  0.00  0.00    -0.058 SA
ATOM      8  C   UNL d   1      58.979   0.682  30.461  0.00  0.00     0.004 A 
ATOM      9  C   UNL d   1      57.633   0.661  33.107  0.00  0.00     0.023 A 
ATOM     10  C   UNL d   1      56.554   0.655  32.166  0.00  0.00     0.023 A 
ATOM     11  C   UNL d   1      57.356   0.668  30.145  0.00  0.00     0.019 A 
ATOM     12  C   UNL d   1      58.711   0.682  29.684  0.00  0.00     0.000 A 
ATOM     13  C   UNL d   1      56.015   0.648  32.779  0.00  0.00    -0.001 A 
ATOM     14  C   UNL d   1      57.091   0.655  33.727  0.00  0.00    -0.001 A 
ATOM     15  C   UNL d   1      57.897   0.675  29.525  0.00  0.00     0.002 A 
ATOM     16  C   UNL d   1      56.282   0.648  33.566  0.00  0.00    -0.000 A 
ENDROOT
TORSDOF 0
ENDMDL
MODEL 8
REMARK VINA RESULT:      -2.6      5.171      6.223
REMARK  0 active torsions:
REMARK  status: ('A' for Active; 'I' for Inactive)
ROOT
ATOM      1  C   UNL d   1      58.989  -0.993  29.345  0.00  0.00     0.134 A 
ATOM      2  N   UNL d   1      58.950  -1.797  29.169  0.00  0.00    -0.234 NA
ATOM      3  C   UNL d   1      59.706  -0.592  29.253  0.00  0.00     0.045 A 
ATOM      4  C   UNL d   1      59.622  -2.195  28.903  0.00  0.00     0.207 A 
ATOM      5  N   UNL d   1      60.343  -1.795  28.809  0.00  0.00    -0.244 NA
ATOM      6  C   UNL d   1      60.381  -0.992  28.985  0.00  0.00     0.081 A 
ATOM      7  S   UNL d   1      58.319  -0.592  29.612  0.00  0.00    -0.058 SA
ATOM      8  C   UNL d   1      59.748   0.214  29.429  0.00  0.00     0.004 A 
ATOM      9  C   UNL d   1      58.911  -2.600  28.993  0.00  0.00     0.023 A 
ATOM     10  C   UNL d   1      60.296  -2.589  28.637  0.00  0.00     0.023 A 
ATOM     11  C   UNL d   1      61.095  -0.583  28.895  0.00  0.00     0.019 A 
ATOM     12  C   UNL d   1      60.458   0.620  29.339  0.00  0.00     0.000 A 
ATOM     13  C   UNL d   1      60.261  -3.385  28.461  0.00  0.00    -0.001 A 
ATOM     14  C   UNL d   1      58.872  -3.404  28.817  0.00  0.00    -0.001 A 
ATOM     15  C   UNL d   1      61.133   0.220  29.071  0.00  0.00     0.002 A 
ATOM     16  C   UNL d   1      59.546  -3.798  28.550  0.00  0.00    -0.000 A 
ENDROOT
TORSDOF 0
ENDMDL
MODEL 9
REMARK VINA RESULT:      -2.3     10.812     11.069
REMARK  0 active torsions:
REMARK  status: ('A' for Active; 'I' for Inactive)
ROOT
ATOM      1  C   UNL d   1      58.984  -9.800  30.067  0.00  0.00     0.134 A 
ATOM      2  N   UNL d   1      59.155  -9.802  30.873  0.00  0.00    -0.234 NA
ATOM      3  C   UNL d   1      58.194  -9.805  29.820  0.00  0.00     0.045 A 
ATOM      4  C   UNL d   1      58.542  -9.809  31.426  0.00  0.00     0.207 A 
ATOM      5  N   UNL d   1      57.749  -9.814  31.181  0.00  0.00    -0.244 NA
ATOM      6  C   UNL d   1      57.579  -9.812  30.375  0.00  0.00     0.081 A 
ATOM      7  S   UNL d   1      59.594  -9.793  29.512  0.00  0.00    -0.058 SA
ATOM      8  C   UNL d   1      58.020  -9.803  29.012  0.00  0.00     0.004 A 
ATOM      9  C   UNL d   1      59.326  -9.804  31.678  0.00  0.00     0.023 A 
ATOM     10  C   UNL d   1      57.926  -9.815  31.974  0.00  0.00     0.023 A 
ATOM     11  C   UNL d   1      56.792  -9.817  30.120  0.00  0.00     0.019 A 
ATOM     12  C   UNL d   1      57.237  -9.808  28.759  0.00  0.00     0.000 A 
ATOM     13  C   UNL d   1      58.092  -9.817  32.774  0.00  0.00    -0.001 A 
ATOM     14  C   UNL d   1      59.496  -9.805  32.484  0.00  0.00    -0.001 A 
ATOM     15  C   UNL d   1      56.622  -9.815  29.314  0.00  0.00     0.002 A 
ATOM     16  C   UNL d   1      58.881  -9.812  33.033  0.00  0.00    -0.000 A 
ENDROOT
TORSDOF 0
ENDMDL
