MODEL 1
REMARK VINA RESULT:      -8.3      0.000      0.000
REMARK  3 active torsions:
REMARK  status: ('A' for Active; 'I' for Inactive)
REMARK    1  A    between atoms: C_10  and  N_2 
REMARK    2  A    between atoms: C_15  and  C_3 
REMARK    3  A    between atoms: C_6  and  C_4 
ROOT
ATOM      1  N   UNL d   1      52.061  34.588  53.126  0.00  0.00    -0.165 NA
ATOM      2  N   UNL d   1      52.835  33.574  53.764  0.00  0.00    -0.228 N 
ATOM      3  C   UNL d   1      51.526  33.275  53.288  0.00  0.00     0.081 A 
ATOM      4  C   UNL d   1      51.444  34.050  53.021  0.00  0.00     0.106 A 
ATOM      5  C   UNL d   1      52.218  33.036  53.658  0.00  0.00     0.105 A 
ENDROOT
BRANCH   4   6
ATOM      6  C   UNL d   1      50.748  34.294  52.647  0.00  0.00     0.022 A 
ATOM      7  C   UNL d   1      50.173  34.697  53.077  0.00  0.00     0.028 A 
ATOM      8  C   UNL d   1      49.476  34.941  52.704  0.00  0.00     0.123 A 
ATOM      9  O   UNL d   1      48.900  35.345  53.136  0.00  0.00    -0.301 OA
ATOM     10  C   UNL d   1      49.363  34.776  51.891  0.00  0.00     0.123 A 
ATOM     11  C   UNL d   1      48.195  35.590  52.752  0.00  0.00     0.149 A 
ATOM     12  C   UNL d   1      48.083  35.427  51.947  0.00  0.00     0.149 A 
ATOM     13  O   UNL d   1      48.668  35.021  51.521  0.00  0.00    -0.301 OA
ATOM     14  C   UNL d   1      49.945  34.373  51.474  0.00  0.00     0.027 A 
ATOM     15  C   UNL d   1      50.636  34.131  51.843  0.00  0.00     0.004 A 
ENDBRANCH   4   6
BRANCH   3  16
ATOM     16  C   UNL d   1      50.882  32.714  53.178  0.00  0.00     0.237 C 
ATOM     17  O   UNL d   1      50.990  31.902  53.410  0.00  0.00    -0.283 OA
ENDBRANCH   3  16
BRANCH   2  18
ATOM     18  C   UNL d   1      53.588  33.545  54.098  0.00  0.00     0.083 A 
ATOM     19  C   UNL d   1      54.207  33.173  53.701  0.00  0.00     0.019 A 
ATOM     20  C   UNL d   1      54.958  33.148  54.043  0.00  0.00     0.002 A 
ATOM     21  C   UNL d   1      55.088  33.495  54.779  0.00  0.00     0.000 A 
ATOM     22  C   UNL d   1      54.466  33.869  55.177  0.00  0.00     0.002 A 
ATOM     23  C   UNL d   1      53.718  33.892  54.834  0.00  0.00     0.019 A 
ENDBRANCH   2  18
TORSDOF 3
ENDMDL
MODEL 2
REMARK VINA RESULT:      -7.9      1.500      2.067
REMARK  3 active torsions:
REMARK  status: ('A' for Active; 'I' for Inactive)
REMARK    1  A    between atoms: C_10  and  N_2 
REMARK    2  A    between atoms: C_15  and  C_3 
REMARK    3  A    between atoms: C_6  and  C_4 
ROOT
ATOM      1  N   UNL d   1      50.892  32.768  53.097  0.00  0.00    -0.165 NA
ATOM      2  N   UNL d   1      52.298  32.532  53.119  0.00  0.00    -0.228 N 
ATOM      3  C   UNL d   1      51.801  33.837  52.840  0.00  0.00     0.081 A 
ATOM      4  C   UNL d   1      51.028  33.562  52.918  0.00  0.00     0.106 A 
ATOM      5  C   UNL d   1      52.434  33.326  52.940  0.00  0.00     0.105 A 
ENDROOT
BRANCH   4   6
ATOM      6  C   UNL d   1      50.388  34.074  52.818  0.00  0.00     0.022 A 
ATOM      7  C   UNL d   1      49.972  34.076  52.107  0.00  0.00     0.028 A 
ATOM      8  C   UNL d   1      49.331  34.588  52.006  0.00  0.00     0.123 A 
ATOM      9  O   UNL d   1      48.915  34.589  51.292  0.00  0.00    -0.301 OA
ATOM     10  C   UNL d   1      49.110  35.101  52.630  0.00  0.00     0.123 A 
ATOM     11  C   UNL d   1      48.266  35.111  51.196  0.00  0.00     0.149 A 
ATOM     12  C   UNL d   1      48.046  35.619  51.813  0.00  0.00     0.149 A 
ATOM     13  O   UNL d   1      48.470  35.611  52.526  0.00  0.00    -0.301 OA
ATOM     14  C   UNL d   1      49.533  35.089  53.334  0.00  0.00     0.027 A 
ATOM     15  C   UNL d   1      50.169  34.581  53.434  0.00  0.00     0.004 A 
ENDBRANCH   4   6
BRANCH   3  16
ATOM     16  C   UNL d   1      51.943  34.666  52.653  0.00  0.00     0.237 C 
ATOM     17  O   UNL d   1      52.742  34.956  52.617  0.00  0.00    -0.283 OA
ENDBRANCH   3  16
BRANCH   2  18
ATOM     18  C   UNL d   1      52.773  31.872  53.256  0.00  0.00     0.083 A 
ATOM     19  C   UNL d   1      53.431  31.925  53.748  0.00  0.00     0.019 A 
ATOM     20  C   UNL d   1      53.900  31.258  53.879  0.00  0.00     0.002 A 
ATOM     21  C   UNL d   1      53.711  30.542  53.519  0.00  0.00     0.000 A 
ATOM     22  C   UNL d   1      53.049  30.489  53.025  0.00  0.00     0.002 A 
ATOM     23  C   UNL d   1      52.583  31.156  52.895  0.00  0.00     0.019 A 
ENDBRANCH   2  18
TORSDOF 3
ENDMDL
MODEL 3
REMARK VINA RESULT:      -7.3      1.366      4.818
REMARK  3 active torsions:
REMARK  status: ('A' for Active; 'I' for Inactive)
REMARK    1  A    between atoms: C_10  and  N_2 
REMARK    2  A    between atoms: C_15  and  C_3 
REMARK    3  A    between atoms: C_6  and  C_4 
ROOT
ATOM      1  N   UNL d   1      51.593  34.706  53.016  0.00  0.00    -0.165 NA
ATOM      2  N   UNL d   1      50.250  34.312  52.740  0.00  0.00    -0.228 N 
ATOM      3  C   UNL d   1      51.196  33.347  53.191  0.00  0.00     0.081 A 
ATOM      4  C   UNL d   1      51.777  33.929  53.226  0.00  0.00     0.106 A 
ATOM      5  C   UNL d   1      50.435  33.536  52.950  0.00  0.00     0.105 A 
ENDROOT
BRANCH   4   6
ATOM      6  C   UNL d   1      52.545  33.742  53.468  0.00  0.00     0.022 A 
ATOM      7  C   UNL d   1      52.796  33.947  54.225  0.00  0.00     0.028 A 
ATOM      8  C   UNL d   1      53.564  33.761  54.469  0.00  0.00     0.123 A 
ATOM      9  O   UNL d   1      53.815  33.967  55.228  0.00  0.00    -0.301 OA
ATOM     10  C   UNL d   1      54.080  33.364  53.942  0.00  0.00     0.123 A 
ATOM     11  C   UNL d   1      54.595  33.775  55.469  0.00  0.00     0.149 A 
ATOM     12  C   UNL d   1      55.106  33.382  54.948  0.00  0.00     0.149 A 
ATOM     13  O   UNL d   1      54.845  33.179  54.187  0.00  0.00    -0.301 OA
ATOM     14  C   UNL d   1      53.817  33.165  53.189  0.00  0.00     0.027 A 
ATOM     15  C   UNL d   1      53.055  33.350  52.947  0.00  0.00     0.004 A 
ENDBRANCH   4   6
BRANCH   3  16
ATOM     16  C   UNL d   1      51.388  32.536  53.410  0.00  0.00     0.237 C 
ATOM     17  O   UNL d   1      50.786  31.937  53.367  0.00  0.00    -0.283 OA
ENDBRANCH   3  16
BRANCH   2  18
ATOM     18  C   UNL d   1      49.574  34.705  52.479  0.00  0.00     0.083 A 
ATOM     19  C   UNL d   1      49.160  35.204  52.987  0.00  0.00     0.019 A 
ATOM     20  C   UNL d   1      48.483  35.594  52.717  0.00  0.00     0.002 A 
ATOM     21  C   UNL d   1      48.224  35.483  51.943  0.00  0.00     0.000 A 
ATOM     22  C   UNL d   1      48.641  34.981  51.434  0.00  0.00     0.002 A 
ATOM     23  C   UNL d   1      49.315  34.594  51.705  0.00  0.00     0.019 A 
ENDBRANCH   2  18
TORSDOF 3
ENDMDL
MODEL 4
REMARK VINA RESULT:      -7.3      1.719      4.929
REMARK  3 active torsions:
REMARK  status: ('A' for Active; 'I' for Inactive)
REMARK    1  A    between atoms: C_10  and  N_2 
REMARK    2  A    between atoms: C_15  and  C_3 
REMARK    3  A    between atoms: C_6  and  C_4 
ROOT
ATOM      1  N   UNL d   1      50.668  33.192  53.333  0.00  0.00    -0.165 NA
ATOM      2  N   UNL d   1      50.259  34.412  52.719  0.00  0.00    -0.228 N 
ATOM      3  C   UNL d   1      51.630  34.028  52.694  0.00  0.00     0.081 A 
ATOM      4  C   UNL d   1      51.448  33.342  53.111  0.00  0.00     0.106 A 
ATOM      5  C   UNL d   1      51.039  34.563  52.498  0.00  0.00     0.105 A 
ENDROOT
BRANCH   4   6
ATOM      6  C   UNL d   1      52.041  32.802  53.311  0.00  0.00     0.022 A 
ATOM      7  C   UNL d   1      52.073  32.072  52.932  0.00  0.00     0.028 A 
ATOM      8  C   UNL d   1      52.666  31.530  53.130  0.00  0.00     0.123 A 
ATOM      9  O   UNL d   1      52.698  30.798  52.750  0.00  0.00    -0.301 OA
ATOM     10  C   UNL d   1      53.230  31.731  53.717  0.00  0.00     0.123 A 
ATOM     11  C   UNL d   1      53.302  30.254  52.955  0.00  0.00     0.149 A 
ATOM     12  C   UNL d   1      53.859  30.452  53.536  0.00  0.00     0.149 A 
ATOM     13  O   UNL d   1      53.820  31.190  53.913  0.00  0.00    -0.301 OA
ATOM     14  C   UNL d   1      53.186  32.463  54.087  0.00  0.00     0.027 A 
ATOM     15  C   UNL d   1      52.598  33.000  53.890  0.00  0.00     0.004 A 
ENDBRANCH   4   6
BRANCH   3  16
ATOM     16  C   UNL d   1      52.446  34.185  52.463  0.00  0.00     0.237 C 
ATOM     17  O   UNL d   1      52.635  34.916  52.071  0.00  0.00    -0.283 OA
ENDBRANCH   3  16
BRANCH   2  18
ATOM     18  C   UNL d   1      49.538  34.801  52.628  0.00  0.00     0.083 A 
ATOM     19  C   UNL d   1      49.105  34.719  51.931  0.00  0.00     0.019 A 
ATOM     20  C   UNL d   1      48.384  35.113  51.848  0.00  0.00     0.002 A 
ATOM     21  C   UNL d   1      48.097  35.584  52.460  0.00  0.00     0.000 A 
ATOM     22  C   UNL d   1      48.532  35.666  53.159  0.00  0.00     0.002 A 
ATOM     23  C   UNL d   1      49.252  35.273  53.240  0.00  0.00     0.019 A 
ENDBRANCH   2  18
TORSDOF 3
ENDMDL
MODEL 5
REMARK VINA RESULT:      -7.2      1.471      4.883
REMARK  3 active torsions:
REMARK  status: ('A' for Active; 'I' for Inactive)
REMARK    1  A    between atoms: C_10  and  N_2 
REMARK    2  A    between atoms: C_15  and  C_3 
REMARK    3  A    between atoms: C_6  and  C_4 
ROOT
ATOM      1  N   UNL d   1      50.455  34.082  53.684  0.00  0.00    -0.165 NA
ATOM      2  N   UNL d   1      49.750  34.749  52.639  0.00  0.00    -0.228 N 
ATOM      3  C   UNL d   1      51.058  34.237  52.401  0.00  0.00     0.081 A 
ATOM      4  C   UNL d   1      51.094  33.962  53.177  0.00  0.00     0.106 A 
ATOM      5  C   UNL d   1      50.390  34.629  52.131  0.00  0.00     0.105 A 
ENDROOT
BRANCH   4   6
ATOM      6  C   UNL d   1      51.766  33.567  53.451  0.00  0.00     0.022 A 
ATOM      7  C   UNL d   1      52.306  33.962  53.929  0.00  0.00     0.028 A 
ATOM      8  C   UNL d   1      52.979  33.568  54.205  0.00  0.00     0.123 A 
ATOM      9  O   UNL d   1      53.521  33.965  54.685  0.00  0.00    -0.301 OA
ATOM     10  C   UNL d   1      53.104  32.766  53.994  0.00  0.00     0.123 A 
ATOM     11  C   UNL d   1      54.201  33.559  54.961  0.00  0.00     0.149 A 
ATOM     12  C   UNL d   1      54.324  32.767  54.752  0.00  0.00     0.149 A 
ATOM     13  O   UNL d   1      53.775  32.375  54.270  0.00  0.00    -0.301 OA
ATOM     14  C   UNL d   1      52.556  32.383  53.516  0.00  0.00     0.027 A 
ATOM     15  C   UNL d   1      51.889  32.775  53.243  0.00  0.00     0.004 A 
ENDBRANCH   4   6
BRANCH   3  16
ATOM     16  C   UNL d   1      51.726  34.111  51.871  0.00  0.00     0.237 C 
ATOM     17  O   UNL d   1      51.683  34.397  51.070  0.00  0.00    -0.283 OA
ENDBRANCH   3  16
BRANCH   2  18
ATOM     18  C   UNL d   1      49.009  35.105  52.576  0.00  0.00     0.083 A 
ATOM     19  C   UNL d   1      48.542  34.981  51.908  0.00  0.00     0.019 A 
ATOM     20  C   UNL d   1      47.802  35.342  51.853  0.00  0.00     0.002 A 
ATOM     21  C   UNL d   1      47.530  35.824  52.464  0.00  0.00     0.000 A 
ATOM     22  C   UNL d   1      48.000  35.948  53.134  0.00  0.00     0.002 A 
ATOM     23  C   UNL d   1      48.739  35.587  53.186  0.00  0.00     0.019 A 
ENDBRANCH   2  18
TORSDOF 3
ENDMDL
MODEL 6
REMARK VINA RESULT:      -6.9      2.824      3.974
REMARK  3 active torsions:
REMARK  status: ('A' for Active; 'I' for Inactive)
REMARK    1  A    between atoms: C_10  and  N_2 
REMARK    2  A    between atoms: C_15  and  C_3 
REMARK    3  A    between atoms: C_6  and  C_4 
ROOT
ATOM      1  N   UNL d   1      52.534  32.279  53.975  0.00  0.00    -0.165 NA
ATOM      2  N   UNL d   1      53.355  31.144  53.713  0.00  0.00    -0.228 N 
ATOM      3  C   UNL d   1      53.906  32.455  53.627  0.00  0.00     0.081 A 
ATOM      4  C   UNL d   1      53.176  32.777  53.831  0.00  0.00     0.106 A 
ATOM      5  C   UNL d   1      53.997  31.642  53.568  0.00  0.00     0.105 A 
ENDROOT
BRANCH   4   6
ATOM      6  C   UNL d   1      53.080  33.596  53.891  0.00  0.00     0.022 A 
ATOM      7  C   UNL d   1      53.235  33.974  54.605  0.00  0.00     0.028 A 
ATOM      8  C   UNL d   1      53.140  34.793  54.666  0.00  0.00     0.123 A 
ATOM      9  O   UNL d   1      53.296  35.173  55.383  0.00  0.00    -0.301 OA
ATOM     10  C   UNL d   1      52.886  35.231  53.999  0.00  0.00     0.123 A 
ATOM     11  C   UNL d   1      53.197  36.004  55.439  0.00  0.00     0.149 A 
ATOM     12  C   UNL d   1      52.946  36.437  54.778  0.00  0.00     0.149 A 
ATOM     13  O   UNL d   1      52.791  36.048  54.062  0.00  0.00    -0.301 OA
ATOM     14  C   UNL d   1      52.734  34.841  53.292  0.00  0.00     0.027 A 
ATOM     15  C   UNL d   1      52.829  34.029  53.231  0.00  0.00     0.004 A 
ENDBRANCH   4   6
BRANCH   3  16
ATOM     16  C   UNL d   1      54.576  32.975  53.476  0.00  0.00     0.237 C 
ATOM     17  O   UNL d   1      55.311  32.642  53.204  0.00  0.00    -0.283 OA
ENDBRANCH   3  16
BRANCH   2  18
ATOM     18  C   UNL d   1      53.232  30.329  53.710  0.00  0.00     0.083 A 
ATOM     19  C   UNL d   1      52.896  29.960  53.054  0.00  0.00     0.019 A 
ATOM     20  C   UNL d   1      52.777  29.143  53.060  0.00  0.00     0.002 A 
ATOM     21  C   UNL d   1      52.993  28.698  53.718  0.00  0.00     0.000 A 
ATOM     22  C   UNL d   1      53.330  29.069  54.377  0.00  0.00     0.002 A 
ATOM     23  C   UNL d   1      53.449  29.884  54.369  0.00  0.00     0.019 A 
ENDBRANCH   2  18
TORSDOF 3
ENDMDL
