MODEL 1
REMARK VINA RESULT:      41.9      0.000      0.000
REMARK  4 active torsions:
REMARK  status: ('A' for Active; 'I' for Inactive)
REMARK    1  A    between atoms: C_9  and  N_1 
REMARK    2  A    between atoms: C_2  and  C_9 
REMARK    3  A    between atoms: S_13  and  C_5 
REMARK    4  A    between atoms: C_17  and  S_13 
ROOT
ATOM      1  N   UNL d   1     -51.258  24.844  33.327  0.00  0.00    -0.265 N 
ATOM      2  C   UNL d   1     -50.711  24.224  33.315  0.00  0.00     0.296 A 
ATOM      3  S   UNL d   1     -51.134  23.519  33.316  0.00  0.00    -0.025 SA
ATOM      4  C   UNL d   1     -52.013  24.531  33.334  0.00  0.00     0.074 A 
ATOM      5  C   UNL d   1     -51.946  23.712  33.327  0.00  0.00     0.050 A 
ATOM      6  O   UNL d   1     -49.892  24.301  33.306  0.00  0.00    -0.259 OA
ATOM      7  C   UNL d   1     -52.766  24.881  33.346  0.00  0.00     0.018 A 
ATOM      8  C   UNL d   1     -52.623  23.237  33.332  0.00  0.00     0.008 A 
ATOM      9  C   UNL d   1     -53.445  24.411  33.351  0.00  0.00     0.002 A 
ATOM     10  C   UNL d   1     -53.363  23.584  33.344  0.00  0.00     0.001 A 
ENDROOT
BRANCH   1  11
ATOM     11  C   UNL d   1     -51.077  25.649  33.330  0.00  0.00     0.123 C 
BRANCH  11  12
ATOM     12  C   UNL d   1     -50.758  25.999  33.995  0.00  0.00     0.189 A 
ATOM     13  N   UNL d   1     -50.492  26.771  33.963  0.00  0.00    -0.265 N 
ATOM     14  C   UNL d   1     -50.203  26.971  34.707  0.00  0.00     0.201 A 
ATOM     15  C   UNL d   1     -50.503  27.273  33.309  0.00  0.00     0.103 C 
ATOM     16  N   UNL d   1     -50.292  26.319  35.199  0.00  0.00    -0.121 NA
ATOM     17  N   UNL d   1     -50.636  25.719  34.755  0.00  0.00    -0.126 NA
BRANCH  14  18
ATOM     18  S   UNL d   1     -49.880  27.697  34.924  0.00  0.00    -0.048 SA
BRANCH  18  19
ATOM     19  C   UNL d   1     -49.099  27.882  34.738  0.00  0.00     0.038 C 
ATOM     20  C   UNL d   1     -48.724  28.523  35.098  0.00  0.00     0.008 C 
ENDBRANCH  18  19
ENDBRANCH  14  18
ENDBRANCH  11  12
ENDBRANCH   1  11
TORSDOF 4
ENDMDL
