MODEL 1
REMARK VINA RESULT:      85.9      0.000      0.000
REMARK  3 active torsions:
REMARK  status: ('A' for Active; 'I' for Inactive)
REMARK    1  A    between atoms: C_5  and  C_1 
REMARK    2  A    between atoms: N_8  and  C_5 
REMARK    3  A    between atoms: C_10  and  C_5 
ROOT
ATOM      1  C   UNL d   1     -55.803-100.289 -43.876  0.00  0.00     0.085 C 
ENDROOT
BRANCH   1   2
ATOM      2  C   UNL d   1     -56.458 -99.910 -44.221  0.00  0.00     0.059 A 
ATOM      3  C   UNL d   1     -57.184 -99.924 -43.827  0.00  0.00     0.214 A 
ATOM      4  C   UNL d   1     -57.830 -99.548 -44.172  0.00  0.00     0.121 A 
ATOM      5  O   UNL d   1     -57.259-100.306 -43.108  0.00  0.00    -0.285 OA
ATOM      6  N   UNL d   1     -58.556 -99.562 -43.778  0.00  0.00    -0.241 NA
ATOM      7  C   UNL d   1     -57.754 -99.163 -44.898  0.00  0.00     0.032 A 
ATOM      8  C   UNL d   1     -59.206 -99.184 -44.123  0.00  0.00     0.099 A 
ATOM      9  C   UNL d   1     -59.141 -98.794 -44.852  0.00  0.00     0.021 A 
ATOM     10  C   UNL d   1     -58.404 -98.787 -45.239  0.00  0.00     0.004 A 
ATOM     11  C   UNL d   1     -57.032 -99.149 -45.288  0.00  0.00     0.059 A 
ATOM     12  C   UNL d   1     -56.377 -99.526 -44.947  0.00  0.00     0.016 A 
ATOM     13 CL   UNL d   1     -56.957 -98.766 -46.010  0.00  0.00    -0.082 Cl
ENDBRANCH   1   2
BRANCH   1  14
ATOM     14  N   UNL d   1     -55.470 -99.995 -43.191  0.00  0.00    -0.302 N 
ATOM     15  C   UNL d   1     -55.051-100.497 -42.679  0.00  0.00     0.080 A 
ATOM     16  C   UNL d   1     -54.712-100.199 -41.984  0.00  0.00     0.019 A 
ATOM     17  C   UNL d   1     -54.796 -99.401 -41.808  0.00  0.00     0.003 A 
ATOM     18  C   UNL d   1     -55.210 -98.900 -42.314  0.00  0.00     0.019 A 
ATOM     19  C   UNL d   1     -55.543 -99.194 -42.998  0.00  0.00     0.080 A 
ENDBRANCH   1  14
BRANCH   1  20
ATOM     20  C   UNL d   1     -55.496-100.966 -44.236  0.00  0.00     0.098 A 
ATOM     21  N   UNL d   1     -55.638-101.711 -43.904  0.00  0.00    -0.243 NA
ATOM     22  C   UNL d   1     -55.338-102.381 -44.254  0.00  0.00     0.099 A 
ATOM     23  C   UNL d   1     -54.886-102.323 -44.947  0.00  0.00     0.021 A 
ATOM     24  C   UNL d   1     -54.742-101.582 -45.282  0.00  0.00     0.003 A 
ATOM     25  C   UNL d   1     -55.047-100.908 -44.926  0.00  0.00     0.021 A 
ENDBRANCH   1  20
TORSDOF 3
ENDMDL
