MODEL 1
REMARK VINA RESULT:       3.2      0.000      0.000
REMARK  7 active torsions:
REMARK  status: ('A' for Active; 'I' for Inactive)
REMARK    1  A    between atoms: S_10  and  C_5 
REMARK    2  A    between atoms: C_11  and  N_8 
REMARK    3  A    between atoms: C_15  and  S_10 
REMARK    4  A    between atoms: C_19  and  C_11 
REMARK    5  A    between atoms: C_14  and  C_15 
REMARK    6  A    between atoms: C_17  and  C_14 
REMARK    7  A    between atoms: C_20  and  C_19 
ROOT
ATOM      1  C   UNL d   1     -41.975-122.665 -53.772  0.00  0.00     0.174 A 
ATOM      2  C   UNL d   1     -41.699-121.889 -53.723  0.00  0.00     0.159 A 
ATOM      3  N   UNL d   1     -41.894-123.016 -53.037  0.00  0.00    -0.203 NA
ATOM      4  N   UNL d   1     -42.274-122.959 -54.501  0.00  0.00    -0.239 N 
ATOM      5  C   UNL d   1     -41.562-122.425 -52.553  0.00  0.00     0.181 A 
ATOM      6  C   UNL d   1     -42.294-122.497 -55.149  0.00  0.00     0.358 A 
ATOM      7  N   UNL d   1     -42.007-121.692 -55.098  0.00  0.00    -0.152 NA
ATOM      8  N   UNL d   1     -41.453-121.778 -52.958  0.00  0.00    -0.279 N 
ATOM      9  C   UNL d   1     -41.716-121.392 -54.401  0.00  0.00     0.302 A 
ATOM     10  O   UNL d   1     -42.594-122.810 -55.859  0.00  0.00    -0.244 OA
ATOM     11  O   UNL d   1     -41.445-120.613 -54.378  0.00  0.00    -0.263 OA
ATOM     12  C   UNL d   1     -42.556-123.731 -54.576  0.00  0.00     0.105 C 
ENDROOT
BRANCH   5  13
ATOM     13  S   UNL d   1     -41.373-122.520 -51.743  0.00  0.00    -0.046 SA
BRANCH  13  14
ATOM     14  C   UNL d   1     -41.932-122.809 -51.215  0.00  0.00     0.080 C 
BRANCH  14  15
ATOM     15  C   UNL d   1     -41.693-123.247 -50.551  0.00  0.00     0.202 C 
ATOM     16  O   UNL d   1     -41.124-123.817 -50.642  0.00  0.00    -0.286 OA
BRANCH  15  17
ATOM     17  C   UNL d   1     -42.034-123.099 -49.815  0.00  0.00     0.040 A 
ATOM     18  C   UNL d   1     -42.835-122.978 -49.744  0.00  0.00     0.003 A 
ATOM     19  C   UNL d   1     -43.176-122.830 -49.008  0.00  0.00     0.000 A 
ATOM     20  C   UNL d   1     -42.700-122.800 -48.320  0.00  0.00     0.000 A 
ATOM     21  C   UNL d   1     -41.893-122.924 -48.409  0.00  0.00     0.000 A 
ATOM     22  C   UNL d   1     -41.557-123.072 -49.142  0.00  0.00     0.003 A 
ENDBRANCH  15  17
ENDBRANCH  14  15
ENDBRANCH  13  14
ENDBRANCH   5  13
BRANCH   8  23
ATOM     23  C   UNL d   1     -41.123-121.061 -52.640  0.00  0.00     0.082 C 
BRANCH  23  24
ATOM     24  C   UNL d   1     -41.373-120.753 -51.918  0.00  0.00     0.019 C 
BRANCH  24  25
ATOM     25  C   UNL d   1     -41.220-120.004 -51.713  0.00  0.00     0.002 C 
ATOM     26  C   UNL d   1     -41.155-119.425 -52.296  0.00  0.00     0.000 C 
ATOM     27  C   UNL d   1     -41.127-119.797 -50.951  0.00  0.00     0.000 C 
ENDBRANCH  24  25
ENDBRANCH  23  24
ENDBRANCH   8  23
TORSDOF 7
ENDMDL
