MODEL 1
REMARK VINA RESULT:      -8.5      0.000      0.000
REMARK  4 active torsions:
REMARK  status: ('A' for Active; 'I' for Inactive)
REMARK       I    between atoms: C_6  and  N_7 
REMARK    1  A    between atoms: C_9  and  C_6 
REMARK    2  A    between atoms: N_7  and  C_15 
REMARK    3  A    between atoms: C_15  and  C_14 
REMARK    4  A    between atoms: O_22  and  C_18 
ROOT
ATOM      1  C   UNL d   1      52.269  33.499  52.782  0.00  0.00     0.102 C 
ENDROOT
BRANCH   1   2
ATOM      2  N   UNL d   1      52.330  32.714  53.000  0.00  0.00    -0.206 NA
ATOM      3  C   UNL d   1      53.059  32.343  53.044  0.00  0.00     0.279 C 
ATOM      4  O   UNL d   1      53.744  32.767  52.866  0.00  0.00    -0.265 OA
BRANCH   3   5
ATOM      5  C   UNL d   1      53.122  31.549  53.264  0.00  0.00     0.058 A 
ATOM      6  C   UNL d   1      53.533  31.337  53.947  0.00  0.00     0.007 A 
ATOM      7  C   UNL d   1      53.587  30.540  54.155  0.00  0.00     0.024 A 
ATOM      8  C   UNL d   1      53.244  29.962  53.700  0.00  0.00     0.094 A 
ATOM      9  C   UNL d   1      52.824  30.178  53.004  0.00  0.00     0.024 A 
ATOM     10  C   UNL d   1      52.762  30.971  52.784  0.00  0.00     0.007 A 
BRANCH   8  11
ATOM     11  O   UNL d   1      53.294  29.168  53.900  0.00  0.00    -0.328 OA
ATOM     12  C   UNL d   1      53.283  28.956  54.707  0.00  0.00     0.181 C 
ENDBRANCH   8  11
ENDBRANCH   3   5
ENDBRANCH   1   2
BRANCH   1  13
ATOM     13  C   UNL d   1      51.534  33.867  52.744  0.00  0.00     0.019 A 
ATOM     14  C   UNL d   1      51.234  34.270  53.408  0.00  0.00     0.003 A 
ATOM     15  C   UNL d   1      50.496  34.640  53.368  0.00  0.00     0.018 A 
ATOM     16  C   UNL d   1      50.058  34.608  52.672  0.00  0.00     0.064 A 
ATOM     17  N   UNL d   1      49.322  34.916  52.470  0.00  0.00    -0.304 N 
ATOM     18  C   UNL d   1      50.348  34.211  52.010  0.00  0.00     0.018 A 
ATOM     19  C   UNL d   1      49.159  34.711  51.692  0.00  0.00     0.064 A 
ATOM     20  C   UNL d   1      48.833  35.357  52.969  0.00  0.00     0.099 C 
ATOM     21  C   UNL d   1      49.797  34.274  51.409  0.00  0.00     0.019 A 
ATOM     22  C   UNL d   1      48.480  34.906  51.266  0.00  0.00     0.019 C 
ATOM     23  C   UNL d   1      51.093  33.837  52.046  0.00  0.00     0.003 A 
ENDBRANCH   1  13
TORSDOF 4
ENDMDL
MODEL 2
REMARK VINA RESULT:      -7.8      2.284      5.643
REMARK  4 active torsions:
REMARK  status: ('A' for Active; 'I' for Inactive)
REMARK       I    between atoms: C_6  and  N_7 
REMARK    1  A    between atoms: C_9  and  C_6 
REMARK    2  A    between atoms: N_7  and  C_15 
REMARK    3  A    between atoms: C_15  and  C_14 
REMARK    4  A    between atoms: O_22  and  C_18 
ROOT
ATOM      1  C   UNL d   1      50.673  34.195  52.354  0.00  0.00     0.102 C 
ENDROOT
BRANCH   1   2
ATOM      2  N   UNL d   1      50.063  34.675  52.609  0.00  0.00    -0.206 NA
ATOM      3  C   UNL d   1      49.384  34.771  52.160  0.00  0.00     0.279 C 
ATOM      4  O   UNL d   1      49.314  34.378  51.439  0.00  0.00    -0.265 OA
BRANCH   3   5
ATOM      5  C   UNL d   1      48.768  35.256  52.418  0.00  0.00     0.058 A 
ATOM      6  C   UNL d   1      48.756  35.540  53.192  0.00  0.00     0.007 A 
ATOM      7  C   UNL d   1      48.134  36.024  53.436  0.00  0.00     0.024 A 
ATOM      8  C   UNL d   1      47.533  36.226  52.928  0.00  0.00     0.094 A 
ATOM      9  C   UNL d   1      47.544  35.937  52.139  0.00  0.00     0.024 A 
ATOM     10  C   UNL d   1      48.161  35.452  51.881  0.00  0.00     0.007 A 
BRANCH   8  11
ATOM     11  O   UNL d   1      46.911  36.706  53.163  0.00  0.00    -0.328 OA
ATOM     12  C   UNL d   1      46.432  36.460  53.800  0.00  0.00     0.181 C 
ENDBRANCH   8  11
ENDBRANCH   3   5
ENDBRANCH   1   2
BRANCH   1  13
ATOM     13  C   UNL d   1      51.349  34.098  52.812  0.00  0.00     0.019 A 
ATOM     14  C   UNL d   1      51.732  34.763  53.136  0.00  0.00     0.003 A 
ATOM     15  C   UNL d   1      52.412  34.665  53.596  0.00  0.00     0.018 A 
ATOM     16  C   UNL d   1      52.710  33.910  53.732  0.00  0.00     0.064 A 
ATOM     17  N   UNL d   1      53.362  33.645  54.158  0.00  0.00    -0.304 N 
ATOM     18  C   UNL d   1      52.337  33.247  53.415  0.00  0.00     0.018 A 
ATOM     19  C   UNL d   1      53.392  32.826  54.104  0.00  0.00     0.064 A 
ATOM     20  C   UNL d   1      53.895  34.124  54.569  0.00  0.00     0.099 C 
ATOM     21  C   UNL d   1      52.755  32.582  53.643  0.00  0.00     0.019 A 
ATOM     22  C   UNL d   1      53.957  32.333  54.448  0.00  0.00     0.019 C 
ATOM     23  C   UNL d   1      51.650  33.342  52.950  0.00  0.00     0.003 A 
ENDBRANCH   1  13
TORSDOF 4
ENDMDL
MODEL 3
REMARK VINA RESULT:      -7.7      2.284      3.098
REMARK  4 active torsions:
REMARK  status: ('A' for Active; 'I' for Inactive)
REMARK       I    between atoms: C_6  and  N_7 
REMARK    1  A    between atoms: C_9  and  C_6 
REMARK    2  A    between atoms: N_7  and  C_15 
REMARK    3  A    between atoms: C_15  and  C_14 
REMARK    4  A    between atoms: O_22  and  C_18 
ROOT
ATOM      1  C   UNL d   1      50.050  34.467  52.202  0.00  0.00     0.102 C 
ENDROOT
BRANCH   1   2
ATOM      2  N   UNL d   1      50.637  34.464  52.770  0.00  0.00    -0.206 NA
ATOM      3  C   UNL d   1      51.377  34.149  52.614  0.00  0.00     0.279 C 
ATOM      4  O   UNL d   1      51.534  33.829  51.869  0.00  0.00    -0.265 OA
BRANCH   3   5
ATOM      5  C   UNL d   1      51.970  34.146  53.188  0.00  0.00     0.058 A 
ATOM      6  C   UNL d   1      52.134  33.459  53.614  0.00  0.00     0.007 A 
ATOM      7  C   UNL d   1      52.730  33.471  54.185  0.00  0.00     0.024 A 
ATOM      8  C   UNL d   1      53.157  34.145  54.335  0.00  0.00     0.094 A 
ATOM      9  C   UNL d   1      52.991  34.845  53.901  0.00  0.00     0.024 A 
ATOM     10  C   UNL d   1      52.397  34.848  53.326  0.00  0.00     0.007 A 
BRANCH   8  11
ATOM     11  O   UNL d   1      53.751  34.164  54.901  0.00  0.00    -0.328 OA
ATOM     12  C   UNL d   1      54.310  33.545  54.918  0.00  0.00     0.181 C 
ENDBRANCH   8  11
ENDBRANCH   3   5
ENDBRANCH   1   2
BRANCH   1  13
ATOM     13  C   UNL d   1      49.345  34.870  52.330  0.00  0.00     0.019 A 
ATOM     14  C   UNL d   1      49.205  35.244  53.061  0.00  0.00     0.003 A 
ATOM     15  C   UNL d   1      48.496  35.649  53.188  0.00  0.00     0.018 A 
ATOM     16  C   UNL d   1      47.929  35.682  52.592  0.00  0.00     0.064 A 
ATOM     17  N   UNL d   1      47.187  36.036  52.558  0.00  0.00    -0.304 N 
ATOM     18  C   UNL d   1      48.060  35.315  51.866  0.00  0.00     0.018 A 
ATOM     19  C   UNL d   1      46.863  35.889  51.817  0.00  0.00     0.064 A 
ATOM     20  C   UNL d   1      46.831  36.466  53.167  0.00  0.00     0.099 C 
ATOM     21  C   UNL d   1      47.407  35.442  51.391  0.00  0.00     0.019 A 
ATOM     22  C   UNL d   1      46.126  36.142  51.547  0.00  0.00     0.019 C 
ATOM     23  C   UNL d   1      48.775  34.905  51.733  0.00  0.00     0.003 A 
ENDBRANCH   1  13
TORSDOF 4
ENDMDL
MODEL 4
REMARK VINA RESULT:      -7.4      1.550      5.175
REMARK  4 active torsions:
REMARK  status: ('A' for Active; 'I' for Inactive)
REMARK       I    between atoms: C_6  and  N_7 
REMARK    1  A    between atoms: C_9  and  C_6 
REMARK    2  A    between atoms: N_7  and  C_15 
REMARK    3  A    between atoms: C_15  and  C_14 
REMARK    4  A    between atoms: O_22  and  C_18 
ROOT
ATOM      1  C   UNL d   1      52.757  33.139  52.991  0.00  0.00     0.102 C 
ENDROOT
BRANCH   1   2
ATOM      2  N   UNL d   1      51.988  33.328  52.793  0.00  0.00    -0.206 NA
ATOM      3  C   UNL d   1      51.770  34.100  52.629  0.00  0.00     0.279 C 
ATOM      4  O   UNL d   1      52.336  34.699  52.663  0.00  0.00    -0.265 OA
BRANCH   3   5
ATOM      5  C   UNL d   1      50.992  34.291  52.429  0.00  0.00     0.058 A 
ATOM      6  C   UNL d   1      50.737  34.237  51.646  0.00  0.00     0.007 A 
ATOM      7  C   UNL d   1      49.957  34.431  51.461  0.00  0.00     0.024 A 
ATOM      8  C   UNL d   1      49.435  34.674  52.035  0.00  0.00     0.094 A 
ATOM      9  C   UNL d   1      49.695  34.729  52.832  0.00  0.00     0.024 A 
ATOM     10  C   UNL d   1      50.472  34.538  53.032  0.00  0.00     0.007 A 
BRANCH   8  11
ATOM     11  O   UNL d   1      48.658  34.869  51.858  0.00  0.00    -0.328 OA
ATOM     12  C   UNL d   1      48.389  34.777  51.074  0.00  0.00     0.181 C 
ENDBRANCH   8  11
ENDBRANCH   3   5
ENDBRANCH   1   2
BRANCH   1  13
ATOM     13  C   UNL d   1      52.952  32.379  53.239  0.00  0.00     0.019 A 
ATOM     14  C   UNL d   1      53.508  32.270  53.850  0.00  0.00     0.003 A 
ATOM     15  C   UNL d   1      53.702  31.506  54.099  0.00  0.00     0.018 A 
ATOM     16  C   UNL d   1      53.347  30.855  53.742  0.00  0.00     0.064 A 
ATOM     17  N   UNL d   1      53.428  30.046  53.870  0.00  0.00    -0.304 N 
ATOM     18  C   UNL d   1      52.796  30.954  53.137  0.00  0.00     0.018 A 
ATOM     19  C   UNL d   1      52.932  29.650  53.347  0.00  0.00     0.064 A 
ATOM     20  C   UNL d   1      53.925  29.694  54.428  0.00  0.00     0.099 C 
ATOM     21  C   UNL d   1      52.542  30.216  52.895  0.00  0.00     0.019 A 
ATOM     22  C   UNL d   1      52.839  28.833  53.285  0.00  0.00     0.019 C 
ATOM     23  C   UNL d   1      52.597  31.724  52.883  0.00  0.00     0.003 A 
ENDBRANCH   1  13
TORSDOF 4
ENDMDL
MODEL 5
REMARK VINA RESULT:      -6.5      1.795      2.568
REMARK  4 active torsions:
REMARK  status: ('A' for Active; 'I' for Inactive)
REMARK       I    between atoms: C_6  and  N_7 
REMARK    1  A    between atoms: C_9  and  C_6 
REMARK    2  A    between atoms: N_7  and  C_15 
REMARK    3  A    between atoms: C_15  and  C_14 
REMARK    4  A    between atoms: O_22  and  C_18 
ROOT
ATOM      1  C   UNL d   1      52.658  32.320  52.704  0.00  0.00     0.102 C 
ENDROOT
BRANCH   1   2
ATOM      2  N   UNL d   1      52.792  31.668  53.178  0.00  0.00    -0.206 NA
ATOM      3  C   UNL d   1      52.940  30.931  52.854  0.00  0.00     0.279 C 
ATOM      4  O   UNL d   1      52.955  30.843  52.033  0.00  0.00    -0.265 OA
BRANCH   3   5
ATOM      5  C   UNL d   1      53.075  30.272  53.333  0.00  0.00     0.058 A 
ATOM      6  C   UNL d   1      53.816  30.151  53.675  0.00  0.00     0.007 A 
ATOM      7  C   UNL d   1      53.937  29.488  54.152  0.00  0.00     0.024 A 
ATOM      8  C   UNL d   1      53.340  28.954  54.290  0.00  0.00     0.094 A 
ATOM      9  C   UNL d   1      52.586  29.078  53.942  0.00  0.00     0.024 A 
ATOM     10  C   UNL d   1      52.451  29.736  53.462  0.00  0.00     0.007 A 
BRANCH   8  11
ATOM     11  O   UNL d   1      53.453  28.293  54.763  0.00  0.00    -0.328 OA
ATOM     12  C   UNL d   1      53.339  28.364  55.586  0.00  0.00     0.181 C 
ENDBRANCH   8  11
ENDBRANCH   3   5
ENDBRANCH   1   2
BRANCH   1  13
ATOM     13  C   UNL d   1      52.527  33.060  53.037  0.00  0.00     0.019 A 
ATOM     14  C   UNL d   1      51.768  33.404  53.005  0.00  0.00     0.003 A 
ATOM     15  C   UNL d   1      51.638  34.148  53.339  0.00  0.00     0.018 A 
ATOM     16  C   UNL d   1      52.257  34.549  53.704  0.00  0.00     0.064 A 
ATOM     17  N   UNL d   1      52.294  35.282  54.078  0.00  0.00    -0.304 N 
ATOM     18  C   UNL d   1      53.011  34.217  53.740  0.00  0.00     0.018 A 
ATOM     19  C   UNL d   1      53.064  35.399  54.341  0.00  0.00     0.064 A 
ATOM     20  C   UNL d   1      51.663  35.806  54.170  0.00  0.00     0.099 C 
ATOM     21  C   UNL d   1      53.504  34.737  54.131  0.00  0.00     0.019 A 
ATOM     22  C   UNL d   1      53.346  36.061  54.745  0.00  0.00     0.019 C 
ATOM     23  C   UNL d   1      53.147  33.465  53.403  0.00  0.00     0.003 A 
ENDBRANCH   1  13
TORSDOF 4
ENDMDL
MODEL 6
REMARK VINA RESULT:      -5.9      9.989     10.731
REMARK  4 active torsions:
REMARK  status: ('A' for Active; 'I' for Inactive)
REMARK       I    between atoms: C_6  and  N_7 
REMARK    1  A    between atoms: C_9  and  C_6 
REMARK    2  A    between atoms: N_7  and  C_15 
REMARK    3  A    between atoms: C_15  and  C_14 
REMARK    4  A    between atoms: O_22  and  C_18 
ROOT
ATOM      1  C   UNL d   1      44.837  30.060  59.357  0.00  0.00     0.102 C 
ENDROOT
BRANCH   1   2
ATOM      2  N   UNL d   1      44.919  29.350  58.963  0.00  0.00    -0.206 NA
ATOM      3  C   UNL d   1      45.029  29.325  58.151  0.00  0.00     0.279 C 
ATOM      4  O   UNL d   1      45.057  30.030  57.723  0.00  0.00    -0.265 OA
BRANCH   3   5
ATOM      5  C   UNL d   1      45.112  28.607  57.752  0.00  0.00     0.058 A 
ATOM      6  C   UNL d   1      44.864  28.535  56.968  0.00  0.00     0.007 A 
ATOM      7  C   UNL d   1      44.954  27.811  56.582  0.00  0.00     0.024 A 
ATOM      8  C   UNL d   1      45.280  27.170  56.959  0.00  0.00     0.094 A 
ATOM      9  C   UNL d   1      45.532  27.243  57.757  0.00  0.00     0.024 A 
ATOM     10  C   UNL d   1      45.449  27.961  58.156  0.00  0.00     0.007 A 
BRANCH   8  11
ATOM     11  O   UNL d   1      45.371  26.447  56.581  0.00  0.00    -0.328 OA
ATOM     12  C   UNL d   1      44.694  25.986  56.427  0.00  0.00     0.181 C 
ENDBRANCH   8  11
ENDBRANCH   3   5
ENDBRANCH   1   2
BRANCH   1  13
ATOM     13  C   UNL d   1      44.728  30.077  60.172  0.00  0.00     0.019 A 
ATOM     14  C   UNL d   1      44.663  29.365  60.599  0.00  0.00     0.003 A 
ATOM     15  C   UNL d   1      44.554  29.383  61.418  0.00  0.00     0.018 A 
ATOM     16  C   UNL d   1      44.509  30.105  61.810  0.00  0.00     0.064 A 
ATOM     17  N   UNL d   1      44.405  30.294  62.605  0.00  0.00    -0.304 N 
ATOM     18  C   UNL d   1      44.572  30.814  61.395  0.00  0.00     0.018 A 
ATOM     19  C   UNL d   1      44.404  31.112  62.678  0.00  0.00     0.064 A 
ATOM     20  C   UNL d   1      44.316  29.750  63.220  0.00  0.00     0.099 C 
ATOM     21  C   UNL d   1      44.508  31.431  61.927  0.00  0.00     0.019 A 
ATOM     22  C   UNL d   1      44.315  31.540  63.378  0.00  0.00     0.019 C 
ATOM     23  C   UNL d   1      44.683  30.800  60.568  0.00  0.00     0.003 A 
ENDBRANCH   1  13
TORSDOF 4
ENDMDL
