MODEL 1
REMARK VINA RESULT:      -2.9      0.000      0.000
REMARK  2 active torsions:
REMARK  status: ('A' for Active; 'I' for Inactive)
REMARK    1  A    between atoms: C_4  and  C_2 
REMARK    2  A    between atoms: C_8  and  C_3 
ROOT
ATOM      1  S   UNL d   1      29.637  16.446 -23.981  0.00  0.00    -0.081 SA
ATOM      2  C   UNL d   1      30.395  16.232 -23.731  0.00  0.00     0.031 A 
ATOM      3  C   UNL d   1      29.081  16.035 -23.507  0.00  0.00     0.094 A 
ATOM      4  C   UNL d   1      30.315  15.687 -23.099  0.00  0.00     0.007 A 
ATOM      5  C   UNL d   1      29.502  15.571 -22.967  0.00  0.00     0.013 A 
ENDROOT
BRANCH   2   6
ATOM      6  C   UNL d   1      31.102  16.501 -24.041  0.00  0.00     0.025 A 
ATOM      7  C   UNL d   1      31.469  17.169 -23.723  0.00  0.00     0.005 A 
ATOM      8  C   UNL d   1      32.177  17.439 -24.033  0.00  0.00     0.038 A 
ATOM      9  C   UNL d   1      32.540  18.102 -23.717  0.00  0.00     0.003 C 
ATOM     10  C   UNL d   1      32.526  17.039 -24.669  0.00  0.00     0.184 A 
ATOM     11  N   UNL d   1      32.156  16.368 -24.988  0.00  0.00    -0.224 NA
ATOM     12  N   UNL d   1      33.237  17.308 -24.982  0.00  0.00    -0.127 N 
ATOM     13  C   UNL d   1      31.446  16.109 -24.666  0.00  0.00     0.101 A 
ENDBRANCH   2   6
BRANCH   3  14
ATOM     14  C   UNL d   1      28.263  16.093 -23.576  0.00  0.00     0.217 C 
ATOM     15  O   UNL d   1      27.887  16.803 -23.359  0.00  0.00    -0.643 OA
ATOM     16  O   UNL d   1      27.820  15.474 -23.852  0.00  0.00    -0.643 OA
ENDBRANCH   3  14
TORSDOF 2
ENDMDL
MODEL 2
REMARK VINA RESULT:      -2.8      3.697      5.028
REMARK  2 active torsions:
REMARK  status: ('A' for Active; 'I' for Inactive)
REMARK    1  A    between atoms: C_4  and  C_2 
REMARK    2  A    between atoms: C_8  and  C_3 
ROOT
ATOM      1  S   UNL d   1      32.628  20.732 -22.047  0.00  0.00    -0.081 SA
ATOM      2  C   UNL d   1      32.933  19.971 -22.146  0.00  0.00     0.031 A 
ATOM      3  C   UNL d   1      32.743  20.956 -21.247  0.00  0.00     0.094 A 
ATOM      4  C   UNL d   1      33.241  19.716 -21.409  0.00  0.00     0.007 A 
ATOM      5  C   UNL d   1      33.120  20.329 -20.860  0.00  0.00     0.013 A 
ENDROOT
BRANCH   2   6
ATOM      6  C   UNL d   1      32.938  19.537 -22.840  0.00  0.00     0.025 A 
ATOM      7  C   UNL d   1      32.647  18.764 -22.850  0.00  0.00     0.005 A 
ATOM      8  C   UNL d   1      32.652  18.330 -23.543  0.00  0.00     0.038 A 
ATOM      9  C   UNL d   1      32.363  17.563 -23.552  0.00  0.00     0.003 C 
ATOM     10  C   UNL d   1      32.949  18.668 -24.238  0.00  0.00     0.184 A 
ATOM     11  N   UNL d   1      33.241  19.446 -24.227  0.00  0.00    -0.224 NA
ATOM     12  N   UNL d   1      32.955  18.234 -24.936  0.00  0.00    -0.127 N 
ATOM     13  C   UNL d   1      33.230  19.869 -23.524  0.00  0.00     0.101 A 
ENDBRANCH   2   6
BRANCH   3  14
ATOM     14  C   UNL d   1      32.517  21.675 -20.918  0.00  0.00     0.217 C 
ATOM     15  O   UNL d   1      31.731  21.775 -20.662  0.00  0.00    -0.643 OA
ATOM     16  O   UNL d   1      33.043  22.286 -20.840  0.00  0.00    -0.643 OA
ENDBRANCH   3  14
TORSDOF 2
ENDMDL
MODEL 3
REMARK VINA RESULT:      -2.7      2.465      3.618
REMARK  2 active torsions:
REMARK  status: ('A' for Active; 'I' for Inactive)
REMARK    1  A    between atoms: C_4  and  C_2 
REMARK    2  A    between atoms: C_8  and  C_3 
ROOT
ATOM      1  S   UNL d   1      31.783  17.717 -23.672  0.00  0.00    -0.081 SA
ATOM      2  C   UNL d   1      31.664  16.906 -23.777  0.00  0.00     0.031 A 
ATOM      3  C   UNL d   1      32.575  17.834 -23.426  0.00  0.00     0.094 A 
ATOM      4  C   UNL d   1      32.383  16.513 -23.596  0.00  0.00     0.007 A 
ATOM      5  C   UNL d   1      32.939  17.093 -23.380  0.00  0.00     0.013 A 
ENDROOT
BRANCH   2   6
ATOM      6  C   UNL d   1      30.971  16.544 -24.015  0.00  0.00     0.025 A 
ATOM      7  C   UNL d   1      30.463  16.209 -23.456  0.00  0.00     0.005 A 
ATOM      8  C   UNL d   1      29.769  15.847 -23.694  0.00  0.00     0.038 A 
ATOM      9  C   UNL d   1      29.265  15.515 -23.140  0.00  0.00     0.003 C 
ATOM     10  C   UNL d   1      29.576  15.816 -24.499  0.00  0.00     0.184 A 
ATOM     11  N   UNL d   1      30.088  16.153 -25.059  0.00  0.00    -0.224 NA
ATOM     12  N   UNL d   1      28.879  15.453 -24.741  0.00  0.00    -0.127 N 
ATOM     13  C   UNL d   1      30.780  16.513 -24.806  0.00  0.00     0.101 A 
ENDBRANCH   2   6
BRANCH   3  14
ATOM     14  C   UNL d   1      32.918  18.564 -23.261  0.00  0.00     0.217 C 
ATOM     15  O   UNL d   1      32.937  18.835 -22.475  0.00  0.00    -0.643 OA
ATOM     16  O   UNL d   1      33.236  19.021 -23.849  0.00  0.00    -0.643 OA
ENDBRANCH   3  14
TORSDOF 2
ENDMDL
MODEL 4
REMARK VINA RESULT:      -2.5      3.930      5.071
REMARK  2 active torsions:
REMARK  status: ('A' for Active; 'I' for Inactive)
REMARK    1  A    between atoms: C_4  and  C_2 
REMARK    2  A    between atoms: C_8  and  C_3 
ROOT
ATOM      1  S   UNL d   1      32.673  20.295 -21.638  0.00  0.00    -0.081 SA
ATOM      2  C   UNL d   1      32.968  20.099 -22.384  0.00  0.00     0.031 A 
ATOM      3  C   UNL d   1      32.760  21.122 -21.533  0.00  0.00     0.094 A 
ATOM      4  C   UNL d   1      33.241  20.802 -22.749  0.00  0.00     0.007 A 
ATOM      5  C   UNL d   1      33.109  21.429 -22.218  0.00  0.00     0.013 A 
ENDROOT
BRANCH   2   6
ATOM      6  C   UNL d   1      32.992  19.351 -22.715  0.00  0.00     0.025 A 
ATOM      7  C   UNL d   1      32.799  19.240 -23.510  0.00  0.00     0.005 A 
ATOM      8  C   UNL d   1      32.823  18.492 -23.841  0.00  0.00     0.038 A 
ATOM      9  C   UNL d   1      32.632  18.383 -24.630  0.00  0.00     0.003 C 
ATOM     10  C   UNL d   1      33.043  17.844 -23.375  0.00  0.00     0.184 A 
ATOM     11  N   UNL d   1      33.237  17.956 -22.576  0.00  0.00    -0.224 NA
ATOM     12  N   UNL d   1      33.068  17.091 -23.705  0.00  0.00    -0.127 N 
ATOM     13  C   UNL d   1      33.208  18.712 -22.257  0.00  0.00     0.101 A 
ENDBRANCH   2   6
BRANCH   3  14
ATOM     14  C   UNL d   1      32.534  21.542 -20.863  0.00  0.00     0.217 C 
ATOM     15  O   UNL d   1      33.121  21.837 -20.352  0.00  0.00    -0.643 OA
ATOM     16  O   UNL d   1      31.753  21.673 -20.693  0.00  0.00    -0.643 OA
ENDBRANCH   3  14
TORSDOF 2
ENDMDL
MODEL 5
REMARK VINA RESULT:      -2.5      2.819      4.037
REMARK  2 active torsions:
REMARK  status: ('A' for Active; 'I' for Inactive)
REMARK    1  A    between atoms: C_4  and  C_2 
REMARK    2  A    between atoms: C_8  and  C_3 
ROOT
ATOM      1  S   UNL d   1      32.543  18.640 -22.889  0.00  0.00    -0.081 SA
ATOM      2  C   UNL d   1      32.512  18.273 -23.629  0.00  0.00     0.031 A 
ATOM      3  C   UNL d   1      32.994  19.343 -22.967  0.00  0.00     0.094 A 
ATOM      4  C   UNL d   1      32.942  18.745 -24.172  0.00  0.00     0.007 A 
ATOM      5  C   UNL d   1      33.236  19.402 -23.756  0.00  0.00     0.013 A 
ENDROOT
BRANCH   2   6
ATOM      6  C   UNL d   1      32.129  17.572 -23.806  0.00  0.00     0.025 A 
ATOM      7  C   UNL d   1      31.333  17.576 -24.026  0.00  0.00     0.005 A 
ATOM      8  C   UNL d   1      30.951  16.875 -24.204  0.00  0.00     0.038 A 
ATOM      9  C   UNL d   1      30.161  16.879 -24.422  0.00  0.00     0.003 C 
ATOM     10  C   UNL d   1      31.364  16.159 -24.162  0.00  0.00     0.184 A 
ATOM     11  N   UNL d   1      32.164  16.156 -23.940  0.00  0.00    -0.224 NA
ATOM     12  N   UNL d   1      30.982  15.453 -24.340  0.00  0.00    -0.127 N 
ATOM     13  C   UNL d   1      32.535  16.867 -23.765  0.00  0.00     0.101 A 
ENDBRANCH   2   6
BRANCH   3  14
ATOM     14  C   UNL d   1      33.158  19.871 -22.358  0.00  0.00     0.217 C 
ATOM     15  O   UNL d   1      33.241  19.583 -21.582  0.00  0.00    -0.643 OA
ATOM     16  O   UNL d   1      33.241  20.664 -22.501  0.00  0.00    -0.643 OA
ENDBRANCH   3  14
TORSDOF 2
ENDMDL
MODEL 6
REMARK VINA RESULT:      -1.9      5.360      6.617
REMARK  2 active torsions:
REMARK  status: ('A' for Active; 'I' for Inactive)
REMARK    1  A    between atoms: C_4  and  C_2 
REMARK    2  A    between atoms: C_8  and  C_3 
ROOT
ATOM      1  S   UNL d   1      32.714  21.902 -20.458  0.00  0.00    -0.081 SA
ATOM      2  C   UNL d   1      33.009  21.727 -21.210  0.00  0.00     0.031 A 
ATOM      3  C   UNL d   1      32.761  22.731 -20.346  0.00  0.00     0.094 A 
ATOM      4  C   UNL d   1      33.241  22.447 -21.571  0.00  0.00     0.007 A 
ATOM      5  C   UNL d   1      33.084  23.061 -21.032  0.00  0.00     0.013 A 
ENDROOT
BRANCH   2   6
ATOM      6  C   UNL d   1      33.066  20.984 -21.548  0.00  0.00     0.025 A 
ATOM      7  C   UNL d   1      33.065  20.899 -22.369  0.00  0.00     0.005 A 
ATOM      8  C   UNL d   1      33.122  20.156 -22.707  0.00  0.00     0.038 A 
ATOM      9  C   UNL d   1      33.120  20.072 -23.522  0.00  0.00     0.003 C 
ATOM     10  C   UNL d   1      33.183  19.488 -22.223  0.00  0.00     0.184 A 
ATOM     11  N   UNL d   1      33.185  19.575 -21.397  0.00  0.00    -0.224 NA
ATOM     12  N   UNL d   1      33.241  18.740 -22.560  0.00  0.00    -0.127 N 
ATOM     13  C   UNL d   1      33.126  20.326 -21.072  0.00  0.00     0.101 A 
ENDBRANCH   2   6
BRANCH   3  14
ATOM     14  C   UNL d   1      32.523  23.133 -19.669  0.00  0.00     0.217 C 
ATOM     15  O   UNL d   1      32.966  23.047 -18.969  0.00  0.00    -0.643 OA
ATOM     16  O   UNL d   1      31.868  23.609 -19.671  0.00  0.00    -0.643 OA
ENDBRANCH   3  14
TORSDOF 2
ENDMDL
MODEL 7
REMARK VINA RESULT:      -1.8      6.856      8.098
REMARK  2 active torsions:
REMARK  status: ('A' for Active; 'I' for Inactive)
REMARK    1  A    between atoms: C_4  and  C_2 
REMARK    2  A    between atoms: C_8  and  C_3 
ROOT
ATOM      1  S   UNL d   1      32.748  22.421 -18.561  0.00  0.00    -0.081 SA
ATOM      2  C   UNL d   1      32.989  22.659 -19.314  0.00  0.00     0.031 A 
ATOM      3  C   UNL d   1      32.849  23.069 -18.038  0.00  0.00     0.094 A 
ATOM      4  C   UNL d   1      33.241  23.457 -19.266  0.00  0.00     0.007 A 
ATOM      5  C   UNL d   1      33.151  23.702 -18.476  0.00  0.00     0.013 A 
ENDROOT
BRANCH   2   6
ATOM      6  C   UNL d   1      32.984  22.201 -19.992  0.00  0.00     0.025 A 
ATOM      7  C   UNL d   1      32.739  22.524 -20.711  0.00  0.00     0.005 A 
ATOM      8  C   UNL d   1      32.734  22.067 -21.389  0.00  0.00     0.038 A 
ATOM      9  C   UNL d   1      32.491  22.388 -22.103  0.00  0.00     0.003 C 
ATOM     10  C   UNL d   1      32.977  21.276 -21.353  0.00  0.00     0.184 A 
ATOM     11  N   UNL d   1      33.223  20.952 -20.629  0.00  0.00    -0.224 NA
ATOM     12  N   UNL d   1      32.973  20.814 -22.033  0.00  0.00    -0.127 N 
ATOM     13  C   UNL d   1      33.223  21.423 -19.957  0.00  0.00     0.101 A 
ENDBRANCH   2   6
BRANCH   3  14
ATOM     14  C   UNL d   1      32.674  23.062 -17.235  0.00  0.00     0.217 C 
ATOM     15  O   UNL d   1      33.121  22.578 -16.726  0.00  0.00    -0.643 OA
ATOM     16  O   UNL d   1      32.076  23.517 -16.931  0.00  0.00    -0.643 OA
ENDBRANCH   3  14
TORSDOF 2
ENDMDL
