MODEL 1
REMARK VINA RESULT:      70.8      0.000      0.000
REMARK  6 active torsions:
REMARK  status: ('A' for Active; 'I' for Inactive)
REMARK       I    between atoms: C_2  and  N_1 
REMARK    1  A    between atoms: C_3  and  C_2 
REMARK    2  A    between atoms: C_12  and  C_4 
REMARK       I    between atoms: C_5  and  N_8 
REMARK    3  A    between atoms: C_6  and  C_5 
REMARK       I    between atoms: N_9  and  C_6 
REMARK    4  A    between atoms: N_8  and  C_12 
REMARK    5  A    between atoms: C_19  and  N_9 
REMARK    6  A    between atoms: C_21  and  C_19 
ROOT
ATOM      1  C   UNL d   1      60.841  49.028  51.481  0.00  0.00     0.337 C 
ATOM      2  N   UNL d   1      61.140  48.265  51.507  0.00  0.00    -0.199 NA
ATOM      3  O   UNL d   1      61.009  49.554  52.090  0.00  0.00    -0.260 OA
ENDROOT
BRANCH   2   4
ATOM      4  C   UNL d   1      60.972  47.739  50.897  0.00  0.00     0.146 C 
BRANCH   4   5
ATOM      5  C   UNL d   1      60.837  46.937  51.072  0.00  0.00     0.190 A 
ATOM      6  N   UNL d   1      61.050  46.308  50.587  0.00  0.00    -0.250 N 
ATOM      7  C   UNL d   1      61.426  46.276  49.849  0.00  0.00     0.272 C 
ATOM      8  C   UNL d   1      60.814  45.616  50.974  0.00  0.00     0.112 A 
ATOM      9  O   UNL d   1      61.657  46.977  49.474  0.00  0.00    -0.266 OA
ATOM     10  C   UNL d   1      60.461  45.823  51.686  0.00  0.00     0.144 A 
ATOM     11  O   UNL d   1      60.480  46.651  51.740  0.00  0.00    -0.285 OA
BRANCH   7  12
ATOM     12  C   UNL d   1      61.571  45.553  49.486  0.00  0.00     0.086 A 
ATOM     13  S   UNL d   1      61.068  45.033  49.080  0.00  0.00    -0.082 SA
ATOM     14  C   UNL d   1      61.529  44.380  48.832  0.00  0.00     0.036 A 
ATOM     15  C   UNL d   1      62.302  44.509  49.089  0.00  0.00     0.008 A 
ATOM     16  C   UNL d   1      62.334  45.226  49.490  0.00  0.00     0.012 A 
ENDBRANCH   7  12
ENDBRANCH   4   5
ENDBRANCH   2   4
BRANCH   1  17
ATOM     17  C   UNL d   1      60.371  49.274  50.847  0.00  0.00     0.337 C 
ATOM     18  N   UNL d   1      59.559  49.138  50.847  0.00  0.00    -0.202 NA
ATOM     19  O   UNL d   1      60.719  49.660  50.209  0.00  0.00    -0.260 OA
BRANCH  18  20
ATOM     20  C   UNL d   1      59.096  49.383  50.217  0.00  0.00     0.102 C 
BRANCH  20  21
ATOM     21  C   UNL d   1      58.257  49.344  50.252  0.00  0.00     0.019 A 
ATOM     22  C   UNL d   1      57.853  48.940  49.666  0.00  0.00     0.002 A 
ATOM     23  C   UNL d   1      57.023  48.902  49.701  0.00  0.00     0.000 A 
ATOM     24  C   UNL d   1      56.618  49.261  50.310  0.00  0.00     0.000 A 
ATOM     25  C   UNL d   1      57.044  49.672  50.904  0.00  0.00     0.000 A 
ATOM     26  C   UNL d   1      57.872  49.708  50.865  0.00  0.00     0.002 A 
ENDBRANCH  20  21
ENDBRANCH  18  20
ENDBRANCH   1  17
TORSDOF 6
ENDMDL
MODEL 2
REMARK VINA RESULT:      71.4      0.815      1.431
REMARK  6 active torsions:
REMARK  status: ('A' for Active; 'I' for Inactive)
REMARK       I    between atoms: C_2  and  N_1 
REMARK    1  A    between atoms: C_3  and  C_2 
REMARK    2  A    between atoms: C_12  and  C_4 
REMARK       I    between atoms: C_5  and  N_8 
REMARK    3  A    between atoms: C_6  and  C_5 
REMARK       I    between atoms: N_9  and  C_6 
REMARK    4  A    between atoms: N_8  and  C_12 
REMARK    5  A    between atoms: C_19  and  N_9 
REMARK    6  A    between atoms: C_21  and  C_19 
ROOT
ATOM      1  C   UNL d   1      60.797  49.028  51.243  0.00  0.00     0.337 C 
ATOM      2  N   UNL d   1      61.086  48.269  51.132  0.00  0.00    -0.199 NA
ATOM      3  O   UNL d   1      61.027  49.461  51.902  0.00  0.00    -0.260 OA
ENDROOT
BRANCH   2   4
ATOM      4  C   UNL d   1      60.857  47.835  50.472  0.00  0.00     0.146 C 
BRANCH   4   5
ATOM      5  C   UNL d   1      61.381  47.280  50.142  0.00  0.00     0.190 A 
ATOM      6  N   UNL d   1      61.377  46.474  50.306  0.00  0.00    -0.250 N 
ATOM      7  C   UNL d   1      60.900  46.008  50.800  0.00  0.00     0.272 C 
ATOM      8  C   UNL d   1      61.987  46.135  49.861  0.00  0.00     0.112 A 
ATOM      9  O   UNL d   1      60.294  46.362  51.238  0.00  0.00    -0.266 OA
ATOM     10  C   UNL d   1      62.356  46.730  49.431  0.00  0.00     0.144 A 
ATOM     11  O   UNL d   1      61.971  47.442  49.613  0.00  0.00    -0.285 OA
BRANCH   7  12
ATOM     12  C   UNL d   1      61.026  45.198  50.855  0.00  0.00     0.086 A 
ATOM     13  S   UNL d   1      61.514  44.688  50.419  0.00  0.00    -0.082 SA
ATOM     14  C   UNL d   1      61.412  43.917  50.728  0.00  0.00     0.036 A 
ATOM     15  C   UNL d   1      60.866  43.967  51.346  0.00  0.00     0.008 A 
ATOM     16  C   UNL d   1      60.627  44.749  51.428  0.00  0.00     0.012 A 
ENDBRANCH   7  12
ENDBRANCH   4   5
ENDBRANCH   2   4
BRANCH   1  17
ATOM     17  C   UNL d   1      60.275  49.363  50.696  0.00  0.00     0.337 C 
ATOM     18  N   UNL d   1      59.463  49.358  50.832  0.00  0.00    -0.202 NA
ATOM     19  O   UNL d   1      60.572  49.704  50.008  0.00  0.00    -0.260 OA
BRANCH  18  20
ATOM     20  C   UNL d   1      58.949  49.691  50.287  0.00  0.00     0.102 C 
BRANCH  20  21
ATOM     21  C   UNL d   1      58.118  49.690  50.416  0.00  0.00     0.019 A 
ATOM     22  C   UNL d   1      57.615  49.699  49.771  0.00  0.00     0.002 A 
ATOM     23  C   UNL d   1      56.794  49.698  49.898  0.00  0.00     0.000 A 
ATOM     24  C   UNL d   1      56.493  49.687  50.656  0.00  0.00     0.000 A 
ATOM     25  C   UNL d   1      57.019  49.678  51.309  0.00  0.00     0.000 A 
ATOM     26  C   UNL d   1      57.838  49.679  51.177  0.00  0.00     0.002 A 
ENDBRANCH  20  21
ENDBRANCH  18  20
ENDBRANCH   1  17
TORSDOF 6
ENDMDL
