MODEL 1
REMARK VINA RESULT:       8.1      0.000      0.000
REMARK  5 active torsions:
REMARK  status: ('A' for Active; 'I' for Inactive)
REMARK    1  A    between atoms: C_12  and  C_4 
REMARK    2  A    between atoms: N_10  and  C_6 
REMARK    3  A    between atoms: C_11  and  C_9 
REMARK    4  A    between atoms: C_14  and  N_10 
REMARK    5  A    between atoms: C_15  and  C_14 
ROOT
ATOM      1  C   UNL d   1      57.364   0.262  33.261  0.00  0.00     0.167 A 
ATOM      2  N   UNL d   1      57.605   0.177  32.473  0.00  0.00    -0.195 N 
ATOM      3  N   UNL d   1      58.931   0.430  32.866  0.00  0.00    -0.163 NA
ATOM      4  C   UNL d   1      57.901   0.429  33.838  0.00  0.00     0.055 A 
ATOM      5  N   UNL d   1      56.571   0.177  33.458  0.00  0.00    -0.231 NA
ATOM      6  C   UNL d   1      57.048   0.009  31.903  0.00  0.00     0.167 A 
ATOM      7  C   UNL d   1      58.694   0.514  33.641  0.00  0.00     0.104 A 
ATOM      8  C   UNL d   1      56.251  -0.077  32.099  0.00  0.00     0.054 A 
ATOM      9  C   UNL d   1      56.013   0.007  32.874  0.00  0.00     0.063 A 
ATOM     10  C   UNL d   1      59.246   0.682  34.214  0.00  0.00     0.023 C 
ENDROOT
BRANCH   6  11
ATOM     11  N   UNL d   1      57.297  -0.080  31.091  0.00  0.00    -0.224 NA
BRANCH  11  12
ATOM     12  C   UNL d   1      57.431   0.366  30.390  0.00  0.00     0.120 C 
BRANCH  12  13
ATOM     13  C   UNL d   1      57.967   0.090  29.803  0.00  0.00     0.101 A 
ATOM     14  N   UNL d   1      57.907  -0.702  29.524  0.00  0.00    -0.242 NA
ATOM     15  C   UNL d   1      58.455  -0.980  28.927  0.00  0.00     0.099 A 
ATOM     16  C   UNL d   1      59.047  -0.463  28.624  0.00  0.00     0.021 A 
ATOM     17  C   UNL d   1      59.103   0.345  28.913  0.00  0.00     0.003 A 
ATOM     18  C   UNL d   1      58.562   0.611  29.499  0.00  0.00     0.021 A 
ENDBRANCH  12  13
ENDBRANCH  11  12
ENDBRANCH   6  11
BRANCH   9  19
ATOM     19  C   UNL d   1      55.191  -0.081  33.081  0.00  0.00     0.036 C 
ATOM     20  C   UNL d   1      54.379  -0.161  33.284  0.00  0.00     0.006 C 
ATOM     21  C   UNL d   1      54.885  -0.849  33.287  0.00  0.00     0.006 C 
ATOM     22  C   UNL d   1      54.688   0.603  33.077  0.00  0.00     0.006 C 
ENDBRANCH   9  19
BRANCH   4  23
ATOM     23  C   UNL d   1      57.662   0.513  34.617  0.00  0.00     0.004 A 
ATOM     24  C   UNL d   1      56.864   0.530  34.792  0.00  0.00     0.000 A 
ATOM     25  C   UNL d   1      56.622   0.615  35.580  0.00  0.00     0.000 A 
ATOM     26  C   UNL d   1      57.186   0.682  36.168  0.00  0.00     0.000 A 
ATOM     27  C   UNL d   1      57.983   0.664  35.978  0.00  0.00     0.000 A 
ATOM     28  C   UNL d   1      58.221   0.580  35.203  0.00  0.00     0.000 A 
ENDBRANCH   4  23
TORSDOF 5
ENDMDL
