MODEL 1
REMARK VINA RESULT:      -2.8      0.000      0.000
REMARK  1 active torsions:
REMARK  status: ('A' for Active; 'I' for Inactive)
REMARK    1  A    between atoms: C_5  and  C_1 
ROOT
ATOM      1  C   UNL d   1      32.163  22.415 -21.051  0.00  0.00     0.169 A 
ATOM      2  N   UNL d   1      31.656  21.861 -20.707  0.00  0.00    -0.142 NA
ATOM      3  C   UNL d   1      32.767  22.004 -21.439  0.00  0.00     0.048 A 
ATOM      4  N   UNL d   1      31.954  21.115 -20.887  0.00  0.00    -0.148 NA
ATOM      5  C   UNL d   1      32.639  21.215 -21.339  0.00  0.00     0.105 A 
ATOM      6  C   UNL d   1      33.114  20.609 -21.639  0.00  0.00     0.023 C 
ENDROOT
BRANCH   1   7
ATOM      7  C   UNL d   1      32.077  23.232 -21.011  0.00  0.00     0.231 C 
ATOM      8  O   UNL d   1      32.601  23.683 -20.564  0.00  0.00    -0.643 OA
ATOM      9  O   UNL d   1      31.463  23.600 -21.421  0.00  0.00    -0.643 OA
ENDBRANCH   1   7
TORSDOF 1
ENDMDL
MODEL 2
REMARK VINA RESULT:      -2.6      1.725      2.361
REMARK  1 active torsions:
REMARK  status: ('A' for Active; 'I' for Inactive)
REMARK    1  A    between atoms: C_5  and  C_1 
ROOT
ATOM      1  C   UNL d   1      32.558  21.415 -21.249  0.00  0.00     0.169 A 
ATOM      2  N   UNL d   1      31.832  21.600 -20.902  0.00  0.00    -0.142 NA
ATOM      3  C   UNL d   1      32.904  22.120 -21.512  0.00  0.00     0.048 A 
ATOM      4  N   UNL d   1      31.739  22.416 -20.955  0.00  0.00    -0.148 NA
ATOM      5  C   UNL d   1      32.405  22.726 -21.333  0.00  0.00     0.105 A 
ATOM      6  C   UNL d   1      32.540  23.524 -21.499  0.00  0.00     0.023 C 
ENDROOT
BRANCH   1   7
ATOM      7  C   UNL d   1      32.877  20.660 -21.318  0.00  0.00     0.231 C 
ATOM      8  O   UNL d   1      32.834  20.255 -22.034  0.00  0.00    -0.643 OA
ATOM      9  O   UNL d   1      33.241  20.308 -20.668  0.00  0.00    -0.643 OA
ENDBRANCH   1   7
TORSDOF 1
ENDMDL
MODEL 3
REMARK VINA RESULT:      -2.4      1.577      2.079
REMARK  1 active torsions:
REMARK  status: ('A' for Active; 'I' for Inactive)
REMARK    1  A    between atoms: C_5  and  C_1 
ROOT
ATOM      1  C   UNL d   1      32.223  22.300 -21.098  0.00  0.00     0.169 A 
ATOM      2  N   UNL d   1      31.754  22.928 -20.836  0.00  0.00    -0.142 NA
ATOM      3  C   UNL d   1      32.574  22.522 -21.814  0.00  0.00     0.048 A 
ATOM      4  N   UNL d   1      31.822  23.529 -21.394  0.00  0.00    -0.148 NA
ATOM      5  C   UNL d   1      32.329  23.269 -21.992  0.00  0.00     0.105 A 
ATOM      6  C   UNL d   1      32.549  23.699 -22.662  0.00  0.00     0.023 C 
ENDROOT
BRANCH   1   7
ATOM      7  C   UNL d   1      32.321  21.582 -20.709  0.00  0.00     0.231 C 
ATOM      8  O   UNL d   1      33.054  21.375 -20.397  0.00  0.00    -0.643 OA
ATOM      9  O   UNL d   1      31.682  21.067 -20.633  0.00  0.00    -0.643 OA
ENDBRANCH   1   7
TORSDOF 1
ENDMDL
MODEL 4
REMARK VINA RESULT:      -2.2      0.936      1.266
REMARK  1 active torsions:
REMARK  status: ('A' for Active; 'I' for Inactive)
REMARK    1  A    between atoms: C_5  and  C_1 
ROOT
ATOM      1  C   UNL d   1      32.608  21.592 -20.856  0.00  0.00     0.169 A 
ATOM      2  N   UNL d   1      32.973  21.107 -20.296  0.00  0.00    -0.142 NA
ATOM      3  C   UNL d   1      32.655  21.217 -21.592  0.00  0.00     0.048 A 
ATOM      4  N   UNL d   1      33.241  20.438 -20.694  0.00  0.00    -0.148 NA
ATOM      5  C   UNL d   1      33.040  20.516 -21.492  0.00  0.00     0.105 A 
ATOM      6  C   UNL d   1      33.204  19.969 -22.088  0.00  0.00     0.023 C 
ENDROOT
BRANCH   1   7
ATOM      7  C   UNL d   1      32.260  22.322 -20.702  0.00  0.00     0.231 C 
ATOM      8  O   UNL d   1      31.750  22.662 -21.251  0.00  0.00    -0.643 OA
ATOM      9  O   UNL d   1      32.424  22.713 -19.995  0.00  0.00    -0.643 OA
ENDBRANCH   1   7
TORSDOF 1
ENDMDL
MODEL 5
REMARK VINA RESULT:      -2.1      7.060      7.450
REMARK  1 active torsions:
REMARK  status: ('A' for Active; 'I' for Inactive)
REMARK    1  A    between atoms: C_5  and  C_1 
ROOT
ATOM      1  C   UNL d   1      29.083  15.907 -23.421  0.00  0.00     0.169 A 
ATOM      2  N   UNL d   1      29.424  15.460 -22.817  0.00  0.00    -0.142 NA
ATOM      3  C   UNL d   1      29.688  16.170 -23.920  0.00  0.00     0.048 A 
ATOM      4  N   UNL d   1      30.236  15.453 -22.950  0.00  0.00    -0.148 NA
ATOM      5  C   UNL d   1      30.388  15.893 -23.632  0.00  0.00     0.105 A 
ATOM      6  C   UNL d   1      31.132  16.029 -23.965  0.00  0.00     0.023 C 
ENDROOT
BRANCH   1   7
ATOM      7  C   UNL d   1      28.279  16.060 -23.508  0.00  0.00     0.231 C 
ATOM      8  O   UNL d   1      27.983  16.815 -23.366  0.00  0.00    -0.643 OA
ATOM      9  O   UNL d   1      27.769  15.455 -23.738  0.00  0.00    -0.643 OA
ENDBRANCH   1   7
TORSDOF 1
ENDMDL
MODEL 6
REMARK VINA RESULT:      -2.0      1.921      2.471
REMARK  1 active torsions:
REMARK  status: ('A' for Active; 'I' for Inactive)
REMARK    1  A    between atoms: C_5  and  C_1 
ROOT
ATOM      1  C   UNL d   1      32.417  22.938 -20.222  0.00  0.00     0.169 A 
ATOM      2  N   UNL d   1      33.013  23.507 -20.284  0.00  0.00    -0.142 NA
ATOM      3  C   UNL d   1      32.285  22.790 -19.418  0.00  0.00     0.048 A 
ATOM      4  N   UNL d   1      33.241  23.702 -19.518  0.00  0.00    -0.148 NA
ATOM      5  C   UNL d   1      32.786  23.255 -18.992  0.00  0.00     0.105 A 
ATOM      6  C   UNL d   1      32.835  23.279 -18.168  0.00  0.00     0.023 C 
ENDROOT
BRANCH   1   7
ATOM      7  C   UNL d   1      32.027  22.584 -20.853  0.00  0.00     0.231 C 
ATOM      8  O   UNL d   1      31.883  21.773 -20.850  0.00  0.00    -0.643 OA
ATOM      9  O   UNL d   1      31.778  23.043 -21.491  0.00  0.00    -0.643 OA
ENDBRANCH   1   7
TORSDOF 1
ENDMDL
MODEL 7
REMARK VINA RESULT:      -2.0      6.785      7.272
REMARK  1 active torsions:
REMARK  status: ('A' for Active; 'I' for Inactive)
REMARK    1  A    between atoms: C_5  and  C_1 
ROOT
ATOM      1  C   UNL d   1      30.300  15.911 -23.426  0.00  0.00     0.169 A 
ATOM      2  N   UNL d   1      30.056  15.453 -22.784  0.00  0.00    -0.142 NA
ATOM      3  C   UNL d   1      29.628  16.241 -23.778  0.00  0.00     0.048 A 
ATOM      4  N   UNL d   1      29.235  15.506 -22.747  0.00  0.00    -0.148 NA
ATOM      5  C   UNL d   1      28.982  15.994 -23.364  0.00  0.00     0.105 A 
ATOM      6  C   UNL d   1      28.198  16.196 -23.531  0.00  0.00     0.023 C 
ENDROOT
BRANCH   1   7
ATOM      7  C   UNL d   1      31.079  16.017 -23.670  0.00  0.00     0.231 C 
ATOM      8  O   UNL d   1      31.445  15.455 -24.146  0.00  0.00    -0.643 OA
ATOM      9  O   UNL d   1      31.494  16.690 -23.435  0.00  0.00    -0.643 OA
ENDBRANCH   1   7
TORSDOF 1
ENDMDL
MODEL 8
REMARK VINA RESULT:      -2.0      6.593      7.107
REMARK  1 active torsions:
REMARK  status: ('A' for Active; 'I' for Inactive)
REMARK    1  A    between atoms: C_5  and  C_1 
ROOT
ATOM      1  C   UNL d   1      29.001  16.824 -24.186  0.00  0.00     0.169 A 
ATOM      2  N   UNL d   1      28.882  17.458 -24.702  0.00  0.00    -0.142 NA
ATOM      3  C   UNL d   1      29.816  16.697 -24.117  0.00  0.00     0.048 A 
ATOM      4  N   UNL d   1      29.626  17.715 -24.944  0.00  0.00    -0.148 NA
ATOM      5  C   UNL d   1      30.194  17.239 -24.578  0.00  0.00     0.105 A 
ATOM      6  C   UNL d   1      31.012  17.306 -24.668  0.00  0.00     0.023 C 
ENDROOT
BRANCH   1   7
ATOM      7  C   UNL d   1      28.408  16.396 -23.809  0.00  0.00     0.231 C 
ATOM      8  O   UNL d   1      28.284  15.604 -23.998  0.00  0.00    -0.643 OA
ATOM      9  O   UNL d   1      27.937  16.762 -23.241  0.00  0.00    -0.643 OA
ENDBRANCH   1   7
TORSDOF 1
ENDMDL
MODEL 9
REMARK VINA RESULT:      -1.8      1.616      1.980
REMARK  1 active torsions:
REMARK  status: ('A' for Active; 'I' for Inactive)
REMARK    1  A    between atoms: C_5  and  C_1 
ROOT
ATOM      1  C   UNL d   1      32.563  22.917 -21.604  0.00  0.00     0.169 A 
ATOM      2  N   UNL d   1      31.795  22.768 -21.343  0.00  0.00    -0.142 NA
ATOM      3  C   UNL d   1      33.043  23.035 -20.941  0.00  0.00     0.048 A 
ATOM      4  N   UNL d   1      31.810  22.796 -20.520  0.00  0.00    -0.148 NA
ATOM      5  C   UNL d   1      32.584  22.961 -20.283  0.00  0.00     0.105 A 
ATOM      6  C   UNL d   1      32.845  23.038 -19.503  0.00  0.00     0.023 C 
ENDROOT
BRANCH   1   7
ATOM      7  C   UNL d   1      32.805  22.943 -22.390  0.00  0.00     0.231 C 
ATOM      8  O   UNL d   1      32.612  23.589 -22.863  0.00  0.00    -0.643 OA
ATOM      9  O   UNL d   1      33.241  22.318 -22.706  0.00  0.00    -0.643 OA
ENDBRANCH   1   7
TORSDOF 1
ENDMDL
