MODEL 1
REMARK VINA RESULT:      44.0      0.000      0.000
REMARK  4 active torsions:
REMARK  status: ('A' for Active; 'I' for Inactive)
REMARK    1  A    between atoms: C_11  and  C_9 
REMARK       I    between atoms: N_17  and  C_11 
REMARK    2  A    between atoms: C_19  and  N_17 
REMARK    3  A    between atoms: C_20  and  C_19 
REMARK    4  A    between atoms: C_21  and  C_20 
ROOT
ATOM      1  C   UNL d   1     -54.771-100.473 -42.658  0.00  0.00     0.081 A 
ATOM      2  C   UNL d   1     -54.802-101.131 -43.154  0.00  0.00     0.117 A 
ATOM      3  N   UNL d   1     -54.832-101.023 -43.974  0.00  0.00    -0.221 NA
ATOM      4  N   UNL d   1     -54.799 -99.611 -43.793  0.00  0.00    -0.258 N 
ATOM      5  C   UNL d   1     -54.830-100.264 -44.295  0.00  0.00     0.151 A 
ATOM      6  C   UNL d   1     -54.769 -99.705 -42.971  0.00  0.00     0.268 A 
ATOM      7  C   UNL d   1     -54.745-100.745 -41.877  0.00  0.00     0.018 A 
ATOM      8  S   UNL d   1     -54.796-101.800 -42.682  0.00  0.00    -0.063 SA
ATOM      9  C   UNL d   1     -54.761-101.565 -41.895  0.00  0.00     0.089 A 
ATOM     10  C   UNL d   1     -54.860-100.163 -45.100  0.00  0.00     0.035 A 
ATOM     11  C   UNL d   1     -54.797 -98.846 -44.108  0.00  0.00     0.084 A 
ATOM     12  O   UNL d   1     -54.738 -99.055 -42.476  0.00  0.00    -0.267 OA
ATOM     13  C   UNL d   1     -54.827 -98.756 -44.926  0.00  0.00     0.019 A 
ATOM     14  C   UNL d   1     -54.859 -99.413 -45.422  0.00  0.00     0.004 A 
ATOM     15  C   UNL d   1     -54.891-100.824 -45.593  0.00  0.00     0.003 C 
ENDROOT
BRANCH   9  16
ATOM     16  C   UNL d   1     -54.744-102.062 -41.237  0.00  0.00     0.285 C 
ATOM     17  O   UNL d   1     -54.744-102.879 -41.336  0.00  0.00    -0.265 OA
ATOM     18  N   UNL d   1     -54.728-101.741 -40.478  0.00  0.00    -0.206 NA
BRANCH  18  19
ATOM     19  C   UNL d   1     -54.712-102.238 -39.819  0.00  0.00     0.102 C 
BRANCH  19  20
ATOM     20  C   UNL d   1     -54.971-101.973 -39.097  0.00  0.00     0.021 C 
BRANCH  20  21
ATOM     21  C   UNL d   1     -54.804-102.404 -38.404  0.00  0.00     0.002 C 
ATOM     22  C   UNL d   1     -55.376-102.875 -38.057  0.00  0.00     0.000 C 
ENDBRANCH  20  21
ENDBRANCH  19  20
ENDBRANCH  18  19
ENDBRANCH   9  16
TORSDOF 4
ENDMDL
