MODEL 1
REMARK VINA RESULT:      60.2      0.000      0.000
REMARK  5 active torsions:
REMARK  status: ('A' for Active; 'I' for Inactive)
REMARK    1  A    between atoms: C_4  and  S_1 
REMARK    2  A    between atoms: N_5  and  S_1 
REMARK    3  A    between atoms: C_2  and  C_8 
REMARK       I    between atoms: N_3  and  C_2 
REMARK    4  A    between atoms: C_16  and  N_5 
REMARK    5  A    between atoms: C_17  and  N_5 
ROOT
ATOM      1  C   UNL d   1     -56.764 -99.747 -44.478  0.00  0.00     0.104 A 
ATOM      2  C   UNL d   1     -58.240 -99.292 -45.062  0.00  0.00     0.057 A 
ATOM      3  C   UNL d   1     -57.456-100.066 -44.152  0.00  0.00     0.013 A 
ATOM      4  C   UNL d   1     -56.810 -99.203 -45.094  0.00  0.00     0.013 A 
ATOM      5  C   UNL d   1     -58.191 -99.839 -44.444  0.00  0.00     0.005 A 
ATOM      6  C   UNL d   1     -57.548 -98.974 -45.388  0.00  0.00     0.005 A 
ENDROOT
BRANCH   1   7
ATOM      7  S   UNL d   1     -56.023 -99.979 -44.181  0.00  0.00     0.271 S 
ATOM      8  O   UNL d   1     -55.781 -99.183 -43.862  0.00  0.00    -0.200 OA
ATOM      9  O   UNL d   1     -56.212-100.850 -44.495  0.00  0.00    -0.200 OA
BRANCH   7  10
ATOM     10  N   UNL d   1     -55.291-100.208 -43.888  0.00  0.00    -0.229 N 
BRANCH  10  11
ATOM     11  C   UNL d   1     -54.711 -99.635 -43.744  0.00  0.00     0.092 C 
ATOM     12  C   UNL d   1     -54.779 -99.136 -43.091  0.00  0.00     0.021 C 
ENDBRANCH  10  11
BRANCH  10  13
ATOM     13  C   UNL d   1     -55.128-101.002 -43.736  0.00  0.00     0.092 C 
ATOM     14  C   UNL d   1     -54.939-101.505 -44.363  0.00  0.00     0.021 C 
ENDBRANCH  10  13
ENDBRANCH   7  10
ENDBRANCH   1   7
BRANCH   2  15
ATOM     15  C   UNL d   1     -58.983 -99.068 -45.351  0.00  0.00     0.265 C 
ATOM     16  N   UNL d   1     -59.103 -99.023 -46.164  0.00  0.00    -0.272 N 
ATOM     17  C   UNL d   1     -58.488 -99.200 -46.684  0.00  0.00     0.083 A 
ATOM     18  C   UNL d   1     -59.840 -98.800 -46.458  0.00  0.00     0.083 A 
ATOM     19  C   UNL d   1     -58.609 -99.155 -47.497  0.00  0.00     0.019 A 
ATOM     20  C   UNL d   1     -59.344 -98.933 -47.790  0.00  0.00     0.003 A 
ATOM     21  C   UNL d   1     -59.960 -98.755 -47.271  0.00  0.00     0.019 A 
ATOM     22  O   UNL d   1     -59.597 -98.892 -44.828  0.00  0.00    -0.267 OA
ENDBRANCH   2  15
TORSDOF 5
ENDMDL
