MODEL 1
REMARK VINA RESULT:      -7.1      0.000      0.000
REMARK  5 active torsions:
REMARK  status: ('A' for Active; 'I' for Inactive)
REMARK       I    between atoms: C_3  and  N_1 
REMARK    1  A    between atoms: C_8  and  C_3 
REMARK    2  A    between atoms: S_4  and  N_9 
REMARK    3  A    between atoms: C_16  and  C_5 
REMARK    4  A    between atoms: C_10  and  C_6 
REMARK    5  A    between atoms: N_9  and  C_21 
ROOT
ATOM      1  N   UNL d   1     -49.018  13.493  23.067  0.00  0.00    -0.193 N 
ATOM      2  N   UNL d   1     -48.263  13.165  22.971  0.00  0.00    -0.163 NA
ATOM      3  C   UNL d   1     -49.694  13.081  23.297  0.00  0.00     0.303 C 
ATOM      4  C   UNL d   1     -48.964  14.302  22.890  0.00  0.00     0.088 A 
ATOM      5  C   UNL d   1     -47.749  13.765  22.737  0.00  0.00     0.103 A 
ATOM      6  C   UNL d   1     -48.185  14.464  22.688  0.00  0.00     0.040 A 
ATOM      7  O   UNL d   1     -50.411  13.491  23.368  0.00  0.00    -0.263 OA
ENDROOT
BRANCH   5   8
ATOM      8  C   UNL d   1     -46.947  13.682  22.581  0.00  0.00     0.019 A 
ATOM      9  C   UNL d   1     -46.682  13.063  22.094  0.00  0.00     0.003 A 
ATOM     10  C   UNL d   1     -45.883  12.981  21.940  0.00  0.00     0.020 A 
ATOM     11  C   UNL d   1     -45.337  13.510  22.263  0.00  0.00     0.093 A 
ATOM     12  C   UNL d   1     -45.604  14.126  22.748  0.00  0.00     0.020 A 
ATOM     13  C   UNL d   1     -46.412  14.210  22.905  0.00  0.00     0.003 A 
BRANCH  11  14
ATOM     14  N   UNL d   1     -44.531  13.433  22.112  0.00  0.00    -0.162 NA
BRANCH  14  15
ATOM     15  S   UNL d   1     -44.215  12.722  21.861  0.00  0.00     0.266 S 
ATOM     16  O   UNL d   1     -43.815  12.208  21.351  0.00  0.00    -0.203 OA
ATOM     17  O   UNL d   1     -43.996  13.188  21.213  0.00  0.00    -0.203 OA
ATOM     18  C   UNL d   1     -44.421  12.237  22.492  0.00  0.00     0.165 C 
ENDBRANCH  14  15
ENDBRANCH  11  14
ENDBRANCH   5   8
BRANCH   4  19
ATOM     19  C   UNL d   1     -49.583  14.835  22.915  0.00  0.00     0.018 A 
ATOM     20  C   UNL d   1     -50.038  14.976  22.213  0.00  0.00     0.002 A 
ATOM     21  C   UNL d   1     -50.639  15.519  22.307  0.00  0.00     0.000 A 
ATOM     22  C   UNL d   1     -50.796  15.902  23.023  0.00  0.00     0.000 A 
ATOM     23  C   UNL d   1     -50.370  15.768  23.673  0.00  0.00     0.000 A 
ATOM     24  C   UNL d   1     -49.744  15.224  23.638  0.00  0.00     0.002 A 
ENDBRANCH   4  19
BRANCH   3  25
ATOM     25  C   UNL d   1     -49.656  12.285  23.452  0.00  0.00     0.158 A 
ATOM     26  O   UNL d   1     -48.951  11.833  23.538  0.00  0.00    -0.300 OA
ATOM     27  C   UNL d   1     -49.176  11.053  23.690  0.00  0.00     0.123 A 
ATOM     28  C   UNL d   1     -49.996  11.018  23.698  0.00  0.00     0.029 A 
ATOM     29  C   UNL d   1     -50.277  11.784  23.550  0.00  0.00     0.032 A 
ENDBRANCH   3  25
TORSDOF 5
ENDMDL
MODEL 2
REMARK VINA RESULT:      -5.4      4.396      8.140
REMARK  5 active torsions:
REMARK  status: ('A' for Active; 'I' for Inactive)
REMARK       I    between atoms: C_3  and  N_1 
REMARK    1  A    between atoms: C_8  and  C_3 
REMARK    2  A    between atoms: S_4  and  N_9 
REMARK    3  A    between atoms: C_16  and  C_5 
REMARK    4  A    between atoms: C_10  and  C_6 
REMARK    5  A    between atoms: N_9  and  C_21 
ROOT
ATOM      1  N   UNL d   1     -40.502  14.178  20.846  0.00  0.00    -0.193 N 
ATOM      2  N   UNL d   1     -41.048  13.781  21.324  0.00  0.00    -0.163 NA
ATOM      3  C   UNL d   1     -39.724  14.360  21.053  0.00  0.00     0.303 C 
ATOM      4  C   UNL d   1     -40.879  14.356  20.129  0.00  0.00     0.088 A 
ATOM      5  C   UNL d   1     -41.756  13.715  20.908  0.00  0.00     0.103 A 
ATOM      6  C   UNL d   1     -41.648  14.071  20.172  0.00  0.00     0.040 A 
ATOM      7  O   UNL d   1     -39.245  14.761  20.509  0.00  0.00    -0.263 OA
ENDROOT
BRANCH   5   8
ATOM      8  C   UNL d   1     -42.445  13.358  21.178  0.00  0.00     0.019 A 
ATOM      9  C   UNL d   1     -43.162  13.778  21.162  0.00  0.00     0.003 A 
ATOM     10  C   UNL d   1     -43.848  13.422  21.431  0.00  0.00     0.020 A 
ATOM     11  C   UNL d   1     -43.833  12.648  21.719  0.00  0.00     0.093 A 
ATOM     12  C   UNL d   1     -43.116  12.232  21.734  0.00  0.00     0.020 A 
ATOM     13  C   UNL d   1     -42.422  12.591  21.462  0.00  0.00     0.003 A 
BRANCH  11  14
ATOM     14  N   UNL d   1     -44.519  12.283  21.992  0.00  0.00    -0.162 NA
BRANCH  14  15
ATOM     15  S   UNL d   1     -45.044  12.682  22.476  0.00  0.00     0.266 S 
ATOM     16  O   UNL d   1     -45.442  12.857  23.179  0.00  0.00    -0.203 OA
ATOM     17  O   UNL d   1     -44.749  12.143  23.032  0.00  0.00    -0.203 OA
ATOM     18  C   UNL d   1     -45.352  13.226  21.944  0.00  0.00     0.165 C 
ENDBRANCH  14  15
ENDBRANCH  11  14
ENDBRANCH   5   8
BRANCH   4  19
ATOM     19  C   UNL d   1     -40.539  14.748  19.497  0.00  0.00     0.018 A 
ATOM     20  C   UNL d   1     -40.540  15.596  19.484  0.00  0.00     0.002 A 
ATOM     21  C   UNL d   1     -40.185  15.922  18.827  0.00  0.00     0.000 A 
ATOM     22  C   UNL d   1     -39.850  15.468  18.221  0.00  0.00     0.000 A 
ATOM     23  C   UNL d   1     -39.851  14.679  18.237  0.00  0.00     0.000 A 
ATOM     24  C   UNL d   1     -40.199  14.292  18.883  0.00  0.00     0.002 A 
ENDBRANCH   4  19
BRANCH   3  25
ATOM     25  C   UNL d   1     -39.434  14.146  21.781  0.00  0.00     0.158 A 
ATOM     26  O   UNL d   1     -39.518  14.586  22.493  0.00  0.00    -0.300 OA
ATOM     27  C   UNL d   1     -39.139  14.161  23.091  0.00  0.00     0.123 A 
ATOM     28  C   UNL d   1     -38.828  13.476  22.763  0.00  0.00     0.029 A 
ATOM     29  C   UNL d   1     -39.018  13.481  21.956  0.00  0.00     0.032 A 
ENDBRANCH   3  25
TORSDOF 5
ENDMDL
MODEL 3
REMARK VINA RESULT:      -5.1      6.671      9.304
REMARK  5 active torsions:
REMARK  status: ('A' for Active; 'I' for Inactive)
REMARK       I    between atoms: C_3  and  N_1 
REMARK    1  A    between atoms: C_8  and  C_3 
REMARK    2  A    between atoms: S_4  and  N_9 
REMARK    3  A    between atoms: C_16  and  C_5 
REMARK    4  A    between atoms: C_10  and  C_6 
REMARK    5  A    between atoms: N_9  and  C_21 
ROOT
ATOM      1  N   UNL d   1     -39.924  14.224  20.852  0.00  0.00    -0.193 N 
ATOM      2  N   UNL d   1     -39.304  14.384  20.327  0.00  0.00    -0.163 NA
ATOM      3  C   UNL d   1     -39.844  14.080  21.661  0.00  0.00     0.303 C 
ATOM      4  C   UNL d   1     -40.631  14.237  20.417  0.00  0.00     0.088 A 
ATOM      5  C   UNL d   1     -39.624  14.495  19.576  0.00  0.00     0.103 A 
ATOM      6  C   UNL d   1     -40.442  14.403  19.636  0.00  0.00     0.040 A 
ATOM      7  O   UNL d   1     -40.521  13.928  22.112  0.00  0.00    -0.263 OA
ENDROOT
BRANCH   5   8
ATOM      8  C   UNL d   1     -39.204  14.665  18.891  0.00  0.00     0.019 A 
ATOM      9  C   UNL d   1     -38.823  14.054  18.475  0.00  0.00     0.003 A 
ATOM     10  C   UNL d   1     -38.406  14.225  17.794  0.00  0.00     0.020 A 
ATOM     11  C   UNL d   1     -38.359  15.001  17.514  0.00  0.00     0.093 A 
ATOM     12  C   UNL d   1     -38.739  15.608  17.930  0.00  0.00     0.020 A 
ATOM     13  C   UNL d   1     -39.162  15.436  18.621  0.00  0.00     0.003 A 
BRANCH  11  14
ATOM     14  N   UNL d   1     -37.940  15.180  16.829  0.00  0.00    -0.162 NA
BRANCH  14  15
ATOM     15  S   UNL d   1     -38.282  15.095  16.091  0.00  0.00     0.266 S 
ATOM     16  O   UNL d   1     -38.611  15.345  15.375  0.00  0.00    -0.203 OA
ATOM     17  O   UNL d   1     -38.260  15.922  16.121  0.00  0.00    -0.203 OA
ATOM     18  C   UNL d   1     -38.315  14.275  16.037  0.00  0.00     0.165 C 
ENDBRANCH  14  15
ENDBRANCH  11  14
ENDBRANCH   5   8
BRANCH   4  19
ATOM     19  C   UNL d   1     -41.378  14.107  20.722  0.00  0.00     0.018 A 
ATOM     20  C   UNL d   1     -41.817  14.759  21.041  0.00  0.00     0.002 A 
ATOM     21  C   UNL d   1     -42.553  14.560  21.327  0.00  0.00     0.000 A 
ATOM     22  C   UNL d   1     -42.852  13.789  21.311  0.00  0.00     0.000 A 
ATOM     23  C   UNL d   1     -42.441  13.185  21.013  0.00  0.00     0.000 A 
ATOM     24  C   UNL d   1     -41.683  13.328  20.707  0.00  0.00     0.002 A 
ENDBRANCH   4  19
BRANCH   3  25
ATOM     25  C   UNL d   1     -39.109  14.086  22.006  0.00  0.00     0.158 A 
ATOM     26  O   UNL d   1     -38.676  14.772  22.230  0.00  0.00    -0.300 OA
ATOM     27  C   UNL d   1     -37.962  14.516  22.558  0.00  0.00     0.123 A 
ATOM     28  C   UNL d   1     -37.950  13.696  22.539  0.00  0.00     0.029 A 
ATOM     29  C   UNL d   1     -38.662  13.446  22.197  0.00  0.00     0.032 A 
ENDBRANCH   3  25
TORSDOF 5
ENDMDL
MODEL 4
REMARK VINA RESULT:      -4.5      1.936      5.500
REMARK  5 active torsions:
REMARK  status: ('A' for Active; 'I' for Inactive)
REMARK       I    between atoms: C_3  and  N_1 
REMARK    1  A    between atoms: C_8  and  C_3 
REMARK    2  A    between atoms: S_4  and  N_9 
REMARK    3  A    between atoms: C_16  and  C_5 
REMARK    4  A    between atoms: C_10  and  C_6 
REMARK    5  A    between atoms: N_9  and  C_21 
ROOT
ATOM      1  N   UNL d   1     -44.333  12.279  22.318  0.00  0.00    -0.193 N 
ATOM      2  N   UNL d   1     -45.113  12.328  22.589  0.00  0.00    -0.163 NA
ATOM      3  C   UNL d   1     -43.803  11.670  22.487  0.00  0.00     0.303 C 
ATOM      4  C   UNL d   1     -44.187  12.949  21.850  0.00  0.00     0.088 A 
ATOM      5  C   UNL d   1     -45.447  13.021  22.292  0.00  0.00     0.103 A 
ATOM      6  C   UNL d   1     -44.873  13.400  21.837  0.00  0.00     0.040 A 
ATOM      7  O   UNL d   1     -43.037  11.702  22.172  0.00  0.00    -0.263 OA
ENDROOT
BRANCH   5   8
ATOM      8  C   UNL d   1     -46.213  13.285  22.426  0.00  0.00     0.019 A 
ATOM      9  C   UNL d   1     -46.340  13.998  22.834  0.00  0.00     0.003 A 
ATOM     10  C   UNL d   1     -47.104  14.260  22.966  0.00  0.00     0.020 A 
ATOM     11  C   UNL d   1     -47.750  13.821  22.696  0.00  0.00     0.093 A 
ATOM     12  C   UNL d   1     -47.620  13.111  22.290  0.00  0.00     0.020 A 
ATOM     13  C   UNL d   1     -46.848  12.845  22.155  0.00  0.00     0.003 A 
BRANCH  11  14
ATOM     14  N   UNL d   1     -48.521  14.079  22.826  0.00  0.00    -0.162 NA
BRANCH  14  15
ATOM     15  S   UNL d   1     -48.913  14.533  22.269  0.00  0.00     0.266 S 
ATOM     16  O   UNL d   1     -49.390  14.678  21.610  0.00  0.00    -0.203 OA
ATOM     17  O   UNL d   1     -49.137  13.784  21.996  0.00  0.00    -0.203 OA
ATOM     18  C   UNL d   1     -48.704  15.287  22.520  0.00  0.00     0.165 C 
ENDBRANCH  14  15
ENDBRANCH  11  14
ENDBRANCH   5   8
BRANCH   4  19
ATOM     19  C   UNL d   1     -43.483  13.120  21.473  0.00  0.00     0.018 A 
ATOM     20  C   UNL d   1     -42.896  13.581  21.877  0.00  0.00     0.002 A 
ATOM     21  C   UNL d   1     -42.219  13.715  21.444  0.00  0.00     0.000 A 
ATOM     22  C   UNL d   1     -42.108  13.428  20.676  0.00  0.00     0.000 A 
ATOM     23  C   UNL d   1     -42.655  13.000  20.304  0.00  0.00     0.000 A 
ATOM     24  C   UNL d   1     -43.367  12.831  20.696  0.00  0.00     0.002 A 
ENDBRANCH   4  19
BRANCH   3  25
ATOM     25  C   UNL d   1     -44.031  11.048  22.958  0.00  0.00     0.158 A 
ATOM     26  O   UNL d   1     -44.809  10.907  23.245  0.00  0.00    -0.300 OA
ATOM     27  C   UNL d   1     -44.783  10.217  23.698  0.00  0.00     0.123 A 
ATOM     28  C   UNL d   1     -44.013   9.936  23.694  0.00  0.00     0.029 A 
ATOM     29  C   UNL d   1     -43.561  10.458  23.234  0.00  0.00     0.032 A 
ENDBRANCH   3  25
TORSDOF 5
ENDMDL
MODEL 5
REMARK VINA RESULT:      -4.3      2.730      4.337
REMARK  5 active torsions:
REMARK  status: ('A' for Active; 'I' for Inactive)
REMARK       I    between atoms: C_3  and  N_1 
REMARK    1  A    between atoms: C_8  and  C_3 
REMARK    2  A    between atoms: S_4  and  N_9 
REMARK    3  A    between atoms: C_16  and  C_5 
REMARK    4  A    between atoms: C_10  and  C_6 
REMARK    5  A    between atoms: N_9  and  C_21 
ROOT
ATOM      1  N   UNL d   1     -44.886  12.274  22.544  0.00  0.00    -0.193 N 
ATOM      2  N   UNL d   1     -44.102  12.251  22.278  0.00  0.00    -0.163 NA
ATOM      3  C   UNL d   1     -45.245  11.713  23.030  0.00  0.00     0.303 C 
ATOM      4  C   UNL d   1     -45.236  12.960  22.234  0.00  0.00     0.088 A 
ATOM      5  C   UNL d   1     -43.969  12.915  21.809  0.00  0.00     0.103 A 
ATOM      6  C   UNL d   1     -44.670  13.349  21.784  0.00  0.00     0.040 A 
ATOM      7  O   UNL d   1     -46.038  11.816  23.248  0.00  0.00    -0.263 OA
ENDROOT
BRANCH   5   8
ATOM      8  C   UNL d   1     -43.264  13.110  21.433  0.00  0.00     0.019 A 
ATOM      9  C   UNL d   1     -42.713  13.600  21.815  0.00  0.00     0.003 A 
ATOM     10  C   UNL d   1     -42.012  13.792  21.440  0.00  0.00     0.020 A 
ATOM     11  C   UNL d   1     -41.848  13.503  20.684  0.00  0.00     0.093 A 
ATOM     12  C   UNL d   1     -42.400  13.014  20.305  0.00  0.00     0.020 A 
ATOM     13  C   UNL d   1     -43.110  12.819  20.684  0.00  0.00     0.003 A 
BRANCH  11  14
ATOM     14  N   UNL d   1     -41.145  13.693  20.300  0.00  0.00    -0.162 NA
BRANCH  14  15
ATOM     15  S   UNL d   1     -41.004  14.451  20.029  0.00  0.00     0.266 S 
ATOM     16  O   UNL d   1     -40.936  15.055  19.468  0.00  0.00    -0.203 OA
ATOM     17  O   UNL d   1     -41.180  14.092  19.304  0.00  0.00    -0.203 OA
ATOM     18  C   UNL d   1     -40.826  14.831  20.736  0.00  0.00     0.165 C 
ENDBRANCH  14  15
ENDBRANCH  11  14
ENDBRANCH   5   8
BRANCH   4  19
ATOM     19  C   UNL d   1     -46.008  13.197  22.359  0.00  0.00     0.018 A 
ATOM     20  C   UNL d   1     -46.619  12.912  21.844  0.00  0.00     0.002 A 
ATOM     21  C   UNL d   1     -47.365  13.187  22.025  0.00  0.00     0.000 A 
ATOM     22  C   UNL d   1     -47.518  13.701  22.655  0.00  0.00     0.000 A 
ATOM     23  C   UNL d   1     -46.946  13.963  23.132  0.00  0.00     0.000 A 
ATOM     24  C   UNL d   1     -46.166  13.716  22.996  0.00  0.00     0.002 A 
ENDBRANCH   4  19
BRANCH   3  25
ATOM     25  C   UNL d   1     -44.825  11.068  23.290  0.00  0.00     0.158 A 
ATOM     26  O   UNL d   1     -43.998  11.048  23.445  0.00  0.00    -0.300 OA
ATOM     27  C   UNL d   1     -43.813  10.284  23.696  0.00  0.00     0.123 A 
ATOM     28  C   UNL d   1     -44.503   9.839  23.698  0.00  0.00     0.029 A 
ATOM     29  C   UNL d   1     -45.117  10.335  23.445  0.00  0.00     0.032 A 
ENDBRANCH   3  25
TORSDOF 5
ENDMDL
