MODEL 1
REMARK VINA RESULT:      78.7      0.000      0.000
REMARK  8 active torsions:
REMARK  status: ('A' for Active; 'I' for Inactive)
REMARK    1  A    between atoms: C_4  and  C_1 
REMARK    2  A    between atoms: C_11  and  N_3 
REMARK    3  A    between atoms: N_7  and  C_4 
REMARK    4  A    between atoms: C_9  and  C_4 
REMARK       I    between atoms: C_8  and  N_7 
REMARK    5  A    between atoms: C_12  and  C_9 
REMARK    6  A    between atoms: C_18  and  C_11 
REMARK    7  A    between atoms: C_20  and  C_18 
REMARK    8  A    between atoms: C_19  and  C_20 
ROOT
ATOM      1  C   UNL d   1     -50.879  26.802  35.471  0.00  0.00     0.166 A 
ATOM      2  N   UNL d   1     -51.462  26.493  35.970  0.00  0.00    -0.225 NA
ATOM      3  N   UNL d   1     -50.251  27.056  35.939  0.00  0.00    -0.288 N 
ATOM      4  C   UNL d   1     -50.440  26.907  36.730  0.00  0.00     0.083 A 
ATOM      5  C   UNL d   1     -51.194  26.557  36.742  0.00  0.00     0.099 A 
ATOM      6  C   UNL d   1     -50.031  27.042  37.426  0.00  0.00     0.019 A 
ATOM      7  C   UNL d   1     -51.531  26.344  37.461  0.00  0.00     0.021 A 
ATOM      8  C   UNL d   1     -50.367  26.829  38.149  0.00  0.00     0.002 A 
ATOM      9  C   UNL d   1     -51.120  26.479  38.170  0.00  0.00     0.002 A 
ENDROOT
BRANCH   1  10
ATOM     10  C   UNL d   1     -50.918  26.849  34.644  0.00  0.00     0.119 C 
BRANCH  10  11
ATOM     11  N   UNL d   1     -51.325  27.469  34.287  0.00  0.00    -0.205 NA
ATOM     12  C   UNL d   1     -50.983  27.886  33.663  0.00  0.00     0.280 C 
ATOM     13  O   UNL d   1     -51.389  28.506  33.306  0.00  0.00    -0.265 OA
ATOM     14  C   UNL d   1     -50.225  27.682  33.391  0.00  0.00     0.068 C 
ENDBRANCH  10  11
BRANCH  10  15
ATOM     15  C   UNL d   1     -50.553  26.277  34.180  0.00  0.00     0.022 C 
BRANCH  15  16
ATOM     16  C   UNL d   1     -50.984  25.641  33.891  0.00  0.00     0.002 A 
ATOM     17  C   UNL d   1     -51.801  25.691  33.809  0.00  0.00     0.000 A 
ATOM     18  C   UNL d   1     -52.232  25.052  33.518  0.00  0.00     0.000 A 
ATOM     19  C   UNL d   1     -51.844  24.357  33.308  0.00  0.00     0.000 A 
ATOM     20  C   UNL d   1     -51.019  24.305  33.390  0.00  0.00     0.000 A 
ATOM     21  C   UNL d   1     -50.595  24.947  33.681  0.00  0.00     0.000 A 
ENDBRANCH  15  16
ENDBRANCH  10  15
ENDBRANCH   1  10
BRANCH   3  22
ATOM     22  C   UNL d   1     -49.550  27.403  35.666  0.00  0.00     0.082 C 
BRANCH  22  23
ATOM     23  C   UNL d   1     -49.209  28.029  36.084  0.00  0.00     0.019 C 
BRANCH  23  24
ATOM     24  C   UNL d   1     -48.495  28.359  35.837  0.00  0.00     0.002 C 
BRANCH  24  25
ATOM     25  C   UNL d   1     -48.397  29.183  35.871  0.00  0.00     0.000 C 
ATOM     26  C   UNL d   1     -47.646  29.517  35.730  0.00  0.00     0.000 C 
ENDBRANCH  24  25
ENDBRANCH  23  24
ENDBRANCH  22  23
ENDBRANCH   3  22
TORSDOF 8
ENDMDL
