MODEL 1
REMARK VINA RESULT:      15.3      0.000      0.000
REMARK  1 active torsions:
REMARK  status: ('A' for Active; 'I' for Inactive)
REMARK    1  A    between atoms: N_3  and  C_2 
ROOT
ATOM      1  N   UNL d   1      58.439  49.691  50.047  0.00  0.00    -0.228 NA
ATOM      2  C   UNL d   1      58.663  49.699  50.843  0.00  0.00     0.148 A 
ATOM      3  C   UNL d   1      57.633  49.692  49.845  0.00  0.00     0.083 A 
ATOM      4  C   UNL d   1      58.086  49.707  51.433  0.00  0.00     0.037 A 
ATOM      5  C   UNL d   1      57.062  49.700  50.441  0.00  0.00     0.018 A 
ATOM      6  C   UNL d   1      57.286  49.708  51.238  0.00  0.00     0.005 A 
ATOM      7  C   UNL d   1      57.408  49.684  49.052  0.00  0.00     0.019 A 
ATOM      8  C   UNL d   1      56.263  49.701  50.247  0.00  0.00     0.002 A 
ATOM      9  C   UNL d   1      56.607  49.685  48.857  0.00  0.00     0.002 A 
ATOM     10  C   UNL d   1      56.034  49.693  49.455  0.00  0.00     0.000 A 
ENDROOT
BRANCH   2  11
ATOM     11  N   UNL d   1      59.465  49.698  51.041  0.00  0.00    -0.286 N 
ATOM     12  C   UNL d   1      60.036  49.688  50.445  0.00  0.00     0.102 A 
ATOM     13  C   UNL d   1      60.834  49.688  50.643  0.00  0.00     0.118 A 
ATOM     14  N   UNL d   1      61.062  49.697  51.434  0.00  0.00    -0.239 NA
ATOM     15  C   UNL d   1      60.491  49.706  52.030  0.00  0.00     0.118 A 
ATOM     16  C   UNL d   1      59.689  49.707  51.832  0.00  0.00     0.102 A 
ENDBRANCH   2  11
TORSDOF 1
ENDMDL
