MODEL 1
REMARK VINA RESULT:     274.5      0.000      0.000
REMARK  7 active torsions:
REMARK  status: ('A' for Active; 'I' for Inactive)
REMARK    1  A    between atoms: C_17  and  N_1 
REMARK       I    between atoms: C_4  and  N_7 
REMARK    2  A    between atoms: C_8  and  C_4 
REMARK    3  A    between atoms: N_7  and  C_26 
REMARK    4  A    between atoms: C_9  and  N_7 
REMARK    5  A    between atoms: C_27  and  C_17 
REMARK    6  A    between atoms: C_26  and  C_28 
REMARK    7  A    between atoms: C_28  and  C_27 
ROOT
ATOM      1  C   UNL d   1     -57.368-100.791 -39.877  0.00  0.00     0.287 C 
ATOM      2  N   UNL d   1     -57.593-101.005 -40.643  0.00  0.00    -0.272 N 
ATOM      3  O   UNL d   1     -56.835-101.245 -39.469  0.00  0.00    -0.264 OA
ENDROOT
BRANCH   2   4
ATOM      4  C   UNL d   1     -57.279-101.669 -40.982  0.00  0.00     0.083 C 
BRANCH   4   5
ATOM      5  C   UNL d   1     -56.846-101.610 -41.688  0.00  0.00     0.021 C 
BRANCH   5   6
ATOM      6  C   UNL d   1     -56.990-100.996 -42.203  0.00  0.00     0.021 C 
BRANCH   6   7
ATOM      7  C   UNL d   1     -56.362-100.669 -42.626  0.00  0.00     0.086 C 
BRANCH   7   8
ATOM      8  N   UNL d   1     -56.160-100.988 -43.375  0.00  0.00    -0.240 N 
ATOM      9  C   UNL d   1     -55.595-101.526 -43.507  0.00  0.00     0.267 A 
ATOM     10  C   UNL d   1     -55.576-101.689 -44.310  0.00  0.00     0.061 A 
ATOM     11  O   UNL d   1     -55.082-101.887 -42.919  0.00  0.00    -0.267 OA
ATOM     12  C   UNL d   1     -55.115-102.189 -44.756  0.00  0.00     0.005 A 
ATOM     13  C   UNL d   1     -56.166-101.217 -44.671  0.00  0.00     0.061 A 
ATOM     14  C   UNL d   1     -55.234-102.229 -45.576  0.00  0.00     0.000 A 
ATOM     15  C   UNL d   1     -55.824-101.757 -45.937  0.00  0.00     0.000 A 
ATOM     16  C   UNL d   1     -56.283-101.254 -45.470  0.00  0.00     0.005 A 
ATOM     17  C   UNL d   1     -56.524-100.783 -44.075  0.00  0.00     0.267 A 
ATOM     18  O   UNL d   1     -57.161-100.223 -44.190  0.00  0.00    -0.267 OA
ENDBRANCH   7   8
ENDBRANCH   6   7
ENDBRANCH   5   6
ENDBRANCH   4   5
ENDBRANCH   2   4
BRANCH   2  19
ATOM     19  C   UNL d   1     -58.136-100.547 -41.067  0.00  0.00     0.067 A 
ATOM     20  C   UNL d   1     -58.843-100.298 -40.718  0.00  0.00     0.018 A 
ATOM     21  C   UNL d   1     -59.386 -99.840 -41.142  0.00  0.00     0.013 A 
ATOM     22  C   UNL d   1     -59.222 -99.632 -41.917  0.00  0.00     0.058 A 
ATOM     23  C   UNL d   1     -58.515 -99.882 -42.263  0.00  0.00     0.013 A 
ATOM     24 CL   UNL d   1     -59.765 -99.175 -42.337  0.00  0.00    -0.082 Cl
ATOM     25  C   UNL d   1     -57.972-100.339 -41.842  0.00  0.00     0.018 A 
ENDBRANCH   2  19
BRANCH   1  26
ATOM     26  C   UNL d   1     -57.685-100.118 -39.534  0.00  0.00     0.156 A 
ATOM     27  O   UNL d   1     -57.354 -99.442 -39.194  0.00  0.00    -0.300 OA
ATOM     28  C   UNL d   1     -57.957 -98.946 -38.938  0.00  0.00     0.123 A 
ATOM     29  C   UNL d   1     -58.642 -99.300 -39.113  0.00  0.00     0.029 A 
ATOM     30  C   UNL d   1     -58.505-100.037 -39.487  0.00  0.00     0.032 A 
ENDBRANCH   1  26
TORSDOF 7
ENDMDL
