MODEL 1
REMARK VINA RESULT:      25.9      0.000      0.000
REMARK  3 active torsions:
REMARK  status: ('A' for Active; 'I' for Inactive)
REMARK    1  A    between atoms: N_5  and  C_1 
REMARK    2  A    between atoms: C_8  and  C_2 
REMARK       I    between atoms: C_7  and  N_5 
REMARK       I    between atoms: N_9  and  C_7 
REMARK    3  A    between atoms: C_13  and  N_9 
ROOT
ATOM      1  C   UNL d   1      13.173  12.423  -4.145  0.00  0.00     0.120 A 
ATOM      2  C   UNL d   1      13.286  13.126  -4.561  0.00  0.00     0.084 A 
ATOM      3  S   UNL d   1      13.155  11.835  -4.706  0.00  0.00    -0.068 SA
ATOM      4  C   UNL d   1      13.331  12.948  -5.339  0.00  0.00     0.013 A 
ATOM      5  C   UNL d   1      13.252  12.169  -5.430  0.00  0.00     0.031 A 
ATOM      6  C   UNL d   1      13.444  13.500  -5.970  0.00  0.00     0.001 C 
ATOM      7  C   UNL d   1      13.271  11.779  -6.170  0.00  0.00     0.007 C 
ENDROOT
BRANCH   1   8
ATOM      8  N   UNL d   1      13.044  12.296  -2.760  0.00  0.00    -0.184 NA
ATOM      9  C   UNL d   1      13.686  12.379  -2.272  0.00  0.00     0.369 C 
ATOM     10  N   UNL d   1      13.625  12.307  -1.449  0.00  0.00    -0.191 NA
ATOM     11  O   UNL d   1      14.422  12.541  -2.608  0.00  0.00    -0.242 OA
BRANCH  10  12
ATOM     12  C   UNL d   1      14.277  12.393  -0.974  0.00  0.00     0.086 A 
ATOM     13  C   UNL d   1      14.839  11.784  -0.921  0.00  0.00     0.019 A 
ATOM     14  C   UNL d   1      15.490  11.858  -0.453  0.00  0.00     0.002 A 
ATOM     15  C   UNL d   1      15.605  12.550  -0.015  0.00  0.00     0.000 A 
ATOM     16  C   UNL d   1      15.046  13.170  -0.059  0.00  0.00     0.002 A 
ATOM     17  C   UNL d   1      14.388  13.067  -0.547  0.00  0.00     0.019 A 
ENDBRANCH  10  12
ENDBRANCH   1   8
BRANCH   2  18
ATOM     18  C   UNL d   1      13.341  13.884  -4.223  0.00  0.00     0.299 C 
ATOM     19  O   UNL d   1      13.970  14.073  -3.715  0.00  0.00    -0.264 OA
ATOM     20  N   UNL d   1      12.769  14.466  -4.387  0.00  0.00    -0.102 N 
ENDBRANCH   2  18
TORSDOF 3
ENDMDL
