MODEL 1
REMARK VINA RESULT:      46.1      0.000      0.000
REMARK  5 active torsions:
REMARK  status: ('A' for Active; 'I' for Inactive)
REMARK    1  A    between atoms: N_2  and  C_1 
REMARK    2  A    between atoms: C_9  and  C_5 
REMARK    3  A    between atoms: C_6  and  C_10 
REMARK       I    between atoms: N_11  and  C_6 
REMARK    4  A    between atoms: C_8  and  N_11 
REMARK    5  A    between atoms: C_10  and  C_9 
ROOT
ATOM      1  C   UNL d   1     -49.964  27.010  33.988  0.00  0.00     0.279 C 
ATOM      2  N   UNL d   1     -50.032  26.543  33.306  0.00  0.00    -0.208 NA
ATOM      3  O   UNL d   1     -50.404  26.841  34.666  0.00  0.00    -0.265 OA
ENDROOT
BRANCH   1   4
ATOM      4  C   UNL d   1     -49.455  27.646  33.988  0.00  0.00     0.063 C 
BRANCH   4   5
ATOM      5  C   UNL d   1     -48.829  27.667  34.527  0.00  0.00     0.011 C 
BRANCH   5   6
ATOM      6  C   UNL d   1     -48.555  28.400  34.809  0.00  0.00     0.031 A 
ATOM      7  S   UNL d   1     -48.018  28.604  35.391  0.00  0.00    -0.064 SA
ATOM      8  C   UNL d   1     -47.964  29.419  35.432  0.00  0.00     0.156 A 
ATOM      9  C   UNL d   1     -48.477  29.717  34.866  0.00  0.00     0.031 A 
ATOM     10  C   UNL d   1     -48.846  29.099  34.477  0.00  0.00     0.009 A 
BRANCH   8  11
ATOM     11  N   UNL d   1     -47.484  29.866  35.946  0.00  0.00    -0.107 N 
ATOM     12  O   UNL d   1     -47.231  30.616  35.712  0.00  0.00    -0.531 OA
ATOM     13  O   UNL d   1     -47.267  29.555  36.684  0.00  0.00    -0.531 OA
ENDBRANCH   8  11
ENDBRANCH   5   6
ENDBRANCH   4   5
ENDBRANCH   1   4
BRANCH   2  14
ATOM     14  C   UNL d   1     -50.549  25.896  33.306  0.00  0.00     0.085 A 
ATOM     15  C   UNL d   1     -51.351  26.015  33.306  0.00  0.00     0.019 A 
ATOM     16  C   UNL d   1     -51.862  25.377  33.306  0.00  0.00     0.002 A 
ATOM     17  C   UNL d   1     -52.686  25.488  33.306  0.00  0.00     0.000 C 
ATOM     18  C   UNL d   1     -51.562  24.632  33.306  0.00  0.00     0.000 A 
ATOM     19  C   UNL d   1     -50.749  24.490  33.306  0.00  0.00     0.002 A 
ATOM     20  C   UNL d   1     -50.240  25.126  33.306  0.00  0.00     0.019 A 
ATOM     21  C   UNL d   1     -50.444  23.720  33.306  0.00  0.00     0.000 C 
ENDBRANCH   2  14
TORSDOF 5
ENDMDL
MODEL 2
REMARK VINA RESULT:      49.0      3.555      5.702
REMARK  5 active torsions:
REMARK  status: ('A' for Active; 'I' for Inactive)
REMARK    1  A    between atoms: N_2  and  C_1 
REMARK    2  A    between atoms: C_9  and  C_5 
REMARK    3  A    between atoms: C_6  and  C_10 
REMARK       I    between atoms: N_11  and  C_6 
REMARK    4  A    between atoms: C_8  and  N_11 
REMARK    5  A    between atoms: C_10  and  C_9 
ROOT
ATOM      1  C   UNL d   1     -51.445  24.383  33.451  0.00  0.00     0.279 C 
ATOM      2  N   UNL d   1     -51.993  24.998  33.553  0.00  0.00    -0.208 NA
ATOM      3  O   UNL d   1     -50.647  24.542  33.307  0.00  0.00    -0.265 OA
ENDROOT
BRANCH   1   4
ATOM      4  C   UNL d   1     -51.699  23.610  33.494  0.00  0.00     0.063 C 
BRANCH   4   5
ATOM      5  C   UNL d   1     -52.484  23.429  33.313  0.00  0.00     0.011 C 
BRANCH   5   6
ATOM      6  C   UNL d   1     -53.056  23.433  33.917  0.00  0.00     0.031 A 
ATOM      7  S   UNL d   1     -53.010  23.308  34.724  0.00  0.00    -0.064 SA
ATOM      8  C   UNL d   1     -53.756  23.380  35.050  0.00  0.00     0.156 A 
ATOM      9  C   UNL d   1     -54.266  23.551  34.431  0.00  0.00     0.031 A 
ATOM     10  C   UNL d   1     -53.846  23.586  33.730  0.00  0.00     0.009 A 
BRANCH   8  11
ATOM     11  N   UNL d   1     -53.965  23.297  35.852  0.00  0.00    -0.107 N 
ATOM     12  O   UNL d   1     -53.375  23.319  36.428  0.00  0.00    -0.531 OA
ATOM     13  O   UNL d   1     -54.762  23.194  36.063  0.00  0.00    -0.531 OA
ENDBRANCH   8  11
ENDBRANCH   5   6
ENDBRANCH   4   5
ENDBRANCH   1   4
BRANCH   2  14
ATOM     14  C   UNL d   1     -51.735  25.784  33.510  0.00  0.00     0.085 A 
ATOM     15  C   UNL d   1     -52.272  26.386  33.435  0.00  0.00     0.019 A 
ATOM     16  C   UNL d   1     -52.017  27.162  33.392  0.00  0.00     0.002 A 
ATOM     17  C   UNL d   1     -52.560  27.787  33.316  0.00  0.00     0.000 C 
ATOM     18  C   UNL d   1     -51.230  27.321  33.424  0.00  0.00     0.000 A 
ATOM     19  C   UNL d   1     -50.668  26.722  33.500  0.00  0.00     0.002 A 
ATOM     20  C   UNL d   1     -50.922  25.949  33.543  0.00  0.00     0.019 A 
ATOM     21  C   UNL d   1     -49.858  26.890  33.533  0.00  0.00     0.000 C 
ENDBRANCH   2  14
TORSDOF 5
ENDMDL
