MODEL 1
REMARK VINA RESULT:      -9.6      0.000      0.000
REMARK  3 active torsions:
REMARK  status: ('A' for Active; 'I' for Inactive)
REMARK    1  A    between atoms: C_7  and  N_1 
REMARK    2  A    between atoms: C_5  and  C_2 
REMARK    3  A    between atoms: C_11  and  C_7 
ROOT
ATOM      1  N   UNL d   1      52.949  32.524  53.590  0.00  0.00    -0.262 N 
ATOM      2  C   UNL d   1      52.464  32.782  52.972  0.00  0.00     0.173 A 
ATOM      3  N   UNL d   1      52.499  32.196  52.394  0.00  0.00    -0.128 NA
ATOM      4  C   UNL d   1      53.272  31.808  53.402  0.00  0.00     0.227 A 
ATOM      5  N   UNL d   1      52.996  31.594  52.655  0.00  0.00    -0.117 NA
ATOM      6  S   UNL d   1      53.793  31.299  53.811  0.00  0.00    -0.036 SA
ENDROOT
BRANCH   2   7
ATOM      7  C   UNL d   1      52.029  33.478  52.928  0.00  0.00     0.064 A 
ATOM      8  C   UNL d   1      52.014  34.283  52.769  0.00  0.00     0.143 A 
ATOM      9  F   UNL d   1      52.786  34.503  52.554  0.00  0.00    -0.204 F 
ATOM     10  C   UNL d   1      51.298  34.703  52.843  0.00  0.00     0.030 A 
ATOM     11  C   UNL d   1      50.608  34.315  53.074  0.00  0.00     0.002 A 
ATOM     12  C   UNL d   1      50.632  33.512  53.231  0.00  0.00     0.000 A 
ATOM     13  C   UNL d   1      51.345  33.086  53.158  0.00  0.00     0.005 A 
ENDBRANCH   2   7
BRANCH   1  14
ATOM     14  C   UNL d   1      53.096  32.924  54.301  0.00  0.00     0.108 C 
BRANCH  14  15
ATOM     15  C   UNL d   1      53.867  33.148  54.485  0.00  0.00     0.118 A 
ATOM     16  O   UNL d   1      54.485  33.249  53.948  0.00  0.00    -0.304 OA
ATOM     17  C   UNL d   1      55.161  33.475  54.361  0.00  0.00     0.123 A 
ATOM     18  C   UNL d   1      54.953  33.512  55.163  0.00  0.00     0.029 A 
ATOM     19  C   UNL d   1      54.157  33.311  55.240  0.00  0.00     0.028 A 
ENDBRANCH  14  15
ENDBRANCH   1  14
TORSDOF 3
ENDMDL
MODEL 2
REMARK VINA RESULT:      -9.5      1.185      3.075
REMARK  3 active torsions:
REMARK  status: ('A' for Active; 'I' for Inactive)
REMARK    1  A    between atoms: C_7  and  N_1 
REMARK    2  A    between atoms: C_5  and  C_2 
REMARK    3  A    between atoms: C_11  and  C_7 
ROOT
ATOM      1  N   UNL d   1      53.265  32.256  53.321  0.00  0.00    -0.262 N 
ATOM      2  C   UNL d   1      53.841  32.176  53.908  0.00  0.00     0.173 A 
ATOM      3  N   UNL d   1      53.809  31.391  54.156  0.00  0.00    -0.128 NA
ATOM      4  C   UNL d   1      52.890  31.549  53.209  0.00  0.00     0.227 A 
ATOM      5  N   UNL d   1      53.224  31.001  53.728  0.00  0.00    -0.117 NA
ATOM      6  S   UNL d   1      52.274  31.312  52.697  0.00  0.00    -0.036 SA
ENDROOT
BRANCH   2   7
ATOM      7  C   UNL d   1      54.351  32.753  54.198  0.00  0.00     0.064 A 
ATOM      8  C   UNL d   1      54.944  33.300  54.045  0.00  0.00     0.143 A 
ATOM      9  F   UNL d   1      55.110  33.259  53.233  0.00  0.00    -0.204 F 
ATOM     10  C   UNL d   1      55.248  33.759  54.671  0.00  0.00     0.030 A 
ATOM     11  C   UNL d   1      54.958  33.666  55.438  0.00  0.00     0.002 A 
ATOM     12  C   UNL d   1      54.367  33.118  55.579  0.00  0.00     0.000 A 
ATOM     13  C   UNL d   1      54.058  32.656  54.958  0.00  0.00     0.005 A 
ENDBRANCH   2   7
BRANCH   1  14
ATOM     14  C   UNL d   1      53.082  32.946  52.899  0.00  0.00     0.108 C 
BRANCH  14  15
ATOM     15  C   UNL d   1      52.331  33.275  52.973  0.00  0.00     0.118 A 
ATOM     16  O   UNL d   1      51.830  33.206  53.625  0.00  0.00    -0.304 OA
ATOM     17  C   UNL d   1      51.134  33.618  53.471  0.00  0.00     0.123 A 
ATOM     18  C   UNL d   1      51.210  33.944  52.713  0.00  0.00     0.029 A 
ATOM     19  C   UNL d   1      51.946  33.735  52.405  0.00  0.00     0.028 A 
ENDBRANCH  14  15
ENDBRANCH   1  14
TORSDOF 3
ENDMDL
MODEL 3
REMARK VINA RESULT:      -9.2      1.589      2.649
REMARK  3 active torsions:
REMARK  status: ('A' for Active; 'I' for Inactive)
REMARK    1  A    between atoms: C_7  and  N_1 
REMARK    2  A    between atoms: C_5  and  C_2 
REMARK    3  A    between atoms: C_11  and  C_7 
ROOT
ATOM      1  N   UNL d   1      53.104  32.511  53.646  0.00  0.00    -0.262 N 
ATOM      2  C   UNL d   1      53.000  31.883  53.118  0.00  0.00     0.173 A 
ATOM      3  N   UNL d   1      52.668  32.208  52.439  0.00  0.00    -0.128 NA
ATOM      4  C   UNL d   1      52.847  33.198  53.306  0.00  0.00     0.227 A 
ATOM      5  N   UNL d   1      52.572  33.018  52.550  0.00  0.00    -0.117 NA
ATOM      6  S   UNL d   1      52.820  33.987  53.579  0.00  0.00    -0.036 SA
ENDROOT
BRANCH   2   7
ATOM      7  C   UNL d   1      53.185  31.091  53.234  0.00  0.00     0.064 A 
ATOM      8  C   UNL d   1      53.761  30.508  53.279  0.00  0.00     0.143 A 
ATOM      9  F   UNL d   1      54.493  30.879  53.150  0.00  0.00    -0.204 F 
ATOM     10  C   UNL d   1      53.537  29.720  53.431  0.00  0.00     0.030 A 
ATOM     11  C   UNL d   1      52.742  29.524  53.537  0.00  0.00     0.002 A 
ATOM     12  C   UNL d   1      52.175  30.112  53.490  0.00  0.00     0.000 A 
ATOM     13  C   UNL d   1      52.393  30.902  53.338  0.00  0.00     0.005 A 
ENDBRANCH   2   7
BRANCH   1  14
ATOM     14  C   UNL d   1      53.422  32.467  54.410  0.00  0.00     0.108 C 
BRANCH  14  15
ATOM     15  C   UNL d   1      54.083  32.920  54.598  0.00  0.00     0.118 A 
ATOM     16  O   UNL d   1      54.733  33.059  54.109  0.00  0.00    -0.304 OA
ATOM     17  C   UNL d   1      55.269  33.539  54.510  0.00  0.00     0.123 A 
ATOM     18  C   UNL d   1      54.942  33.696  55.255  0.00  0.00     0.029 A 
ATOM     19  C   UNL d   1      54.213  33.316  55.311  0.00  0.00     0.028 A 
ENDBRANCH  14  15
ENDBRANCH   1  14
TORSDOF 3
ENDMDL
MODEL 4
REMARK VINA RESULT:      -9.1      1.546      3.123
REMARK  3 active torsions:
REMARK  status: ('A' for Active; 'I' for Inactive)
REMARK    1  A    between atoms: C_7  and  N_1 
REMARK    2  A    between atoms: C_5  and  C_2 
REMARK    3  A    between atoms: C_11  and  C_7 
ROOT
ATOM      1  N   UNL d   1      53.066  32.455  53.375  0.00  0.00    -0.262 N 
ATOM      2  C   UNL d   1      53.326  33.098  53.825  0.00  0.00     0.173 A 
ATOM      3  N   UNL d   1      52.665  33.574  53.946  0.00  0.00    -0.128 NA
ATOM      4  C   UNL d   1      52.275  32.529  53.224  0.00  0.00     0.227 A 
ATOM      5  N   UNL d   1      52.015  33.227  53.578  0.00  0.00    -0.117 NA
ATOM      6  S   UNL d   1      51.734  32.052  52.804  0.00  0.00    -0.036 SA
ENDROOT
BRANCH   2   7
ATOM      7  C   UNL d   1      54.085  33.247  54.102  0.00  0.00     0.064 A 
ATOM      8  C   UNL d   1      54.890  33.287  53.944  0.00  0.00     0.143 A 
ATOM      9  F   UNL d   1      54.992  33.088  53.145  0.00  0.00    -0.204 F 
ATOM     10  C   UNL d   1      55.416  33.499  54.554  0.00  0.00     0.030 A 
ATOM     11  C   UNL d   1      55.134  33.668  55.311  0.00  0.00     0.002 A 
ATOM     12  C   UNL d   1      54.331  33.626  55.458  0.00  0.00     0.000 A 
ATOM     13  C   UNL d   1      53.798  33.414  54.853  0.00  0.00     0.005 A 
ENDBRANCH   2   7
BRANCH   1  14
ATOM     14  C   UNL d   1      53.528  31.820  53.109  0.00  0.00     0.108 C 
BRANCH  14  15
ATOM     15  C   UNL d   1      53.334  31.055  53.345  0.00  0.00     0.118 A 
ATOM     16  O   UNL d   1      53.399  30.750  54.108  0.00  0.00    -0.304 OA
ATOM     17  C   UNL d   1      53.148  29.965  54.103  0.00  0.00     0.123 A 
ATOM     18  C   UNL d   1      52.926  29.788  53.324  0.00  0.00     0.029 A 
ATOM     19  C   UNL d   1      53.040  30.458  52.857  0.00  0.00     0.028 A 
ENDBRANCH  14  15
ENDBRANCH   1  14
TORSDOF 3
ENDMDL
MODEL 5
REMARK VINA RESULT:      -8.9      1.582      3.261
REMARK  3 active torsions:
REMARK  status: ('A' for Active; 'I' for Inactive)
REMARK    1  A    between atoms: C_7  and  N_1 
REMARK    2  A    between atoms: C_5  and  C_2 
REMARK    3  A    between atoms: C_11  and  C_7 
ROOT
ATOM      1  N   UNL d   1      53.043  32.756  53.709  0.00  0.00    -0.262 N 
ATOM      2  C   UNL d   1      53.518  32.107  53.517  0.00  0.00     0.173 A 
ATOM      3  N   UNL d   1      54.296  32.371  53.566  0.00  0.00    -0.128 NA
ATOM      4  C   UNL d   1      53.508  33.397  53.871  0.00  0.00     0.227 A 
ATOM      5  N   UNL d   1      54.296  33.165  53.784  0.00  0.00    -0.117 NA
ATOM      6  S   UNL d   1      53.331  34.182  54.091  0.00  0.00    -0.036 SA
ENDROOT
BRANCH   2   7
ATOM      7  C   UNL d   1      53.277  31.347  53.315  0.00  0.00     0.064 A 
ATOM      8  C   UNL d   1      52.954  30.844  52.754  0.00  0.00     0.143 A 
ATOM      9  F   UNL d   1      52.793  31.302  52.080  0.00  0.00    -0.204 F 
ATOM     10  C   UNL d   1      52.851  30.038  52.937  0.00  0.00     0.030 A 
ATOM     11  C   UNL d   1      53.073  29.745  53.676  0.00  0.00     0.002 A 
ATOM     12  C   UNL d   1      53.395  30.255  54.229  0.00  0.00     0.000 A 
ATOM     13  C   UNL d   1      53.500  31.062  54.052  0.00  0.00     0.005 A 
ENDBRANCH   2   7
BRANCH   1  14
ATOM     14  C   UNL d   1      52.214  32.771  53.737  0.00  0.00     0.108 C 
BRANCH  14  15
ATOM     15  C   UNL d   1      51.805  33.303  53.260  0.00  0.00     0.118 A 
ATOM     16  O   UNL d   1      52.056  33.596  52.531  0.00  0.00    -0.304 OA
ATOM     17  C   UNL d   1      51.483  34.112  52.241  0.00  0.00     0.123 A 
ATOM     18  C   UNL d   1      50.873  34.134  52.802  0.00  0.00     0.029 A 
ATOM     19  C   UNL d   1      51.069  33.637  53.429  0.00  0.00     0.028 A 
ENDBRANCH  14  15
ENDBRANCH   1  14
TORSDOF 3
ENDMDL
MODEL 6
REMARK VINA RESULT:      -8.8      1.237      2.055
REMARK  3 active torsions:
REMARK  status: ('A' for Active; 'I' for Inactive)
REMARK    1  A    between atoms: C_7  and  N_1 
REMARK    2  A    between atoms: C_5  and  C_2 
REMARK    3  A    between atoms: C_11  and  C_7 
ROOT
ATOM      1  N   UNL d   1      53.045  33.161  53.626  0.00  0.00    -0.262 N 
ATOM      2  C   UNL d   1      52.464  33.749  53.639  0.00  0.00     0.173 A 
ATOM      3  N   UNL d   1      52.514  34.103  54.381  0.00  0.00    -0.128 NA
ATOM      4  C   UNL d   1      53.439  33.151  54.332  0.00  0.00     0.227 A 
ATOM      5  N   UNL d   1      53.113  33.738  54.811  0.00  0.00    -0.117 NA
ATOM      6  S   UNL d   1      54.065  32.681  54.622  0.00  0.00    -0.036 SA
ENDROOT
BRANCH   2   7
ATOM      7  C   UNL d   1      51.938  33.952  53.041  0.00  0.00     0.064 A 
ATOM      8  C   UNL d   1      51.822  34.190  52.265  0.00  0.00     0.143 A 
ATOM      9  F   UNL d   1      52.572  34.260  51.917  0.00  0.00    -0.204 F 
ATOM     10  C   UNL d   1      51.046  34.309  51.984  0.00  0.00     0.030 A 
ATOM     11  C   UNL d   1      50.398  34.190  52.481  0.00  0.00     0.002 A 
ATOM     12  C   UNL d   1      50.524  33.953  53.254  0.00  0.00     0.000 A 
ATOM     13  C   UNL d   1      51.297  33.832  53.541  0.00  0.00     0.005 A 
ENDBRANCH   2   7
BRANCH   1  14
ATOM     14  C   UNL d   1      53.216  32.649  52.997  0.00  0.00     0.108 C 
BRANCH  14  15
ATOM     15  C   UNL d   1      53.137  31.837  53.107  0.00  0.00     0.118 A 
ATOM     16  O   UNL d   1      52.432  31.409  53.090  0.00  0.00    -0.304 OA
ATOM     17  C   UNL d   1      52.600  30.614  53.225  0.00  0.00     0.123 A 
ATOM     18  C   UNL d   1      53.421  30.555  53.326  0.00  0.00     0.029 A 
ATOM     19  C   UNL d   1      53.753  31.306  53.253  0.00  0.00     0.028 A 
ENDBRANCH  14  15
ENDBRANCH   1  14
TORSDOF 3
ENDMDL
