MODEL 1
REMARK VINA RESULT:      -6.1      0.000      0.000
REMARK  5 active torsions:
REMARK  status: ('A' for Active; 'I' for Inactive)
REMARK    1  A    between atoms: C_9  and  C_1 
REMARK    2  A    between atoms: C_6  and  C_4 
REMARK    3  A    between atoms: C_5  and  C_6 
REMARK    4  A    between atoms: C_8  and  C_5 
REMARK    5  A    between atoms: C_11  and  C_8 
ROOT
ATOM      1  C   UNL d   1      57.098   0.092  31.779  0.00  0.00     0.100 A 
ATOM      2  O   UNL d   1      57.169  -0.396  31.087  0.00  0.00    -0.307 OA
ATOM      3  C   UNL d   1      57.628   0.659  31.738  0.00  0.00     0.027 A 
ATOM      4  C   UNL d   1      57.789  -0.058  30.641  0.00  0.00     0.100 A 
ATOM      5  C   UNL d   1      58.061   0.587  31.053  0.00  0.00     0.027 A 
ENDROOT
BRANCH   4   6
ATOM      6  C   UNL d   1      58.122  -0.274  29.919  0.00  0.00     0.028 C 
BRANCH   6   7
ATOM      7  C   UNL d   1      58.528  -0.971  29.854  0.00  0.00     0.044 C 
BRANCH   7   8
ATOM      8  C   UNL d   1      58.818  -1.211  29.120  0.00  0.00     0.196 C 
ATOM      9  O   UNL d   1      58.708  -0.706  28.457  0.00  0.00    -0.287 OA
BRANCH   8  10
ATOM     10  C   UNL d   1      59.202  -1.926  29.049  0.00  0.00     0.039 A 
ATOM     11  C   UNL d   1      58.777  -2.638  28.968  0.00  0.00     0.003 A 
ATOM     12  C   UNL d   1      59.166  -3.358  28.896  0.00  0.00     0.000 A 
ATOM     13  C   UNL d   1      59.996  -3.376  28.904  0.00  0.00     0.000 A 
ATOM     14  C   UNL d   1      60.419  -2.669  28.984  0.00  0.00     0.000 A 
ATOM     15  C   UNL d   1      60.023  -1.963  29.054  0.00  0.00     0.003 A 
ENDBRANCH   8  10
ENDBRANCH   7   8
ENDBRANCH   6   7
ENDBRANCH   4   6
BRANCH   1  16
ATOM     16  C   UNL d   1      56.507  -0.145  32.307  0.00  0.00     0.023 A 
ATOM     17  C   UNL d   1      56.061   0.433  32.717  0.00  0.00     0.002 A 
ATOM     18  C   UNL d   1      55.469   0.190  33.246  0.00  0.00     0.000 A 
ATOM     19  C   UNL d   1      55.325  -0.597  33.364  0.00  0.00     0.000 A 
ATOM     20  C   UNL d   1      55.771  -1.181  32.954  0.00  0.00     0.000 A 
ATOM     21  C   UNL d   1      56.363  -0.938  32.425  0.00  0.00     0.002 A 
ENDBRANCH   1  16
TORSDOF 5
ENDMDL
MODEL 2
REMARK VINA RESULT:      -5.6      0.664      4.793
REMARK  5 active torsions:
REMARK  status: ('A' for Active; 'I' for Inactive)
REMARK    1  A    between atoms: C_9  and  C_1 
REMARK    2  A    between atoms: C_6  and  C_4 
REMARK    3  A    between atoms: C_5  and  C_6 
REMARK    4  A    between atoms: C_8  and  C_5 
REMARK    5  A    between atoms: C_11  and  C_8 
ROOT
ATOM      1  C   UNL d   1      58.783  -0.917  29.212  0.00  0.00     0.100 A 
ATOM      2  O   UNL d   1      58.599  -0.851  30.039  0.00  0.00    -0.307 OA
ATOM      3  C   UNL d   1      58.565  -0.262  28.856  0.00  0.00     0.027 A 
ATOM      4  C   UNL d   1      58.253  -0.096  30.128  0.00  0.00     0.100 A 
ATOM      5  C   UNL d   1      58.239   0.253  29.396  0.00  0.00     0.027 A 
ENDROOT
BRANCH   4   6
ATOM      6  C   UNL d   1      57.959   0.294  30.792  0.00  0.00     0.028 C 
BRANCH   6   7
ATOM      7  C   UNL d   1      57.370  -0.045  31.231  0.00  0.00     0.044 C 
BRANCH   7   8
ATOM      8  C   UNL d   1      57.265   0.176  32.018  0.00  0.00     0.196 C 
ATOM      9  O   UNL d   1      57.834   0.681  32.377  0.00  0.00    -0.287 OA
BRANCH   8  10
ATOM     10  C   UNL d   1      56.618  -0.095  32.434  0.00  0.00     0.039 A 
ATOM     11  C   UNL d   1      56.093   0.432  32.808  0.00  0.00     0.003 A 
ATOM     12  C   UNL d   1      55.442   0.158  33.226  0.00  0.00     0.000 A 
ATOM     13  C   UNL d   1      55.305  -0.660  33.278  0.00  0.00     0.000 A 
ATOM     14  C   UNL d   1      55.827  -1.185  32.906  0.00  0.00     0.000 A 
ATOM     15  C   UNL d   1      56.467  -0.900  32.495  0.00  0.00     0.003 A 
ENDBRANCH   8  10
ENDBRANCH   7   8
ENDBRANCH   6   7
ENDBRANCH   4   6
BRANCH   1  16
ATOM     16  C   UNL d   1      59.135  -1.633  28.995  0.00  0.00     0.023 A 
ATOM     17  C   UNL d   1      58.662  -2.320  28.911  0.00  0.00     0.002 A 
ATOM     18  C   UNL d   1      59.021  -3.036  28.694  0.00  0.00     0.000 A 
ATOM     19  C   UNL d   1      59.819  -3.071  28.565  0.00  0.00     0.000 A 
ATOM     20  C   UNL d   1      60.297  -2.384  28.648  0.00  0.00     0.000 A 
ATOM     21  C   UNL d   1      59.939  -1.667  28.866  0.00  0.00     0.002 A 
ENDBRANCH   1  16
TORSDOF 5
ENDMDL
MODEL 3
REMARK VINA RESULT:      -4.9      1.339      2.050
REMARK  5 active torsions:
REMARK  status: ('A' for Active; 'I' for Inactive)
REMARK    1  A    between atoms: C_9  and  C_1 
REMARK    2  A    between atoms: C_6  and  C_4 
REMARK    3  A    between atoms: C_5  and  C_6 
REMARK    4  A    between atoms: C_8  and  C_5 
REMARK    5  A    between atoms: C_11  and  C_8 
ROOT
ATOM      1  C   UNL d   1      56.381  -0.147  32.618  0.00  0.00     0.100 A 
ATOM      2  O   UNL d   1      56.604   0.461  32.068  0.00  0.00    -0.307 OA
ATOM      3  C   UNL d   1      56.616  -0.833  32.338  0.00  0.00     0.027 A 
ATOM      4  C   UNL d   1      56.990   0.063  31.444  0.00  0.00     0.100 A 
ATOM      5  C   UNL d   1      56.989  -0.729  31.623  0.00  0.00     0.027 A 
ENDROOT
BRANCH   4   6
ATOM      6  C   UNL d   1      57.332   0.342  30.747  0.00  0.00     0.028 C 
BRANCH   6   7
ATOM      7  C   UNL d   1      58.047   0.052  30.505  0.00  0.00     0.044 C 
BRANCH   7   8
ATOM      8  C   UNL d   1      58.354   0.275  29.773  0.00  0.00     0.196 C 
ATOM      9  O   UNL d   1      57.854   0.676  29.229  0.00  0.00    -0.287 OA
BRANCH   8  10
ATOM     10  C   UNL d   1      59.130   0.107  29.589  0.00  0.00     0.039 A 
ATOM     11  C   UNL d   1      59.746   0.628  29.797  0.00  0.00     0.003 A 
ATOM     12  C   UNL d   1      60.527   0.457  29.612  0.00  0.00     0.000 A 
ATOM     13  C   UNL d   1      60.706  -0.247  29.209  0.00  0.00     0.000 A 
ATOM     14  C   UNL d   1      60.095  -0.766  29.002  0.00  0.00     0.000 A 
ATOM     15  C   UNL d   1      59.326  -0.585  29.192  0.00  0.00     0.003 A 
ENDBRANCH   8  10
ENDBRANCH   7   8
ENDBRANCH   6   7
ENDBRANCH   4   6
BRANCH   1  16
ATOM     16  C   UNL d   1      55.984   0.127  33.291  0.00  0.00     0.023 A 
ATOM     17  C   UNL d   1      55.147   0.115  33.312  0.00  0.00     0.002 A 
ATOM     18  C   UNL d   1      54.754   0.392  33.989  0.00  0.00     0.000 A 
ATOM     19  C   UNL d   1      55.176   0.669  34.621  0.00  0.00     0.000 A 
ATOM     20  C   UNL d   1      56.017   0.682  34.604  0.00  0.00     0.000 A 
ATOM     21  C   UNL d   1      56.410   0.406  33.927  0.00  0.00     0.002 A 
ENDBRANCH   1  16
TORSDOF 5
ENDMDL
