MODEL 1
REMARK VINA RESULT:      41.8      0.000      0.000
REMARK  4 active torsions:
REMARK  status: ('A' for Active; 'I' for Inactive)
REMARK    1  A    between atoms: C_8  and  C_1 
REMARK    2  A    between atoms: C_6  and  O_10 
REMARK       I    between atoms: N_13  and  C_6 
REMARK    3  A    between atoms: C_11  and  C_8 
REMARK    4  A    between atoms: O_10  and  C_9 
ROOT
ATOM      1  C   UNL d   1      13.673  12.419  -2.748  0.00  0.00     0.141 A 
ATOM      2  C   UNL d   1      13.760  13.640  -3.304  0.00  0.00     0.105 A 
ATOM      3  O   UNL d   1      14.009  13.177  -2.665  0.00  0.00    -0.304 OA
ATOM      4  C   UNL d   1      13.269  13.178  -3.788  0.00  0.00     0.064 A 
ATOM      5  C   UNL d   1      13.211  12.425  -3.450  0.00  0.00     0.220 A 
ATOM      6  C   UNL d   1      13.918  14.423  -3.506  0.00  0.00     0.046 A 
ATOM      7  C   UNL d   1      13.588  14.747  -4.189  0.00  0.00     0.107 A 
ATOM      8  C   UNL d   1      12.942  13.504  -4.467  0.00  0.00     0.007 A 
ATOM      9  O   UNL d   1      12.778  11.784  -3.746  0.00  0.00    -0.284 OA
ATOM     10  C   UNL d   1      13.097  14.284  -4.672  0.00  0.00     0.025 A 
ATOM     11  C   UNL d   1      14.405  14.887  -3.028  0.00  0.00     0.004 C 
ENDROOT
BRANCH   1  12
ATOM     12  C   UNL d   1      13.772  11.780  -2.237  0.00  0.00     0.053 C 
BRANCH  12  13
ATOM     13  C   UNL d   1      14.107  11.895  -1.492  0.00  0.00     0.102 A 
ATOM     14  O   UNL d   1      14.911  12.033  -1.338  0.00  0.00    -0.305 OA
ATOM     15  C   UNL d   1      15.003  12.116  -0.523  0.00  0.00     0.123 A 
ATOM     16  C   UNL d   1      14.254  12.028  -0.173  0.00  0.00     0.029 A 
ATOM     17  C   UNL d   1      13.708  11.892  -0.776  0.00  0.00     0.027 A 
ENDBRANCH  12  13
ENDBRANCH   1  12
BRANCH   7  18
ATOM     18  O   UNL d   1      13.743  15.527  -4.393  0.00  0.00    -0.259 OA
BRANCH  18  19
ATOM     19  C   UNL d   1      13.534  15.817  -5.138  0.00  0.00     0.378 C 
ATOM     20  N   UNL d   1      14.010  16.387  -5.507  0.00  0.00    -0.249 N 
ATOM     21  C   UNL d   1      13.802  16.680  -6.255  0.00  0.00     0.104 C 
ATOM     22  C   UNL d   1      14.695  16.667  -5.131  0.00  0.00     0.104 C 
ATOM     23  O   UNL d   1      12.854  15.542  -5.515  0.00  0.00    -0.237 OA
ENDBRANCH  18  19
ENDBRANCH   7  18
TORSDOF 4
ENDMDL
MODEL 2
REMARK VINA RESULT:      44.1      1.687      4.408
REMARK  4 active torsions:
REMARK  status: ('A' for Active; 'I' for Inactive)
REMARK    1  A    between atoms: C_8  and  C_1 
REMARK    2  A    between atoms: C_6  and  O_10 
REMARK       I    between atoms: N_13  and  C_6 
REMARK    3  A    between atoms: C_11  and  C_8 
REMARK    4  A    between atoms: O_10  and  C_9 
ROOT
ATOM      1  C   UNL d   1      13.387  14.269  -4.398  0.00  0.00     0.141 A 
ATOM      2  C   UNL d   1      13.509  13.389  -3.390  0.00  0.00     0.105 A 
ATOM      3  O   UNL d   1      13.642  14.176  -3.611  0.00  0.00    -0.304 OA
ATOM      4  C   UNL d   1      13.171  12.989  -4.034  0.00  0.00     0.064 A 
ATOM      5  C   UNL d   1      13.094  13.526  -4.658  0.00  0.00     0.220 A 
ATOM      6  C   UNL d   1      13.652  12.988  -2.684  0.00  0.00     0.046 A 
ATOM      7  C   UNL d   1      13.459  12.189  -2.619  0.00  0.00     0.107 A 
ATOM      8  C   UNL d   1      12.981  12.193  -3.965  0.00  0.00     0.007 A 
ATOM      9  O   UNL d   1      12.784  13.367  -5.410  0.00  0.00    -0.284 OA
ATOM     10  C   UNL d   1      13.122  11.789  -3.263  0.00  0.00     0.025 A 
ATOM     11  C   UNL d   1      13.987  13.382  -2.041  0.00  0.00     0.004 C 
ENDROOT
BRANCH   1  12
ATOM     12  C   UNL d   1      13.416  14.963  -4.844  0.00  0.00     0.053 C 
BRANCH  12  13
ATOM     13  C   UNL d   1      14.031  15.501  -4.732  0.00  0.00     0.102 A 
ATOM     14  O   UNL d   1      14.113  16.016  -4.087  0.00  0.00    -0.305 OA
ATOM     15  C   UNL d   1      14.803  16.453  -4.197  0.00  0.00     0.123 A 
ATOM     16  C   UNL d   1      15.148  16.206  -4.912  0.00  0.00     0.029 A 
ATOM     17  C   UNL d   1      14.667  15.620  -5.236  0.00  0.00     0.027 A 
ENDBRANCH  12  13
ENDBRANCH   1  12
BRANCH   7  18
ATOM     18  O   UNL d   1      13.600  11.786  -1.917  0.00  0.00    -0.259 OA
BRANCH  18  19
ATOM     19  C   UNL d   1      14.344  11.815  -1.557  0.00  0.00     0.378 C 
ATOM     20  N   UNL d   1      14.401  11.811  -0.730  0.00  0.00    -0.249 N 
ATOM     21  C   UNL d   1      15.146  11.839  -0.366  0.00  0.00     0.104 C 
ATOM     22  C   UNL d   1      13.716  11.779  -0.263  0.00  0.00     0.104 C 
ATOM     23  O   UNL d   1      15.027  11.846  -2.018  0.00  0.00    -0.237 OA
ENDBRANCH  18  19
ENDBRANCH   7  18
TORSDOF 4
ENDMDL
