MODEL 1
REMARK VINA RESULT:      -2.8      0.000      0.000
REMARK  2 active torsions:
REMARK  status: ('A' for Active; 'I' for Inactive)
REMARK    1  A    between atoms: C_6  and  C_1 
REMARK    2  A    between atoms: C_7  and  C_4 
ROOT
ATOM      1  C   UNL d   1      32.709  23.079 -18.025  0.00  0.00     0.169 A 
ATOM      2  C   UNL d   1      32.412  23.644 -18.548  0.00  0.00     0.048 A 
ATOM      3  N   UNL d   1      33.194  22.311 -19.117  0.00  0.00    -0.148 NA
ATOM      4  C   UNL d   1      32.899  22.874 -19.644  0.00  0.00     0.105 A 
ATOM      5  N   UNL d   1      33.101  22.409 -18.301  0.00  0.00    -0.142 NA
ENDROOT
BRANCH   4   6
ATOM      6  C   UNL d   1      32.887  22.961 -20.465  0.00  0.00     0.019 A 
ATOM      7  C   UNL d   1      32.521  22.388 -20.929  0.00  0.00     0.002 A 
ATOM      8  C   UNL d   1      32.506  22.470 -21.744  0.00  0.00     0.000 A 
ATOM      9  C   UNL d   1      32.168  21.730 -20.571  0.00  0.00     0.000 C 
ATOM     10  C   UNL d   1      32.858  23.128 -22.103  0.00  0.00     0.000 A 
ATOM     11  C   UNL d   1      33.226  23.702 -21.634  0.00  0.00     0.000 A 
ATOM     12  C   UNL d   1      32.843  23.210 -22.923  0.00  0.00     0.000 C 
ATOM     13  C   UNL d   1      33.241  23.621 -20.820  0.00  0.00     0.002 A 
ENDBRANCH   4   6
BRANCH   1  14
ATOM     14  C   UNL d   1      32.612  23.186 -17.211  0.00  0.00     0.231 C 
ATOM     15  O   UNL d   1      32.030  23.700 -16.931  0.00  0.00    -0.643 OA
ATOM     16  O   UNL d   1      33.094  22.780 -16.681  0.00  0.00    -0.643 OA
ENDBRANCH   1  14
TORSDOF 2
ENDMDL
MODEL 2
REMARK VINA RESULT:      -2.6      7.305      8.242
REMARK  2 active torsions:
REMARK  status: ('A' for Active; 'I' for Inactive)
REMARK    1  A    between atoms: C_6  and  C_1 
REMARK    2  A    between atoms: C_7  and  C_4 
ROOT
ATOM      1  C   UNL d   1      29.246  16.063 -24.119  0.00  0.00     0.169 A 
ATOM      2  C   UNL d   1      29.332  16.876 -24.011  0.00  0.00     0.048 A 
ATOM      3  N   UNL d   1      30.620  15.955 -24.461  0.00  0.00    -0.148 NA
ATOM      4  C   UNL d   1      30.711  16.768 -24.354  0.00  0.00     0.105 A 
ATOM      5  N   UNL d   1      29.885  15.594 -24.344  0.00  0.00    -0.142 NA
ENDROOT
BRANCH   4   6
ATOM      6  C   UNL d   1      31.336  17.304 -24.417  0.00  0.00     0.019 A 
ATOM      7  C   UNL d   1      31.941  17.290 -23.860  0.00  0.00     0.002 A 
ATOM      8  C   UNL d   1      32.564  17.819 -23.918  0.00  0.00     0.000 A 
ATOM      9  C   UNL d   1      31.920  16.741 -23.241  0.00  0.00     0.000 C 
ATOM     10  C   UNL d   1      32.586  18.369 -24.538  0.00  0.00     0.000 A 
ATOM     11  C   UNL d   1      31.977  18.381 -25.097  0.00  0.00     0.000 A 
ATOM     12  C   UNL d   1      33.213  18.901 -24.596  0.00  0.00     0.000 C 
ATOM     13  C   UNL d   1      31.354  17.852 -25.039  0.00  0.00     0.002 A 
ENDBRANCH   4   6
BRANCH   1  14
ATOM     14  C   UNL d   1      28.507  15.711 -24.000  0.00  0.00     0.231 C 
ATOM     15  O   UNL d   1      28.066  15.453 -24.647  0.00  0.00    -0.643 OA
ATOM     16  O   UNL d   1      28.212  15.619 -23.237  0.00  0.00    -0.643 OA
ENDBRANCH   1  14
TORSDOF 2
ENDMDL
MODEL 3
REMARK VINA RESULT:      -2.5      7.164      8.312
REMARK  2 active torsions:
REMARK  status: ('A' for Active; 'I' for Inactive)
REMARK    1  A    between atoms: C_6  and  C_1 
REMARK    2  A    between atoms: C_7  and  C_4 
ROOT
ATOM      1  C   UNL d   1      32.092  17.466 -23.844  0.00  0.00     0.169 A 
ATOM      2  C   UNL d   1      31.372  17.792 -23.607  0.00  0.00     0.048 A 
ATOM      3  N   UNL d   1      31.448  16.235 -24.136  0.00  0.00    -0.148 NA
ATOM      4  C   UNL d   1      30.726  16.557 -23.900  0.00  0.00     0.105 A 
ATOM      5  N   UNL d   1      32.139  16.688 -24.110  0.00  0.00    -0.142 NA
ENDROOT
BRANCH   4   6
ATOM      6  C   UNL d   1      29.948  16.284 -23.852  0.00  0.00     0.019 A 
ATOM      7  C   UNL d   1      29.746  15.731 -23.276  0.00  0.00     0.002 A 
ATOM      8  C   UNL d   1      28.976  15.457 -23.224  0.00  0.00     0.000 A 
ATOM      9  C   UNL d   1      30.323  15.453 -22.751  0.00  0.00     0.000 C 
ATOM     10  C   UNL d   1      28.399  15.734 -23.749  0.00  0.00     0.000 A 
ATOM     11  C   UNL d   1      28.603  16.291 -24.326  0.00  0.00     0.000 A 
ATOM     12  C   UNL d   1      27.624  15.458 -23.696  0.00  0.00     0.000 C 
ATOM     13  C   UNL d   1      29.373  16.565 -24.379  0.00  0.00     0.002 A 
ENDBRANCH   4   6
BRANCH   1  14
ATOM     14  C   UNL d   1      32.778  17.927 -23.814  0.00  0.00     0.231 C 
ATOM     15  O   UNL d   1      33.239  18.022 -24.491  0.00  0.00    -0.643 OA
ATOM     16  O   UNL d   1      33.001  18.290 -23.109  0.00  0.00    -0.643 OA
ENDBRANCH   1  14
TORSDOF 2
ENDMDL
MODEL 4
REMARK VINA RESULT:      -2.3      2.800      3.577
REMARK  2 active torsions:
REMARK  status: ('A' for Active; 'I' for Inactive)
REMARK    1  A    between atoms: C_6  and  C_1 
REMARK    2  A    between atoms: C_7  and  C_4 
ROOT
ATOM      1  C   UNL d   1      32.431  22.342 -20.986  0.00  0.00     0.169 A 
ATOM      2  C   UNL d   1      32.117  21.596 -20.829  0.00  0.00     0.048 A 
ATOM      3  N   UNL d   1      33.192  21.806 -22.059  0.00  0.00    -0.148 NA
ATOM      4  C   UNL d   1      32.881  21.058 -21.905  0.00  0.00     0.105 A 
ATOM      5  N   UNL d   1      32.969  22.457 -21.599  0.00  0.00    -0.142 NA
ENDROOT
BRANCH   4   6
ATOM      6  C   UNL d   1      32.971  20.305 -22.234  0.00  0.00     0.019 A 
ATOM      7  C   UNL d   1      33.151  19.667 -21.746  0.00  0.00     0.002 A 
ATOM      8  C   UNL d   1      33.240  18.919 -22.066  0.00  0.00     0.000 A 
ATOM      9  C   UNL d   1      33.241  19.783 -20.931  0.00  0.00     0.000 C 
ATOM     10  C   UNL d   1      33.151  18.802 -22.882  0.00  0.00     0.000 A 
ATOM     11  C   UNL d   1      32.970  19.445 -23.370  0.00  0.00     0.000 A 
ATOM     12  C   UNL d   1      33.241  18.049 -23.204  0.00  0.00     0.000 C 
ATOM     13  C   UNL d   1      32.880  20.193 -23.050  0.00  0.00     0.002 A 
ENDBRANCH   4   6
BRANCH   1  14
ATOM     14  C   UNL d   1      32.202  22.987 -20.522  0.00  0.00     0.231 C 
ATOM     15  O   UNL d   1      31.541  23.433 -20.735  0.00  0.00    -0.643 OA
ATOM     16  O   UNL d   1      32.632  23.184 -19.848  0.00  0.00    -0.643 OA
ENDBRANCH   1  14
TORSDOF 2
ENDMDL
MODEL 5
REMARK VINA RESULT:      -2.3      5.436      6.463
REMARK  2 active torsions:
REMARK  status: ('A' for Active; 'I' for Inactive)
REMARK    1  A    between atoms: C_6  and  C_1 
REMARK    2  A    between atoms: C_7  and  C_4 
ROOT
ATOM      1  C   UNL d   1      32.187  17.078 -23.801  0.00  0.00     0.169 A 
ATOM      2  C   UNL d   1      31.752  17.777 -23.845  0.00  0.00     0.048 A 
ATOM      3  N   UNL d   1      33.217  17.754 -23.095  0.00  0.00    -0.148 NA
ATOM      4  C   UNL d   1      32.785  18.456 -23.137  0.00  0.00     0.105 A 
ATOM      5  N   UNL d   1      32.921  17.057 -23.427  0.00  0.00    -0.142 NA
ENDROOT
BRANCH   4   6
ATOM      6  C   UNL d   1      32.898  19.232 -22.879  0.00  0.00     0.019 A 
ATOM      7  C   UNL d   1      33.109  19.815 -23.421  0.00  0.00     0.002 A 
ATOM      8  C   UNL d   1      33.222  20.586 -23.170  0.00  0.00     0.000 A 
ATOM      9  C   UNL d   1      33.205  19.620 -24.219  0.00  0.00     0.000 C 
ATOM     10  C   UNL d   1      33.125  20.782 -22.371  0.00  0.00     0.000 A 
ATOM     11  C   UNL d   1      32.914  20.195 -21.827  0.00  0.00     0.000 A 
ATOM     12  C   UNL d   1      33.239  21.559 -22.118  0.00  0.00     0.000 C 
ATOM     13  C   UNL d   1      32.801  19.424 -22.078  0.00  0.00     0.002 A 
ENDBRANCH   4   6
BRANCH   1  14
ATOM     14  C   UNL d   1      31.883  16.386 -24.136  0.00  0.00     0.231 C 
ATOM     15  O   UNL d   1      31.275  15.978 -23.755  0.00  0.00    -0.643 OA
ATOM     16  O   UNL d   1      32.185  16.105 -24.848  0.00  0.00    -0.643 OA
ENDBRANCH   1  14
TORSDOF 2
ENDMDL
MODEL 6
REMARK VINA RESULT:      -2.2      4.002      5.060
REMARK  2 active torsions:
REMARK  status: ('A' for Active; 'I' for Inactive)
REMARK    1  A    between atoms: C_6  and  C_1 
REMARK    2  A    between atoms: C_7  and  C_4 
ROOT
ATOM      1  C   UNL d   1      32.762  18.792 -23.102  0.00  0.00     0.169 A 
ATOM      2  C   UNL d   1      32.335  19.474 -23.280  0.00  0.00     0.048 A 
ATOM      3  N   UNL d   1      33.236  19.390 -21.904  0.00  0.00    -0.148 NA
ATOM      4  C   UNL d   1      32.809  20.075 -22.078  0.00  0.00     0.105 A 
ATOM      5  N   UNL d   1      33.216  18.741 -22.416  0.00  0.00    -0.142 NA
ENDROOT
BRANCH   4   6
ATOM      6  C   UNL d   1      32.699  20.807 -21.713  0.00  0.00     0.019 A 
ATOM      7  C   UNL d   1      32.884  21.497 -22.122  0.00  0.00     0.002 A 
ATOM      8  C   UNL d   1      32.776  22.226 -21.764  0.00  0.00     0.000 A 
ATOM      9  C   UNL d   1      33.178  21.453 -22.894  0.00  0.00     0.000 C 
ATOM     10  C   UNL d   1      32.481  22.271 -20.991  0.00  0.00     0.000 A 
ATOM     11  C   UNL d   1      32.296  21.576 -20.582  0.00  0.00     0.000 A 
ATOM     12  C   UNL d   1      32.373  23.005 -20.631  0.00  0.00     0.000 C 
ATOM     13  C   UNL d   1      32.404  20.848 -20.939  0.00  0.00     0.002 A 
ENDBRANCH   4   6
BRANCH   1  14
ATOM     14  C   UNL d   1      32.736  18.147 -23.620  0.00  0.00     0.231 C 
ATOM     15  O   UNL d   1      33.236  18.127 -24.276  0.00  0.00    -0.643 OA
ATOM     16  O   UNL d   1      32.213  17.527 -23.481  0.00  0.00    -0.643 OA
ENDBRANCH   1  14
TORSDOF 2
ENDMDL
MODEL 7
REMARK VINA RESULT:      -2.0      3.266      4.087
REMARK  2 active torsions:
REMARK  status: ('A' for Active; 'I' for Inactive)
REMARK    1  A    between atoms: C_6  and  C_1 
REMARK    2  A    between atoms: C_7  and  C_4 
ROOT
ATOM      1  C   UNL d   1      32.624  21.453 -21.033  0.00  0.00     0.169 A 
ATOM      2  C   UNL d   1      32.382  21.393 -21.819  0.00  0.00     0.048 A 
ATOM      3  N   UNL d   1      33.197  20.156 -21.101  0.00  0.00    -0.148 NA
ATOM      4  C   UNL d   1      32.958  20.092 -21.888  0.00  0.00     0.105 A 
ATOM      5  N   UNL d   1      33.032  20.839 -20.665  0.00  0.00    -0.142 NA
ENDROOT
BRANCH   4   6
ATOM      6  C   UNL d   1      33.021  19.516 -22.477  0.00  0.00     0.019 A 
ATOM      7  C   UNL d   1      33.163  19.744 -23.255  0.00  0.00     0.002 A 
ATOM      8  C   UNL d   1      33.227  19.177 -23.843  0.00  0.00     0.000 A 
ATOM      9  C   UNL d   1      33.241  20.547 -23.442  0.00  0.00     0.000 C 
ATOM     10  C   UNL d   1      33.149  18.374 -23.656  0.00  0.00     0.000 A 
ATOM     11  C   UNL d   1      33.006  18.146 -22.873  0.00  0.00     0.000 A 
ATOM     12  C   UNL d   1      33.213  17.803 -24.248  0.00  0.00     0.000 C 
ATOM     13  C   UNL d   1      32.942  18.713 -22.286  0.00  0.00     0.002 A 
ENDBRANCH   4   6
BRANCH   1  14
ATOM     14  C   UNL d   1      32.454  22.140 -20.605  0.00  0.00     0.231 C 
ATOM     15  O   UNL d   1      31.710  22.492 -20.671  0.00  0.00    -0.643 OA
ATOM     16  O   UNL d   1      33.025  22.473 -20.114  0.00  0.00    -0.643 OA
ENDBRANCH   1  14
TORSDOF 2
ENDMDL
MODEL 8
REMARK VINA RESULT:      -2.0      7.697      8.670
REMARK  2 active torsions:
REMARK  status: ('A' for Active; 'I' for Inactive)
REMARK    1  A    between atoms: C_6  and  C_1 
REMARK    2  A    between atoms: C_7  and  C_4 
ROOT
ATOM      1  C   UNL d   1      28.591  16.396 -23.619  0.00  0.00     0.169 A 
ATOM      2  C   UNL d   1      29.141  15.804 -23.453  0.00  0.00     0.048 A 
ATOM      3  N   UNL d   1      29.548  17.072 -24.421  0.00  0.00    -0.148 NA
ATOM      4  C   UNL d   1      30.102  16.483 -24.257  0.00  0.00     0.105 A 
ATOM      5  N   UNL d   1      28.786  17.034 -24.103  0.00  0.00    -0.142 NA
ENDROOT
BRANCH   4   6
ATOM      6  C   UNL d   1      30.887  16.339 -24.468  0.00  0.00     0.019 A 
ATOM      7  C   UNL d   1      31.449  16.932 -24.372  0.00  0.00     0.002 A 
ATOM      8  C   UNL d   1      32.229  16.794 -24.580  0.00  0.00     0.000 A 
ATOM      9  C   UNL d   1      31.225  17.668 -24.066  0.00  0.00     0.000 C 
ATOM     10  C   UNL d   1      32.455  16.059 -24.886  0.00  0.00     0.000 A 
ATOM     11  C   UNL d   1      31.888  15.463 -24.982  0.00  0.00     0.000 A 
ATOM     12  C   UNL d   1      33.241  15.920 -25.095  0.00  0.00     0.000 C 
ATOM     13  C   UNL d   1      31.108  15.601 -24.775  0.00  0.00     0.002 A 
ENDBRANCH   4   6
BRANCH   1  14
ATOM     14  C   UNL d   1      27.831  16.349 -23.296  0.00  0.00     0.231 C 
ATOM     15  O   UNL d   1      27.553  16.955 -22.810  0.00  0.00    -0.643 OA
ATOM     16  O   UNL d   1      27.353  15.699 -23.459  0.00  0.00    -0.643 OA
ENDBRANCH   1  14
TORSDOF 2
ENDMDL
MODEL 9
REMARK VINA RESULT:      -1.4      5.596      6.554
REMARK  2 active torsions:
REMARK  status: ('A' for Active; 'I' for Inactive)
REMARK    1  A    between atoms: C_6  and  C_1 
REMARK    2  A    between atoms: C_7  and  C_4 
ROOT
ATOM      1  C   UNL d   1      32.693  19.381 -22.556  0.00  0.00     0.169 A 
ATOM      2  C   UNL d   1      31.979  19.300 -22.962  0.00  0.00     0.048 A 
ATOM      3  N   UNL d   1      33.061  18.060 -22.924  0.00  0.00    -0.148 NA
ATOM      4  C   UNL d   1      32.348  17.974 -23.331  0.00  0.00     0.105 A 
ATOM      5  N   UNL d   1      33.240  18.766 -22.532  0.00  0.00    -0.142 NA
ENDROOT
BRANCH   4   6
ATOM      6  C   UNL d   1      31.990  17.374 -23.771  0.00  0.00     0.019 A 
ATOM      7  C   UNL d   1      32.394  17.039 -24.405  0.00  0.00     0.002 A 
ATOM      8  C   UNL d   1      32.044  16.443 -24.844  0.00  0.00     0.000 A 
ATOM      9  C   UNL d   1      33.154  17.304 -24.597  0.00  0.00     0.000 C 
ATOM     10  C   UNL d   1      31.283  16.176 -24.653  0.00  0.00     0.000 A 
ATOM     11  C   UNL d   1      30.879  16.515 -24.015  0.00  0.00     0.000 A 
ATOM     12  C   UNL d   1      30.931  15.577 -25.095  0.00  0.00     0.000 C 
ATOM     13  C   UNL d   1      31.229  17.111 -23.575  0.00  0.00     0.002 A 
ENDBRANCH   4   6
BRANCH   1  14
ATOM     14  C   UNL d   1      32.864  20.091 -22.168  0.00  0.00     0.231 C 
ATOM     15  O   UNL d   1      33.241  20.702 -22.574  0.00  0.00    -0.643 OA
ATOM     16  O   UNL d   1      32.657  20.188 -21.377  0.00  0.00    -0.643 OA
ENDBRANCH   1  14
TORSDOF 2
ENDMDL
