MODEL 1
REMARK VINA RESULT:      -0.4      0.000      0.000
REMARK  5 active torsions:
REMARK  status: ('A' for Active; 'I' for Inactive)
REMARK    1  A    between atoms: C_10  and  N_3 
REMARK    2  A    between atoms: C_11  and  N_8 
REMARK    3  A    between atoms: C_14  and  C_10 
REMARK    4  A    between atoms: C_19  and  C_11 
REMARK    5  A    between atoms: C_20  and  C_19 
ROOT
ATOM      1  C   UNL d   1     -41.273-121.600 -52.068  0.00  0.00     0.174 A 
ATOM      2  C   UNL d   1     -41.330-122.376 -51.733  0.00  0.00     0.158 A 
ATOM      3  N   UNL d   1     -41.252-122.950 -53.047  0.00  0.00    -0.219 N 
ATOM      4  N   UNL d   1     -41.299-121.075 -51.463  0.00  0.00    -0.203 NA
ATOM      5  N   UNL d   1     -41.208-121.522 -52.886  0.00  0.00    -0.240 N 
ATOM      6  C   UNL d   1     -41.195-122.174 -53.382  0.00  0.00     0.343 A 
ATOM      7  C   UNL d   1     -41.319-123.055 -52.223  0.00  0.00     0.287 A 
ATOM      8  N   UNL d   1     -41.389-122.314 -50.927  0.00  0.00    -0.279 N 
ATOM      9  C   UNL d   1     -41.371-121.513 -50.749  0.00  0.00     0.185 A 
ATOM     10  O   UNL d   1     -41.128-122.077 -54.214  0.00  0.00    -0.245 OA
ATOM     11  O   UNL d   1     -41.374-123.817 -51.894  0.00  0.00    -0.265 OA
ATOM     12 BR   UNL d   1     -41.421-121.230 -49.949  0.00  0.00    -0.008 Br
ATOM     13  C   UNL d   1     -41.151-120.740 -53.224  0.00  0.00     0.105 C 
ENDROOT
BRANCH   8  14
ATOM     14  C   UNL d   1     -41.458-122.926 -50.338  0.00  0.00     0.082 C 
BRANCH  14  15
ATOM     15  C   UNL d   1     -41.901-122.855 -49.649  0.00  0.00     0.019 C 
BRANCH  15  16
ATOM     16  C   UNL d   1     -42.095-123.490 -49.185  0.00  0.00     0.002 C 
ATOM     17  C   UNL d   1     -41.551-123.816 -48.672  0.00  0.00     0.000 C 
ATOM     18  C   UNL d   1     -42.868-123.801 -49.245  0.00  0.00     0.000 C 
ENDBRANCH  15  16
ENDBRANCH  14  15
ENDBRANCH   8  14
BRANCH   3  19
ATOM     19  C   UNL d   1     -41.240-123.631 -53.542  0.00  0.00     0.151 C 
BRANCH  19  20
ATOM     20  C   UNL d   1     -41.748-123.685 -54.183  0.00  0.00     0.315 C 
ATOM     21  O   UNL d   1     -42.567-123.692 -54.074  0.00  0.00    -0.262 OA
ATOM     22  N   UNL d   1     -41.430-123.732 -54.940  0.00  0.00    -0.101 N 
ENDBRANCH  19  20
ENDBRANCH   3  19
TORSDOF 5
ENDMDL
MODEL 2
REMARK VINA RESULT:      -0.1      1.445      3.704
REMARK  5 active torsions:
REMARK  status: ('A' for Active; 'I' for Inactive)
REMARK    1  A    between atoms: C_10  and  N_3 
REMARK    2  A    between atoms: C_11  and  N_8 
REMARK    3  A    between atoms: C_14  and  C_10 
REMARK    4  A    between atoms: C_19  and  C_11 
REMARK    5  A    between atoms: C_20  and  C_19 
ROOT
ATOM      1  C   UNL d   1     -41.338-121.616 -51.822  0.00  0.00     0.174 A 
ATOM      2  C   UNL d   1     -41.423-122.375 -52.191  0.00  0.00     0.158 A 
ATOM      3  N   UNL d   1     -41.382-123.006 -50.902  0.00  0.00    -0.219 N 
ATOM      4  N   UNL d   1     -41.336-121.066 -52.405  0.00  0.00    -0.203 NA
ATOM      5  N   UNL d   1     -41.278-121.576 -51.001  0.00  0.00    -0.240 N 
ATOM      6  C   UNL d   1     -41.298-122.247 -50.533  0.00  0.00     0.343 A 
ATOM      7  C   UNL d   1     -41.445-123.074 -51.729  0.00  0.00     0.287 A 
ATOM      8  N   UNL d   1     -41.471-122.276 -52.993  0.00  0.00    -0.279 N 
ATOM      9  C   UNL d   1     -41.419-121.470 -53.137  0.00  0.00     0.185 A 
ATOM     10  O   UNL d   1     -41.235-122.189 -49.697  0.00  0.00    -0.245 OA
ATOM     11  O   UNL d   1     -41.528-123.817 -52.091  0.00  0.00    -0.265 OA
ATOM     12 BR   UNL d   1     -41.449-121.151 -53.925  0.00  0.00    -0.008 Br
ATOM     13  C   UNL d   1     -41.193-120.812 -50.630  0.00  0.00     0.105 C 
ENDROOT
BRANCH   8  14
ATOM     14  C   UNL d   1     -41.559-122.859 -53.609  0.00  0.00     0.082 C 
BRANCH  14  15
ATOM     15  C   UNL d   1     -41.681-122.679 -54.401  0.00  0.00     0.019 C 
BRANCH  15  16
ATOM     16  C   UNL d   1     -41.773-123.247 -54.971  0.00  0.00     0.002 C 
ATOM     17  C   UNL d   1     -42.445-123.273 -55.433  0.00  0.00     0.000 C 
ATOM     18  C   UNL d   1     -41.160-123.805 -55.075  0.00  0.00     0.000 C 
ENDBRANCH  15  16
ENDBRANCH  14  15
ENDBRANCH   8  14
BRANCH   3  19
ATOM     19  C   UNL d   1     -41.404-123.707 -50.436  0.00  0.00     0.151 C 
BRANCH  19  20
ATOM     20  C   UNL d   1     -41.944-123.780 -49.824  0.00  0.00     0.315 C 
ATOM     21  O   UNL d   1     -42.755-123.817 -49.978  0.00  0.00    -0.262 OA
ATOM     22  N   UNL d   1     -41.667-123.816 -49.050  0.00  0.00    -0.101 N 
ENDBRANCH  19  20
ENDBRANCH   3  19
TORSDOF 5
ENDMDL
