MODEL 1
REMARK VINA RESULT:      56.1      0.000      0.000
REMARK  4 active torsions:
REMARK  status: ('A' for Active; 'I' for Inactive)
REMARK    1  A    between atoms: S_4  and  C_1 
REMARK    2  A    between atoms: N_7  and  C_3 
REMARK    3  A    between atoms: C_11  and  S_4 
REMARK    4  A    between atoms: C_8  and  C_6 
ROOT
ATOM      1  C   UNL d   1     -57.952 -99.077 -45.179  0.00  0.00     0.210 A 
ATOM      2  N   UNL d   1     -58.100 -99.077 -45.986  0.00  0.00    -0.205 NA
ATOM      3  C   UNL d   1     -58.666 -98.946 -44.786  0.00  0.00     0.199 A 
ATOM      4  O   UNL d   1     -59.253 -98.866 -45.357  0.00  0.00    -0.268 OA
ATOM      5  C   UNL d   1     -58.906 -98.946 -46.095  0.00  0.00     0.208 A 
ENDROOT
BRANCH   1   6
ATOM      6  S   UNL d   1     -57.188 -99.196 -44.893  0.00  0.00     0.230 S 
ATOM      7  O   UNL d   1     -57.044 -99.748 -44.302  0.00  0.00    -0.215 OA
ATOM      8  O   UNL d   1     -56.558 -98.755 -45.205  0.00  0.00    -0.215 OA
BRANCH   6   9
ATOM      9  C   UNL d   1     -56.422 -99.309 -44.613  0.00  0.00     0.090 A 
ATOM     10  C   UNL d   1     -55.840 -98.757 -44.788  0.00  0.00     0.011 A 
ATOM     11  C   UNL d   1     -55.066 -98.862 -44.510  0.00  0.00     0.001 A 
ATOM     12  C   UNL d   1     -54.882 -99.528 -44.055  0.00  0.00     0.000 A 
ATOM     13  C   UNL d   1     -55.470-100.085 -43.879  0.00  0.00     0.001 A 
ATOM     14  C   UNL d   1     -56.239 -99.975 -44.159  0.00  0.00     0.011 A 
ENDBRANCH   6   9
ENDBRANCH   1   6
BRANCH   3  15
ATOM     15  N   UNL d   1     -58.773 -98.904 -43.969  0.00  0.00    -0.283 N 
ATOM     16  C   UNL d   1     -58.185 -98.823 -43.565  0.00  0.00     0.082 A 
ATOM     17  C   UNL d   1     -58.036 -98.755 -42.722  0.00  0.00     0.019 A 
ATOM     18  C   UNL d   1     -58.470 -98.757 -42.130  0.00  0.00     0.002 A 
ATOM     19  C   UNL d   1     -59.307 -98.835 -42.128  0.00  0.00     0.002 A 
ATOM     20  C   UNL d   1     -59.811 -98.928 -42.851  0.00  0.00     0.019 A 
ATOM     21  C   UNL d   1     -59.560 -98.959 -43.691  0.00  0.00     0.082 A 
ENDBRANCH   3  15
BRANCH   5  22
ATOM     22  C   UNL d   1     -59.054 -98.945 -46.899  0.00  0.00     0.141 A 
ATOM     23  O   UNL d   1     -58.738 -98.757 -47.632  0.00  0.00    -0.302 OA
ATOM     24  C   UNL d   1     -59.294 -98.945 -48.209  0.00  0.00     0.123 A 
ATOM     25  C   UNL d   1     -59.957 -99.252 -47.825  0.00  0.00     0.029 A 
ATOM     26  C   UNL d   1     -59.809 -99.252 -47.018  0.00  0.00     0.030 A 
ENDBRANCH   5  22
TORSDOF 4
ENDMDL
MODEL 2
REMARK VINA RESULT:      57.8      0.933      2.794
REMARK  4 active torsions:
REMARK  status: ('A' for Active; 'I' for Inactive)
REMARK    1  A    between atoms: S_4  and  C_1 
REMARK    2  A    between atoms: N_7  and  C_3 
REMARK    3  A    between atoms: C_11  and  S_4 
REMARK    4  A    between atoms: C_8  and  C_6 
ROOT
ATOM      1  C   UNL d   1     -58.408 -98.814 -45.161  0.00  0.00     0.210 A 
ATOM      2  N   UNL d   1     -58.953 -98.821 -45.775  0.00  0.00    -0.205 NA
ATOM      3  C   UNL d   1     -57.651 -98.798 -45.489  0.00  0.00     0.199 A 
ATOM      4  O   UNL d   1     -57.735 -98.796 -46.307  0.00  0.00    -0.268 OA
ATOM      5  C   UNL d   1     -58.535 -98.810 -46.484  0.00  0.00     0.208 A 
ENDROOT
BRANCH   1   6
ATOM      6  S   UNL d   1     -58.661 -98.822 -44.376  0.00  0.00     0.230 S 
ATOM      7  O   UNL d   1     -59.461 -98.792 -44.195  0.00  0.00    -0.215 OA
ATOM      8  O   UNL d   1     -58.103 -98.860 -43.763  0.00  0.00    -0.215 OA
BRANCH   6   9
ATOM      9  C   UNL d   1     -58.906 -98.830 -43.590  0.00  0.00     0.090 A 
ATOM     10  C   UNL d   1     -59.704 -98.758 -43.412  0.00  0.00     0.011 A 
ATOM     11  C   UNL d   1     -59.960 -98.765 -42.623  0.00  0.00     0.001 A 
ATOM     12  C   UNL d   1     -59.405 -98.846 -42.015  0.00  0.00     0.000 A 
ATOM     13  C   UNL d   1     -58.599 -98.919 -42.195  0.00  0.00     0.001 A 
ATOM     14  C   UNL d   1     -58.351 -98.911 -42.983  0.00  0.00     0.011 A 
ENDBRANCH   6   9
ENDBRANCH   1   6
BRANCH   3  15
ATOM     15  N   UNL d   1     -56.939 -98.787 -45.073  0.00  0.00    -0.283 N 
ATOM     16  C   UNL d   1     -56.334 -98.778 -45.459  0.00  0.00     0.082 A 
ATOM     17  C   UNL d   1     -55.496 -98.764 -45.271  0.00  0.00     0.019 A 
ATOM     18  C   UNL d   1     -55.120 -98.758 -44.640  0.00  0.00     0.002 A 
ATOM     19  C   UNL d   1     -55.448 -98.763 -43.866  0.00  0.00     0.002 A 
ATOM     20  C   UNL d   1     -56.314 -98.777 -43.681  0.00  0.00     0.019 A 
ATOM     21  C   UNL d   1     -56.992 -98.788 -44.239  0.00  0.00     0.082 A 
ENDBRANCH   3  15
BRANCH   5  22
ATOM     22  C   UNL d   1     -59.077 -98.817 -47.095  0.00  0.00     0.141 A 
ATOM     23  O   UNL d   1     -59.876 -98.863 -47.274  0.00  0.00    -0.302 OA
ATOM     24  C   UNL d   1     -59.961 -98.829 -48.092  0.00  0.00     0.123 A 
ATOM     25  C   UNL d   1     -59.205 -98.763 -48.418  0.00  0.00     0.029 A 
ATOM     26  C   UNL d   1     -58.660 -98.755 -47.804  0.00  0.00     0.030 A 
ENDBRANCH   5  22
TORSDOF 4
ENDMDL
