MODEL 1
REMARK VINA RESULT:      -1.3      0.000      0.000
REMARK  9 active torsions:
REMARK  status: ('A' for Active; 'I' for Inactive)
REMARK    1  A    between atoms: C_9  and  C_1 
REMARK    2  A    between atoms: N_8  and  C_2 
REMARK    3  A    between atoms: C_10  and  C_4 
REMARK    4  A    between atoms: C_6  and  N_7 
REMARK    5  A    between atoms: N_7  and  N_8 
REMARK    6  A    between atoms: O_18  and  C_9 
REMARK    7  A    between atoms: O_19  and  C_10 
REMARK    8  A    between atoms: C_23  and  O_18 
REMARK    9  A    between atoms: C_24  and  O_19 
ROOT
ATOM      1  C   UNL d   1      33.013  20.339 -23.148  0.00  0.00     0.090 A 
ATOM      2  C   UNL d   1      32.866  19.587 -22.914  0.00  0.00     0.138 A 
ATOM      3  C   UNL d   1      33.036  20.796 -22.492  0.00  0.00     0.018 A 
ATOM      4  C   UNL d   1      32.912  20.384 -21.845  0.00  0.00     0.095 A 
ATOM      5  S   UNL d   1      32.799  19.604 -22.069  0.00  0.00    -0.061 SA
ATOM      6  C   UNL d   1      33.180  21.659 -22.469  0.00  0.00     0.001 C 
ENDROOT
BRANCH   2   7
ATOM      7  N   UNL d   1      32.807  18.971 -23.459  0.00  0.00    -0.141 NA
BRANCH   7   8
ATOM      8  N   UNL d   1      32.246  18.345 -23.374  0.00  0.00    -0.141 NA
BRANCH   8   9
ATOM      9  C   UNL d   1      32.339  17.623 -23.822  0.00  0.00     0.180 A 
ATOM     10  C   UNL d   1      32.608  16.938 -23.397  0.00  0.00     0.218 A 
ATOM     11  O   UNL d   1      32.762  17.011 -22.591  0.00  0.00    -0.285 OA
ATOM     12  C   UNL d   1      32.707  16.226 -23.803  0.00  0.00     0.044 A 
ATOM     13  C   UNL d   1      32.553  16.154 -24.610  0.00  0.00     0.007 A 
ATOM     14  C   UNL d   1      32.285  16.824 -25.047  0.00  0.00     0.044 A 
ATOM     15  C   UNL d   1      32.177  17.565 -24.647  0.00  0.00     0.218 A 
ATOM     16  O   UNL d   1      31.922  18.199 -25.070  0.00  0.00    -0.285 OA
ENDBRANCH   8   9
ENDBRANCH   7   8
ENDBRANCH   2   7
BRANCH   1  17
ATOM     17  C   UNL d   1      33.121  20.587 -23.945  0.00  0.00     0.302 C 
ATOM     18  O   UNL d   1      33.239  20.028 -24.556  0.00  0.00    -0.259 OA
BRANCH  17  19
ATOM     19  O   UNL d   1      33.110  21.420 -24.126  0.00  0.00    -0.271 OA
BRANCH  19  20
ATOM     20  C   UNL d   1      32.775  21.685 -24.833  0.00  0.00     0.126 C 
ATOM     21  C   UNL d   1      32.873  22.475 -25.043  0.00  0.00     0.029 C 
ENDBRANCH  19  20
ENDBRANCH  17  19
ENDBRANCH   1  17
BRANCH   4  22
ATOM     22  C   UNL d   1      32.900  20.697 -21.064  0.00  0.00     0.306 C 
ATOM     23  O   UNL d   1      33.237  20.296 -20.456  0.00  0.00    -0.258 OA
BRANCH  22  24
ATOM     24  O   UNL d   1      32.528  21.423 -20.967  0.00  0.00    -0.271 OA
BRANCH  24  25
ATOM     25  C   UNL d   1      32.617  21.825 -20.225  0.00  0.00     0.126 C 
ATOM     26  C   UNL d   1      32.218  22.515 -20.104  0.00  0.00     0.029 C 
ENDBRANCH  24  25
ENDBRANCH  22  24
ENDBRANCH   4  22
TORSDOF 9
ENDMDL
MODEL 2
REMARK VINA RESULT:      -1.1      2.851      4.982
REMARK  9 active torsions:
REMARK  status: ('A' for Active; 'I' for Inactive)
REMARK    1  A    between atoms: C_9  and  C_1 
REMARK    2  A    between atoms: N_8  and  C_2 
REMARK    3  A    between atoms: C_10  and  C_4 
REMARK    4  A    between atoms: C_6  and  N_7 
REMARK    5  A    between atoms: N_7  and  N_8 
REMARK    6  A    between atoms: O_18  and  C_9 
REMARK    7  A    between atoms: O_19  and  C_10 
REMARK    8  A    between atoms: C_23  and  O_18 
REMARK    9  A    between atoms: C_24  and  O_19 
ROOT
ATOM      1  C   UNL d   1      31.148  16.471 -23.788  0.00  0.00     0.090 A 
ATOM      2  C   UNL d   1      31.004  17.145 -24.196  0.00  0.00     0.138 A 
ATOM      3  C   UNL d   1      30.443  16.182 -23.543  0.00  0.00     0.018 A 
ATOM      4  C   UNL d   1      29.850  16.629 -23.769  0.00  0.00     0.095 A 
ATOM      5  S   UNL d   1      30.164  17.258 -24.191  0.00  0.00    -0.061 SA
ATOM      6  C   UNL d   1      30.320  15.453 -23.076  0.00  0.00     0.001 C 
ENDROOT
BRANCH   2   7
ATOM      7  N   UNL d   1      31.617  17.586 -24.528  0.00  0.00    -0.141 NA
BRANCH   7   8
ATOM      8  N   UNL d   1      31.479  18.194 -25.097  0.00  0.00    -0.141 NA
BRANCH   8   9
ATOM      9  C   UNL d   1      31.963  18.900 -25.097  0.00  0.00     0.180 A 
ATOM     10  C   UNL d   1      31.555  19.645 -25.097  0.00  0.00     0.218 A 
ATOM     11  O   UNL d   1      30.731  19.644 -25.097  0.00  0.00    -0.285 OA
ATOM     12  C   UNL d   1      31.996  20.343 -25.097  0.00  0.00     0.044 A 
ATOM     13  C   UNL d   1      32.820  20.344 -25.097  0.00  0.00     0.007 A 
ATOM     14  C   UNL d   1      33.241  19.612 -25.097  0.00  0.00     0.044 A 
ATOM     15  C   UNL d   1      32.805  18.884 -25.097  0.00  0.00     0.218 A 
ATOM     16  O   UNL d   1      33.212  18.190 -25.097  0.00  0.00    -0.285 OA
ENDBRANCH   8   9
ENDBRANCH   7   8
ENDBRANCH   2   7
BRANCH   1  17
ATOM     17  C   UNL d   1      31.909  16.140 -23.650  0.00  0.00     0.302 C 
ATOM     18  O   UNL d   1      32.317  15.735 -24.257  0.00  0.00    -0.259 OA
BRANCH  17  19
ATOM     19  O   UNL d   1      32.265  16.222 -22.879  0.00  0.00    -0.271 OA
BRANCH  19  20
ATOM     20  C   UNL d   1      32.880  15.721 -22.652  0.00  0.00     0.126 C 
ATOM     21  C   UNL d   1      33.239  15.844 -21.921  0.00  0.00     0.029 C 
ENDBRANCH  19  20
ENDBRANCH  17  19
ENDBRANCH   1  17
BRANCH   4  22
ATOM     22  C   UNL d   1      29.038  16.482 -23.604  0.00  0.00     0.306 C 
ATOM     23  O   UNL d   1      28.711  15.765 -23.758  0.00  0.00    -0.258 OA
BRANCH  22  24
ATOM     24  O   UNL d   1      28.613  17.105 -23.280  0.00  0.00    -0.271 OA
BRANCH  24  25
ATOM     25  C   UNL d   1      27.787  17.169 -23.466  0.00  0.00     0.126 C 
ATOM     26  C   UNL d   1      27.379  17.817 -23.219  0.00  0.00     0.029 C 
ENDBRANCH  24  25
ENDBRANCH  22  24
ENDBRANCH   4  22
TORSDOF 9
ENDMDL
MODEL 3
REMARK VINA RESULT:      -0.3      1.528      2.159
REMARK  9 active torsions:
REMARK  status: ('A' for Active; 'I' for Inactive)
REMARK    1  A    between atoms: C_9  and  C_1 
REMARK    2  A    between atoms: N_8  and  C_2 
REMARK    3  A    between atoms: C_10  and  C_4 
REMARK    4  A    between atoms: C_6  and  N_7 
REMARK    5  A    between atoms: N_7  and  N_8 
REMARK    6  A    between atoms: O_18  and  C_9 
REMARK    7  A    between atoms: O_19  and  C_10 
REMARK    8  A    between atoms: C_23  and  O_18 
REMARK    9  A    between atoms: C_24  and  O_19 
ROOT
ATOM      1  C   UNL d   1      33.043  22.259 -22.306  0.00  0.00     0.090 A 
ATOM      2  C   UNL d   1      33.144  21.531 -21.987  0.00  0.00     0.138 A 
ATOM      3  C   UNL d   1      32.999  22.783 -21.703  0.00  0.00     0.018 A 
ATOM      4  C   UNL d   1      33.065  22.437 -21.010  0.00  0.00     0.095 A 
ATOM      5  S   UNL d   1      33.159  21.634 -21.145  0.00  0.00    -0.061 SA
ATOM      6  C   UNL d   1      32.890  23.648 -21.778  0.00  0.00     0.001 C 
ENDROOT
BRANCH   2   7
ATOM      7  N   UNL d   1      33.210  20.860 -22.460  0.00  0.00    -0.141 NA
BRANCH   7   8
ATOM      8  N   UNL d   1      32.599  20.279 -22.509  0.00  0.00    -0.141 NA
BRANCH   8   9
ATOM      9  C   UNL d   1      32.780  19.487 -22.777  0.00  0.00     0.180 A 
ATOM     10  C   UNL d   1      33.057  18.937 -22.192  0.00  0.00     0.218 A 
ATOM     11  O   UNL d   1      33.133  19.195 -21.413  0.00  0.00    -0.285 OA
ATOM     12  C   UNL d   1      33.240  18.165 -22.421  0.00  0.00     0.044 A 
ATOM     13  C   UNL d   1      33.164  17.907 -23.200  0.00  0.00     0.007 A 
ATOM     14  C   UNL d   1      32.890  18.441 -23.794  0.00  0.00     0.044 A 
ATOM     15  C   UNL d   1      32.697  19.239 -23.578  0.00  0.00     0.218 A 
ATOM     16  O   UNL d   1      32.438  19.741 -24.149  0.00  0.00    -0.285 OA
ENDBRANCH   8   9
ENDBRANCH   7   8
ENDBRANCH   2   7
BRANCH   1  17
ATOM     17  C   UNL d   1      32.995  22.426 -23.129  0.00  0.00     0.302 C 
ATOM     18  O   UNL d   1      33.240  21.862 -23.696  0.00  0.00    -0.259 OA
BRANCH  17  19
ATOM     19  O   UNL d   1      32.691  23.180 -23.383  0.00  0.00    -0.271 OA
BRANCH  19  20
ATOM     20  C   UNL d   1      32.836  23.449 -24.150  0.00  0.00     0.126 C 
ATOM     21  C   UNL d   1      32.199  23.695 -24.610  0.00  0.00     0.029 C 
ENDBRANCH  19  20
ENDBRANCH  17  19
ENDBRANCH   1  17
BRANCH   4  22
ATOM     22  C   UNL d   1      33.042  22.829 -20.266  0.00  0.00     0.306 C 
ATOM     23  O   UNL d   1      32.933  23.623 -20.223  0.00  0.00    -0.258 OA
BRANCH  22  24
ATOM     24  O   UNL d   1      33.136  22.356 -19.601  0.00  0.00    -0.271 OA
BRANCH  24  25
ATOM     25  C   UNL d   1      32.656  22.519 -18.920  0.00  0.00     0.126 C 
ATOM     26  C   UNL d   1      32.926  23.038 -18.366  0.00  0.00     0.029 C 
ENDBRANCH  24  25
ENDBRANCH  22  24
ENDBRANCH   4  22
TORSDOF 9
ENDMDL
