MODEL 1
REMARK VINA RESULT:      79.3      0.000      0.000
REMARK  4 active torsions:
REMARK  status: ('A' for Active; 'I' for Inactive)
REMARK    1  A    between atoms: N_11  and  C_4 
REMARK    2  A    between atoms: C_13  and  C_17 
REMARK    3  A    between atoms: C_17  and  N_16 
REMARK    4  A    between atoms: O_29  and  C_18 
ROOT
ATOM      1  N   UNL d   1      13.880  13.958  -3.205  0.00  0.00    -0.195 N 
ATOM      2  C   UNL d   1      13.889  13.231  -2.849  0.00  0.00     0.168 A 
ATOM      3  C   UNL d   1      14.252  13.126  -2.146  0.00  0.00     0.073 A 
ATOM      4  C   UNL d   1      13.513  14.044  -3.907  0.00  0.00     0.153 A 
ATOM      5  N   UNL d   1      14.599  14.480  -2.156  0.00  0.00    -0.143 NA
ATOM      6  C   UNL d   1      14.608  13.753  -1.800  0.00  0.00     0.185 A 
ATOM      7  N   UNL d   1      13.530  12.608  -3.204  0.00  0.00    -0.227 NA
ATOM      8  C   UNL d   1      14.261  12.406  -1.793  0.00  0.00     0.007 A 
ATOM      9  N   UNL d   1      14.980  13.662  -1.087  0.00  0.00    -0.225 NA
ATOM     10  C   UNL d   1      13.155  13.431  -4.264  0.00  0.00     0.057 A 
ATOM     11  C   UNL d   1      14.625  12.302  -1.089  0.00  0.00     0.019 A 
ATOM     12  C   UNL d   1      13.164  12.704  -3.908  0.00  0.00     0.086 A 
ATOM     13  C   UNL d   1      14.989  12.934  -0.731  0.00  0.00     0.083 A 
ATOM     14  C   UNL d   1      13.900  11.782  -2.151  0.00  0.00     0.000 C 
ATOM     15  C   UNL d   1      12.789  12.058  -4.280  0.00  0.00     0.021 C 
ATOM     16  C   UNL d   1      15.352  12.837  -0.031  0.00  0.00     0.021 C 
ENDROOT
BRANCH   4  17
ATOM     17  N   UNL d   1      13.508  14.798  -4.269  0.00  0.00    -0.286 N 
ATOM     18  C   UNL d   1      13.220  15.540  -4.067  0.00  0.00     0.101 A 
ATOM     19  C   UNL d   1      13.325  16.183  -4.588  0.00  0.00     0.100 A 
ATOM     20  N   UNL d   1      13.716  16.085  -5.313  0.00  0.00    -0.300 N 
ATOM     21  C   UNL d   1      14.011  15.318  -5.517  0.00  0.00     0.100 A 
ATOM     22  C   UNL d   1      13.902  14.680  -4.989  0.00  0.00     0.101 A 
BRANCH  20  23
ATOM     23  C   UNL d   1      13.820  16.724  -5.833  0.00  0.00     0.082 C 
BRANCH  23  24
ATOM     24  C   UNL d   1      14.251  17.388  -5.600  0.00  0.00     0.042 A 
ATOM     25  C   UNL d   1      14.037  18.145  -5.881  0.00  0.00     0.096 A 
ATOM     26  C   UNL d   1      14.477  18.802  -5.638  0.00  0.00     0.027 A 
ATOM     27  C   UNL d   1      15.122  18.720  -5.125  0.00  0.00     0.032 A 
ATOM     28  C   UNL d   1      15.337  17.963  -4.843  0.00  0.00     0.140 A 
ATOM     29  C   UNL d   1      14.896  17.297  -5.085  0.00  0.00     0.033 A 
ATOM     30  F   UNL d   1      15.983  17.869  -4.328  0.00  0.00    -0.204 F 
BRANCH  25  31
ATOM     31  O   UNL d   1      13.401  18.232  -6.387  0.00  0.00    -0.328 OA
ATOM     32  C   UNL d   1      12.778  18.751  -6.196  0.00  0.00     0.181 C 
ENDBRANCH  25  31
ENDBRANCH  23  24
ENDBRANCH  20  23
ENDBRANCH   4  17
TORSDOF 4
ENDMDL
MODEL 2
REMARK VINA RESULT:      80.3      1.504      2.468
REMARK  4 active torsions:
REMARK  status: ('A' for Active; 'I' for Inactive)
REMARK    1  A    between atoms: N_11  and  C_4 
REMARK    2  A    between atoms: C_13  and  C_17 
REMARK    3  A    between atoms: C_17  and  N_16 
REMARK    4  A    between atoms: O_29  and  C_18 
ROOT
ATOM      1  N   UNL d   1      14.840  15.243  -2.337  0.00  0.00    -0.195 N 
ATOM      2  C   UNL d   1      14.906  15.023  -1.560  0.00  0.00     0.168 A 
ATOM      3  C   UNL d   1      14.829  14.258  -1.346  0.00  0.00     0.073 A 
ATOM      4  C   UNL d   1      14.919  16.012  -2.533  0.00  0.00     0.153 A 
ATOM      5  N   UNL d   1      14.620  13.932  -2.690  0.00  0.00    -0.143 NA
ATOM      6  C   UNL d   1      14.686  13.712  -1.913  0.00  0.00     0.185 A 
ATOM      7  N   UNL d   1      15.049  15.577  -0.999  0.00  0.00    -0.227 NA
ATOM      8  C   UNL d   1      14.894  14.040  -0.577  0.00  0.00     0.007 A 
ATOM      9  N   UNL d   1      14.606  12.933  -1.711  0.00  0.00    -0.225 NA
ATOM     10  C   UNL d   1      15.062  16.565  -1.981  0.00  0.00     0.057 A 
ATOM     11  C   UNL d   1      14.817  13.273  -0.363  0.00  0.00     0.019 A 
ATOM     12  C   UNL d   1      15.127  16.345  -1.204  0.00  0.00     0.086 A 
ATOM     13  C   UNL d   1      14.672  12.713  -0.934  0.00  0.00     0.083 A 
ATOM     14  C   UNL d   1      15.038  14.597  -0.015  0.00  0.00     0.000 C 
ATOM     15  C   UNL d   1      15.277  16.924  -0.623  0.00  0.00     0.021 C 
ATOM     16  C   UNL d   1      14.594  11.949  -0.728  0.00  0.00     0.021 C 
ENDROOT
BRANCH   4  17
ATOM     17  N   UNL d   1      14.850  16.231  -3.336  0.00  0.00    -0.286 N 
ATOM     18  C   UNL d   1      14.465  15.925  -3.994  0.00  0.00     0.101 A 
ATOM     19  C   UNL d   1      14.528  16.312  -4.730  0.00  0.00     0.100 A 
ATOM     20  N   UNL d   1      14.974  17.006  -4.811  0.00  0.00    -0.300 N 
ATOM     21  C   UNL d   1      15.369  17.318  -4.130  0.00  0.00     0.100 A 
ATOM     22  C   UNL d   1      15.301  16.924  -3.397  0.00  0.00     0.101 A 
BRANCH  20  23
ATOM     23  C   UNL d   1      15.037  17.393  -5.544  0.00  0.00     0.082 C 
BRANCH  23  24
ATOM     24  C   UNL d   1      14.677  18.125  -5.662  0.00  0.00     0.042 A 
ATOM     25  C   UNL d   1      13.955  18.173  -6.081  0.00  0.00     0.096 A 
ATOM     26  C   UNL d   1      13.605  18.914  -6.193  0.00  0.00     0.027 A 
ATOM     27  C   UNL d   1      13.956  19.603  -5.898  0.00  0.00     0.032 A 
ATOM     28  C   UNL d   1      14.678  19.556  -5.478  0.00  0.00     0.140 A 
ATOM     29  C   UNL d   1      15.035  18.812  -5.363  0.00  0.00     0.033 A 
ATOM     30  F   UNL d   1      15.039  20.242  -5.178  0.00  0.00    -0.204 F 
BRANCH  25  31
ATOM     31  O   UNL d   1      13.604  17.495  -6.375  0.00  0.00    -0.328 OA
ATOM     32  C   UNL d   1      12.773  17.424  -6.389  0.00  0.00     0.181 C 
ENDBRANCH  25  31
ENDBRANCH  23  24
ENDBRANCH  20  23
ENDBRANCH   4  17
TORSDOF 4
ENDMDL
