MODEL 1
REMARK VINA RESULT:      -3.6      0.000      0.000
REMARK  7 active torsions:
REMARK  status: ('A' for Active; 'I' for Inactive)
REMARK    1  A    between atoms: S_10  and  C_4 
REMARK    2  A    between atoms: C_19  and  C_9 
REMARK    3  A    between atoms: C_13  and  S_10 
REMARK    4  A    between atoms: C_11  and  C_13 
REMARK       I    between atoms: N_14  and  C_11 
REMARK    5  A    between atoms: C_16  and  N_14 
REMARK    6  A    between atoms: C_20  and  C_16 
REMARK    7  A    between atoms: C_18  and  C_20 
ROOT
ATOM      1  C   UNL d   1      59.013  -1.154  29.573  0.00  0.00     0.141 A 
ATOM      2  C   UNL d   1      59.610  -1.551  29.167  0.00  0.00     0.110 A 
ATOM      3  O   UNL d   1      58.382  -1.679  29.676  0.00  0.00    -0.303 OA
ATOM      4  C   UNL d   1      59.117  -0.368  29.798  0.00  0.00     0.137 A 
ATOM      5  N   UNL d   1      59.821   0.023  29.616  0.00  0.00    -0.218 NA
ATOM      6  C   UNL d   1      59.351  -2.319  29.017  0.00  0.00     0.043 A 
ATOM      7  N   UNL d   1      60.314  -1.160  28.984  0.00  0.00    -0.225 NA
ATOM      8  C   UNL d   1      58.592  -2.399  29.332  0.00  0.00     0.102 A 
ATOM      9  C   UNL d   1      60.418  -0.373  29.209  0.00  0.00     0.163 A 
ATOM     10  C   UNL d   1      59.708  -2.959  28.635  0.00  0.00     0.004 A 
ATOM     11  C   UNL d   1      58.190  -3.115  29.266  0.00  0.00     0.025 A 
ATOM     12  C   UNL d   1      59.305  -3.676  28.569  0.00  0.00     0.000 A 
ATOM     13  C   UNL d   1      58.547  -3.755  28.883  0.00  0.00     0.002 A 
ENDROOT
BRANCH   4  14
ATOM     14  S   UNL d   1      58.519   0.029  30.206  0.00  0.00    -0.060 SA
BRANCH  14  15
ATOM     15  C   UNL d   1      58.712   0.583  30.785  0.00  0.00     0.099 C 
BRANCH  15  16
ATOM     16  C   UNL d   1      58.267   0.623  31.480  0.00  0.00     0.286 C 
ATOM     17  O   UNL d   1      58.649   0.675  32.211  0.00  0.00    -0.265 OA
ATOM     18  N   UNL d   1      57.443   0.612  31.444  0.00  0.00    -0.206 NA
BRANCH  18  19
ATOM     19  C   UNL d   1      57.000   0.653  32.137  0.00  0.00     0.102 C 
BRANCH  19  20
ATOM     20  C   UNL d   1      56.367   0.137  32.255  0.00  0.00     0.021 C 
BRANCH  20  21
ATOM     21  C   UNL d   1      55.912   0.190  32.941  0.00  0.00     0.002 A 
ATOM     22  C   UNL d   1      55.207   0.622  32.936  0.00  0.00     0.000 A 
ATOM     23  C   UNL d   1      54.752   0.675  33.621  0.00  0.00     0.000 A 
ATOM     24  C   UNL d   1      54.999   0.297  34.311  0.00  0.00     0.000 A 
ATOM     25  C   UNL d   1      55.702  -0.134  34.317  0.00  0.00     0.000 A 
ATOM     26  C   UNL d   1      56.158  -0.188  33.630  0.00  0.00     0.000 A 
ENDBRANCH  20  21
ENDBRANCH  19  20
ENDBRANCH  18  19
ENDBRANCH  15  16
ENDBRANCH  14  15
ENDBRANCH   4  14
BRANCH   9  27
ATOM     27  C   UNL d   1      61.123   0.017  29.027  0.00  0.00     0.039 C 
ATOM     28  C   UNL d   1      61.128   0.613  28.456  0.00  0.00     0.003 C 
ENDBRANCH   9  27
TORSDOF 7
ENDMDL
