MODEL 1
REMARK VINA RESULT:      -5.5      0.000      0.000
REMARK  2 active torsions:
REMARK  status: ('A' for Active; 'I' for Inactive)
REMARK    1  A    between atoms: C_6  and  N_1 
REMARK    2  A    between atoms: C_14  and  C_13 
ROOT
ATOM      1  C   UNL d   1     -41.568-122.399 -52.973  0.00  0.00     0.070 A 
ATOM      2  C   UNL d   1     -42.127-121.895 -53.308  0.00  0.00     0.018 A 
ATOM      3  C   UNL d   1     -41.123-122.900 -53.454  0.00  0.00     0.018 A 
ATOM      4  C   UNL d   1     -42.244-121.889 -54.129  0.00  0.00     0.002 A 
ATOM      5  C   UNL d   1     -41.235-122.899 -54.273  0.00  0.00     0.002 A 
ATOM      6  C   UNL d   1     -41.799-122.389 -54.611  0.00  0.00     0.000 A 
ENDROOT
BRANCH   1   7
ATOM      7  N   UNL d   1     -41.460-122.397 -52.161  0.00  0.00    -0.242 N 
ATOM      8  C   UNL d   1     -41.254-121.739 -51.708  0.00  0.00     0.267 A 
ATOM      9  C   UNL d   1     -41.205-121.985 -50.922  0.00  0.00     0.066 A 
ATOM     10  O   UNL d   1     -41.123-120.977 -51.991  0.00  0.00    -0.267 OA
ATOM     11  C   UNL d   1     -41.377-122.785 -50.886  0.00  0.00     0.066 A 
ATOM     12  C   UNL d   1     -41.535-123.042 -51.652  0.00  0.00     0.267 A 
ATOM     13  O   UNL d   1     -41.736-123.815 -51.871  0.00  0.00    -0.267 OA
ENDBRANCH   1   7
BRANCH   6  14
ATOM     14  C   UNL d   1     -41.909-122.390 -55.426  0.00  0.00     0.000 C 
ATOM     15  C   UNL d   1     -42.536-121.958 -55.751  0.00  0.00     0.000 C 
ENDBRANCH   6  14
TORSDOF 2
ENDMDL
MODEL 2
REMARK VINA RESULT:      -5.0      2.039      3.205
REMARK  2 active torsions:
REMARK  status: ('A' for Active; 'I' for Inactive)
REMARK    1  A    between atoms: C_6  and  N_1 
REMARK    2  A    between atoms: C_14  and  C_13 
ROOT
ATOM      1  C   UNL d   1     -41.965-123.012 -50.158  0.00  0.00     0.070 A 
ATOM      2  C   UNL d   1     -42.203-122.283 -50.463  0.00  0.00     0.018 A 
ATOM      3  C   UNL d   1     -41.448-123.489 -50.588  0.00  0.00     0.018 A 
ATOM      4  C   UNL d   1     -41.923-122.028 -51.201  0.00  0.00     0.002 A 
ATOM      5  C   UNL d   1     -41.165-123.241 -51.324  0.00  0.00     0.002 A 
ATOM      6  C   UNL d   1     -41.405-122.505 -51.630  0.00  0.00     0.000 A 
ENDROOT
BRANCH   1   7
ATOM      7  N   UNL d   1     -42.248-123.254 -49.429  0.00  0.00    -0.242 N 
ATOM      8  C   UNL d   1     -42.972-123.625 -49.297  0.00  0.00     0.267 A 
ATOM      9  C   UNL d   1     -43.032-123.771 -48.486  0.00  0.00     0.066 A 
ATOM     10  O   UNL d   1     -43.532-123.815 -49.870  0.00  0.00    -0.267 OA
ATOM     11  C   UNL d   1     -42.353-123.494 -48.120  0.00  0.00     0.066 A 
ATOM     12  C   UNL d   1     -41.867-123.173 -48.702  0.00  0.00     0.267 A 
ATOM     13  O   UNL d   1     -41.124-122.830 -48.575  0.00  0.00    -0.267 OA
ENDBRANCH   1   7
BRANCH   6  14
ATOM     14  C   UNL d   1     -41.122-122.260 -52.363  0.00  0.00     0.000 C 
ATOM     15  C   UNL d   1     -41.185-122.770 -53.012  0.00  0.00     0.000 C 
ENDBRANCH   6  14
TORSDOF 2
ENDMDL
MODEL 3
REMARK VINA RESULT:      -4.9      1.553      4.037
REMARK  2 active torsions:
REMARK  status: ('A' for Active; 'I' for Inactive)
REMARK    1  A    between atoms: C_6  and  N_1 
REMARK    2  A    between atoms: C_14  and  C_13 
ROOT
ATOM      1  C   UNL d   1     -41.752-122.719 -50.525  0.00  0.00     0.070 A 
ATOM      2  C   UNL d   1     -41.200-123.090 -50.039  0.00  0.00     0.018 A 
ATOM      3  C   UNL d   1     -42.505-122.545 -50.236  0.00  0.00     0.018 A 
ATOM      4  C   UNL d   1     -41.398-123.289 -49.258  0.00  0.00     0.002 A 
ATOM      5  C   UNL d   1     -42.710-122.741 -49.460  0.00  0.00     0.002 A 
ATOM      6  C   UNL d   1     -42.151-123.116 -48.969  0.00  0.00     0.000 A 
ENDROOT
BRANCH   1   7
ATOM      7  N   UNL d   1     -41.546-122.526 -51.294  0.00  0.00    -0.242 N 
ATOM      8  C   UNL d   1     -41.257-121.795 -51.542  0.00  0.00     0.267 A 
ATOM      9  C   UNL d   1     -41.123-121.844 -52.355  0.00  0.00     0.066 A 
ATOM     10  O   UNL d   1     -41.127-121.137 -51.064  0.00  0.00    -0.267 OA
ATOM     11  C   UNL d   1     -41.326-122.596 -52.609  0.00  0.00     0.066 A 
ATOM     12  C   UNL d   1     -41.588-123.020 -51.954  0.00  0.00     0.267 A 
ATOM     13  O   UNL d   1     -41.848-123.806 -51.959  0.00  0.00    -0.267 OA
ENDBRANCH   1   7
BRANCH   6  14
ATOM     14  C   UNL d   1     -42.356-123.310 -48.197  0.00  0.00     0.000 C 
ATOM     15  C   UNL d   1     -41.842-123.112 -47.579  0.00  0.00     0.000 C 
ENDBRANCH   6  14
TORSDOF 2
ENDMDL
MODEL 4
REMARK VINA RESULT:      -2.5      0.739      1.456
REMARK  2 active torsions:
REMARK  status: ('A' for Active; 'I' for Inactive)
REMARK    1  A    between atoms: C_6  and  N_1 
REMARK    2  A    between atoms: C_14  and  C_13 
ROOT
ATOM      1  C   UNL d   1     -41.860-122.363 -52.408  0.00  0.00     0.070 A 
ATOM      2  C   UNL d   1     -42.324-121.973 -52.967  0.00  0.00     0.018 A 
ATOM      3  C   UNL d   1     -41.264-122.878 -52.653  0.00  0.00     0.018 A 
ATOM      4  C   UNL d   1     -42.193-122.096 -53.777  0.00  0.00     0.002 A 
ATOM      5  C   UNL d   1     -41.128-123.004 -53.459  0.00  0.00     0.002 A 
ATOM      6  C   UNL d   1     -41.597-122.610 -54.022  0.00  0.00     0.000 A 
ENDROOT
BRANCH   1   7
ATOM      7  N   UNL d   1     -41.998-122.235 -51.611  0.00  0.00    -0.242 N 
ATOM      8  C   UNL d   1     -42.359-122.769 -51.097  0.00  0.00     0.267 A 
ATOM      9  C   UNL d   1     -42.385-122.415 -50.350  0.00  0.00     0.066 A 
ATOM     10  O   UNL d   1     -42.641-123.517 -51.293  0.00  0.00    -0.267 OA
ATOM     11  C   UNL d   1     -42.044-121.672 -50.401  0.00  0.00     0.066 A 
ATOM     12  C   UNL d   1     -41.804-121.558 -51.180  0.00  0.00     0.267 A 
ATOM     13  O   UNL d   1     -41.433-120.880 -51.478  0.00  0.00    -0.267 OA
ENDBRANCH   1   7
BRANCH   6  14
ATOM     14  C   UNL d   1     -41.460-122.738 -54.823  0.00  0.00     0.000 C 
ATOM     15  C   UNL d   1     -41.686-122.159 -55.370  0.00  0.00     0.000 C 
ENDBRANCH   6  14
TORSDOF 2
ENDMDL
