MODEL 1
REMARK VINA RESULT:      56.9      0.000      0.000
REMARK  5 active torsions:
REMARK  status: ('A' for Active; 'I' for Inactive)
REMARK    1  A    between atoms: C_3  and  C_1 
REMARK    2  A    between atoms: C_2  and  C_3 
REMARK       I    between atoms: N_4  and  C_2 
REMARK    3  A    between atoms: C_10  and  C_8 
REMARK    4  A    between atoms: O_16  and  C_10 
REMARK    5  A    between atoms: C_21  and  O_16 
ROOT
ATOM      1  C   UNL d   1     -56.064 -99.465 -43.889  0.00  0.00     0.304 C 
ATOM      2  N   UNL d   1     -56.756 -99.441 -44.329  0.00  0.00    -0.269 N 
ATOM      3  C   UNL d   1     -58.165 -99.215 -44.409  0.00  0.00     0.081 A 
ATOM      4  C   UNL d   1     -57.467 -99.239 -43.967  0.00  0.00     0.088 A 
ATOM      5  O   UNL d   1     -56.081 -99.287 -43.088  0.00  0.00    -0.263 OA
ATOM      6  C   UNL d   1     -56.739 -99.618 -45.127  0.00  0.00     0.083 A 
ATOM      7  C   UNL d   1     -58.153 -99.393 -45.213  0.00  0.00     0.008 A 
ATOM      8  C   UNL d   1     -57.440 -99.595 -45.577  0.00  0.00     0.019 A 
ENDROOT
BRANCH   1   9
ATOM      9  C   UNL d   1     -55.347 -99.668 -44.255  0.00  0.00     0.253 C 
ATOM     10  O   UNL d   1     -54.836 -99.074 -44.510  0.00  0.00    -0.281 OA
BRANCH   9  11
ATOM     11  C   UNL d   1     -55.153-100.457 -44.359  0.00  0.00     0.064 A 
ATOM     12  C   UNL d   1     -55.029-100.847 -45.075  0.00  0.00     0.102 A 
ATOM     13  N   UNL d   1     -54.846-101.632 -44.923  0.00  0.00    -0.244 NA
ATOM     14  C   UNL d   1     -54.855-101.736 -44.107  0.00  0.00     0.082 A 
ATOM     15  C   UNL d   1     -55.044-101.012 -43.758  0.00  0.00     0.022 A 
ATOM     16  C   UNL d   1     -54.716-102.395 -43.635  0.00  0.00     0.019 A 
ATOM     17  C   UNL d   1     -55.093-100.950 -42.941  0.00  0.00     0.002 A 
ATOM     18  C   UNL d   1     -54.952-101.617 -42.466  0.00  0.00     0.000 A 
ATOM     19  C   UNL d   1     -54.765-102.332 -42.818  0.00  0.00     0.002 A 
ENDBRANCH   9  11
ENDBRANCH   1   9
BRANCH   3  20
ATOM     20  C   UNL d   1     -58.880 -99.013 -44.050  0.00  0.00     0.302 C 
ATOM     21  O   UNL d   1     -59.514 -98.767 -44.505  0.00  0.00    -0.259 OA
BRANCH  20  22
ATOM     22  O   UNL d   1     -58.951 -99.061 -43.237  0.00  0.00    -0.271 OA
BRANCH  22  23
ATOM     23  C   UNL d   1     -59.621 -99.416 -42.902  0.00  0.00     0.126 C 
ATOM     24  C   UNL d   1     -59.730-100.235 -42.988  0.00  0.00     0.029 C 
ENDBRANCH  22  23
ENDBRANCH  20  22
ENDBRANCH   3  20
TORSDOF 5
ENDMDL
MODEL 2
REMARK VINA RESULT:      59.8      2.209      4.451
REMARK  5 active torsions:
REMARK  status: ('A' for Active; 'I' for Inactive)
REMARK    1  A    between atoms: C_3  and  C_1 
REMARK    2  A    between atoms: C_2  and  C_3 
REMARK       I    between atoms: N_4  and  C_2 
REMARK    3  A    between atoms: C_10  and  C_8 
REMARK    4  A    between atoms: O_16  and  C_10 
REMARK    5  A    between atoms: C_21  and  O_16 
ROOT
ATOM      1  C   UNL d   1     -55.211-100.788 -42.441  0.00  0.00     0.304 C 
ATOM      2  N   UNL d   1     -55.045-101.480 -42.032  0.00  0.00    -0.269 N 
ATOM      3  C   UNL d   1     -54.863-102.173 -40.796  0.00  0.00     0.081 A 
ATOM      4  C   UNL d   1     -55.030-101.478 -41.210  0.00  0.00     0.088 A 
ATOM      5  O   UNL d   1     -55.360-100.094 -42.030  0.00  0.00    -0.263 OA
ATOM      6  C   UNL d   1     -54.897-102.171 -42.443  0.00  0.00     0.083 A 
ATOM      7  C   UNL d   1     -54.712-102.873 -41.205  0.00  0.00     0.008 A 
ATOM      8  C   UNL d   1     -54.728-102.876 -42.030  0.00  0.00     0.019 A 
ENDROOT
BRANCH   1   9
ATOM      9  C   UNL d   1     -55.227-100.791 -43.272  0.00  0.00     0.253 C 
ATOM     10  O   UNL d   1     -55.194-101.507 -43.678  0.00  0.00    -0.281 OA
BRANCH   9  11
ATOM     11  C   UNL d   1     -55.275-100.083 -43.680  0.00  0.00     0.064 A 
ATOM     12  C   UNL d   1     -54.747 -99.451 -43.642  0.00  0.00     0.102 A 
ATOM     13  N   UNL d   1     -55.008 -98.854 -44.141  0.00  0.00    -0.244 NA
ATOM     14  C   UNL d   1     -55.704 -99.113 -44.496  0.00  0.00     0.082 A 
ATOM     15  C   UNL d   1     -55.870 -99.871 -44.212  0.00  0.00     0.022 A 
ATOM     16  C   UNL d   1     -56.209 -98.759 -45.039  0.00  0.00     0.019 A 
ATOM     17  C   UNL d   1     -56.538-100.270 -44.472  0.00  0.00     0.002 A 
ATOM     18  C   UNL d   1     -57.047 -99.910 -45.022  0.00  0.00     0.000 A 
ATOM     19  C   UNL d   1     -56.877 -99.159 -45.299  0.00  0.00     0.002 A 
ENDBRANCH   9  11
ENDBRANCH   1   9
BRANCH   3  20
ATOM     20  C   UNL d   1     -54.846-102.175 -39.971  0.00  0.00     0.302 C 
ATOM     21  O   UNL d   1     -54.964-102.873 -39.559  0.00  0.00    -0.259 OA
BRANCH  20  22
ATOM     22  O   UNL d   1     -54.711-101.478 -39.569  0.00  0.00    -0.271 OA
BRANCH  22  23
ATOM     23  C   UNL d   1     -55.195-101.270 -38.927  0.00  0.00     0.126 C 
ATOM     24  C   UNL d   1     -54.841-101.036 -38.213  0.00  0.00     0.029 C 
ENDBRANCH  22  23
ENDBRANCH  20  22
ENDBRANCH   3  20
TORSDOF 5
ENDMDL
