MODEL 1
REMARK VINA RESULT:      16.5      0.000      0.000
REMARK  2 active torsions:
REMARK  status: ('A' for Active; 'I' for Inactive)
REMARK    1  A    between atoms: N_7  and  C_2 
REMARK    2  A    between atoms: C_10  and  N_7 
ROOT
ATOM      1  N   UNL d   1     -58.295 -98.777 -44.851  0.00  0.00     0.002 N 
ATOM      2  C   UNL d   1     -57.570 -98.765 -44.456  0.00  0.00     0.773 A 
ATOM      3  C   UNL d   1     -58.990 -98.786 -44.411  0.00  0.00     0.317 A 
ATOM      4  N   UNL d   1     -57.544 -98.761 -43.624  0.00  0.00     0.046 NA
ATOM      5  N   UNL d   1     -58.243 -98.769 -43.196  0.00  0.00    -0.127 NA
ATOM      6  C   UNL d   1     -58.964 -98.782 -43.579  0.00  0.00     0.162 A 
ATOM      7  O   UNL d   1     -59.731 -98.798 -44.828  0.00  0.00    -0.263 OA
ATOM      8  N   UNL d   1     -58.321 -98.781 -45.668  0.00  0.00    -0.023 N 
ATOM      9  C   UNL d   1     -59.677 -98.790 -43.136  0.00  0.00     0.028 C 
ENDROOT
BRANCH   2  10
ATOM     10  N   UNL d   1     -56.858 -98.757 -44.919  0.00  0.00    -0.058 NA
BRANCH  10  11
ATOM     11  C   UNL d   1     -56.172 -99.155 -44.663  0.00  0.00     0.100 A 
ATOM     12  C   UNL d   1     -56.066 -99.937 -44.870  0.00  0.00     0.020 A 
ATOM     13  C   UNL d   1     -55.377-100.337 -44.613  0.00  0.00     0.002 A 
ATOM     14  C   UNL d   1     -54.826 -99.937 -44.161  0.00  0.00     0.000 A 
ATOM     15  C   UNL d   1     -54.937 -99.157 -43.957  0.00  0.00     0.002 A 
ATOM     16  C   UNL d   1     -55.625 -98.757 -44.214  0.00  0.00     0.020 A 
ENDBRANCH  10  11
ENDBRANCH   2  10
TORSDOF 2
ENDMDL
