MODEL 1
REMARK VINA RESULT:      41.3      0.000      0.000
REMARK  4 active torsions:
REMARK  status: ('A' for Active; 'I' for Inactive)
REMARK    1  A    between atoms: C_10  and  C_3 
REMARK    2  A    between atoms: N_11  and  C_4 
REMARK    3  A    between atoms: C_14  and  N_11 
REMARK    4  A    between atoms: C_15  and  C_14 
ROOT
ATOM      1  C   UNL d   1     -58.469 -98.760 -44.408  0.00  0.00     0.150 A 
ATOM      2  N   UNL d   1     -57.734 -98.759 -44.025  0.00  0.00    -0.275 N 
ATOM      3  C   UNL d   1     -58.504 -98.762 -45.221  0.00  0.00     0.056 A 
ATOM      4  C   UNL d   1     -57.052 -98.759 -44.470  0.00  0.00     0.149 A 
ATOM      5  N   UNL d   1     -59.158 -98.760 -43.982  0.00  0.00    -0.227 NA
ATOM      6  C   UNL d   1     -57.807 -98.762 -45.663  0.00  0.00     0.007 A 
ATOM      7  C   UNL d   1     -57.088 -98.761 -45.289  0.00  0.00     0.038 A 
ATOM      8  C   UNL d   1     -58.394 -98.757 -42.773  0.00  0.00     0.084 A 
ATOM      9  C   UNL d   1     -59.124 -98.758 -43.157  0.00  0.00     0.099 A 
ATOM     10  C   UNL d   1     -57.846 -98.763 -46.478  0.00  0.00     0.000 C 
ATOM     11  C   UNL d   1     -58.363 -98.756 -41.958  0.00  0.00     0.019 A 
ATOM     12  C   UNL d   1     -59.807 -98.758 -42.708  0.00  0.00     0.021 A 
ATOM     13  C   UNL d   1     -59.044 -98.756 -41.515  0.00  0.00     0.002 A 
ATOM     14  C   UNL d   1     -59.778 -98.757 -41.892  0.00  0.00     0.002 A 
ENDROOT
BRANCH   4  15
ATOM     15  N   UNL d   1     -56.302 -98.758 -44.067  0.00  0.00    -0.225 NA
BRANCH  15  16
ATOM     16  C   UNL d   1     -55.603 -99.064 -44.454  0.00  0.00     0.120 C 
BRANCH  16  17
ATOM     17  C   UNL d   1     -55.312 -99.840 -44.264  0.00  0.00     0.101 A 
ATOM     18  N   UNL d   1     -55.298-100.449 -44.873  0.00  0.00    -0.242 NA
ATOM     19  C   UNL d   1     -55.006-101.227 -44.683  0.00  0.00     0.099 A 
ATOM     20  C   UNL d   1     -54.728-101.400 -43.889  0.00  0.00     0.021 A 
ATOM     21  C   UNL d   1     -54.743-100.783 -43.275  0.00  0.00     0.003 A 
ATOM     22  C   UNL d   1     -55.037-100.009 -43.476  0.00  0.00     0.021 A 
ENDBRANCH  16  17
ENDBRANCH  15  16
ENDBRANCH   4  15
BRANCH   3  23
ATOM     23  C   UNL d   1     -59.222 -98.763 -45.598  0.00  0.00     0.125 C 
ATOM     24  N   UNL d   1     -59.215 -98.811 -46.425  0.00  0.00    -0.146 N 
ENDBRANCH   3  23
TORSDOF 4
ENDMDL
