MODEL 1
REMARK VINA RESULT:       6.9      0.000      0.000
REMARK  2 active torsions:
REMARK  status: ('A' for Active; 'I' for Inactive)
REMARK    1  A    between atoms: C_2  and  CA_1 
REMARK    2  A    between atoms: C_3  and  CA_1 
ROOT
ATOM      1  C   UNL d   1     -54.844-101.652 -36.741  0.00  0.00     0.025 A 
ATOM      2  C   UNL d   1     -55.010-102.467 -36.734  0.00  0.00     0.002 A 
ATOM      3  C   UNL d   1     -54.749-101.259 -37.460  0.00  0.00     0.002 A 
ATOM      4  C   UNL d   1     -55.105-102.860 -36.016  0.00  0.00     0.000 C 
ATOM      5  C   UNL d   1     -55.078-102.879 -37.443  0.00  0.00     0.000 A 
ATOM      6  C   UNL d   1     -54.819-101.680 -38.172  0.00  0.00     0.000 A 
ATOM      7  C   UNL d   1     -54.983-102.486 -38.162  0.00  0.00     0.000 A 
ENDROOT
BRANCH   1   8
ATOM      8  CA  UNL d   1     -54.776-101.241 -36.028  0.00  0.00     0.167 C 
ATOM      9  N   UNL d   1     -54.730-101.650 -35.316  0.00  0.00    -0.142 N 
BRANCH   8  10
ATOM     10  C   UNL d   1     -54.753-100.416 -36.033  0.00  0.00     0.231 C 
ATOM     11  O   UNL d   1     -54.719-100.000 -36.742  0.00  0.00    -0.643 OA
ATOM     12  OXT UNL d   1     -54.765 -99.998 -35.318  0.00  0.00    -0.643 OA
ENDBRANCH   8  10
ENDBRANCH   1   8
TORSDOF 2
ENDMDL
MODEL 2
REMARK VINA RESULT:       9.7      8.255      9.052
REMARK  2 active torsions:
REMARK  status: ('A' for Active; 'I' for Inactive)
REMARK    1  A    between atoms: C_2  and  CA_1 
REMARK    2  A    between atoms: C_3  and  CA_1 
ROOT
ATOM      1  C   UNL d   1     -58.542 -98.773 -44.186  0.00  0.00     0.025 A 
ATOM      2  C   UNL d   1     -59.317 -98.768 -44.485  0.00  0.00     0.002 A 
ATOM      3  C   UNL d   1     -58.416 -98.775 -43.371  0.00  0.00     0.002 A 
ATOM      4  C   UNL d   1     -59.442 -98.766 -45.300  0.00  0.00     0.000 C 
ATOM      5  C   UNL d   1     -59.958 -98.764 -43.968  0.00  0.00     0.000 A 
ATOM      6  C   UNL d   1     -59.066 -98.771 -42.854  0.00  0.00     0.000 A 
ATOM      7  C   UNL d   1     -59.833 -98.765 -43.153  0.00  0.00     0.000 A 
ENDROOT
BRANCH   1   8
ATOM      8  CA  UNL d   1     -57.900 -98.777 -44.706  0.00  0.00     0.167 C 
ATOM      9  N   UNL d   1     -58.026 -98.779 -45.519  0.00  0.00    -0.142 N 
BRANCH   8  10
ATOM     10  C   UNL d   1     -57.131 -98.780 -44.408  0.00  0.00     0.231 C 
ATOM     11  O   UNL d   1     -56.996 -98.785 -43.596  0.00  0.00    -0.643 OA
ATOM     12  OXT UNL d   1     -56.486 -98.777 -44.927  0.00  0.00    -0.643 OA
ENDBRANCH   8  10
ENDBRANCH   1   8
TORSDOF 2
ENDMDL
