MODEL 1
REMARK VINA RESULT:      -4.2      0.000      0.000
REMARK  6 active torsions:
REMARK  status: ('A' for Active; 'I' for Inactive)
REMARK    1  A    between atoms: N_3  and  C_1 
REMARK    2  A    between atoms: S_2  and  C_9 
REMARK    3  A    between atoms: N_10  and  S_2 
REMARK       I    between atoms: C_8  and  N_3 
REMARK    4  A    between atoms: C_20  and  N_4 
REMARK    5  A    between atoms: C_13  and  C_8 
REMARK    6  A    between atoms: O_22  and  C_14 
ROOT
ATOM      1  N   UNL d   1      57.429  -0.498  31.038  0.00  0.00    -0.184 NA
ATOM      2  C   UNL d   1      57.047  -1.011  31.568  0.00  0.00     0.281 C 
ATOM      3  O   UNL d   1      57.160  -1.825  31.505  0.00  0.00    -0.265 OA
ENDROOT
BRANCH   1   4
ATOM      4  C   UNL d   1      57.924  -0.813  30.445  0.00  0.00     0.182 A 
ATOM      5  N   UNL d   1      58.588  -0.449  30.138  0.00  0.00    -0.283 N 
ATOM      6  C   UNL d   1      58.918  -0.942  29.566  0.00  0.00     0.094 A 
ATOM      7  C   UNL d   1      59.592  -0.861  29.075  0.00  0.00     0.111 A 
ATOM      8  C   UNL d   1      58.458  -1.616  29.515  0.00  0.00     0.050 A 
ATOM      9  C   UNL d   1      59.780  -1.462  28.551  0.00  0.00     0.026 A 
ATOM     10  C   UNL d   1      59.323  -2.141  28.495  0.00  0.00     0.003 A 
ATOM     11  C   UNL d   1      58.657  -2.219  28.981  0.00  0.00     0.008 A 
ATOM     12  S   UNL d   1      57.839  -1.546  30.056  0.00  0.00    -0.048 SA
BRANCH   5  13
ATOM     13  C   UNL d   1      58.885   0.288  30.358  0.00  0.00     0.082 C 
ATOM     14  C   UNL d   1      59.413   0.204  30.982  0.00  0.00     0.021 C 
ENDBRANCH   5  13
BRANCH   7  15
ATOM     15  O   UNL d   1      60.050  -0.192  29.124  0.00  0.00    -0.327 OA
ATOM     16  C   UNL d   1      60.495   0.051  28.483  0.00  0.00     0.181 C 
ENDBRANCH   7  15
ENDBRANCH   1   4
BRANCH   2  17
ATOM     17  C   UNL d   1      56.555  -0.704  32.159  0.00  0.00     0.058 A 
ATOM     18  C   UNL d   1      56.121  -1.217  32.632  0.00  0.00     0.005 A 
ATOM     19  C   UNL d   1      55.629  -0.916  33.222  0.00  0.00     0.013 A 
ATOM     20  C   UNL d   1      55.574  -0.095  33.335  0.00  0.00     0.104 A 
ATOM     21  C   UNL d   1      56.017   0.416  32.849  0.00  0.00     0.013 A 
ATOM     22  C   UNL d   1      56.509   0.116  32.260  0.00  0.00     0.005 A 
BRANCH  20  23
ATOM     23  S   UNL d   1      55.084   0.209  33.922  0.00  0.00     0.271 S 
ATOM     24  O   UNL d   1      55.498  -0.273  34.463  0.00  0.00    -0.200 OA
ATOM     25  O   UNL d   1      54.680   0.681  33.389  0.00  0.00    -0.200 OA
BRANCH  23  26
ATOM     26  N   UNL d   1      54.596   0.510  34.512  0.00  0.00    -0.226 N 
ATOM     27  C   UNL d   1      53.791   0.644  34.354  0.00  0.00     0.111 C 
ATOM     28  C   UNL d   1      54.885   0.682  35.257  0.00  0.00     0.111 C 
ENDBRANCH  23  26
ENDBRANCH  20  23
ENDBRANCH   2  17
TORSDOF 6
ENDMDL
