MODEL 1
REMARK VINA RESULT:      -2.5      0.000      0.000
REMARK  1 active torsions:
REMARK  status: ('A' for Active; 'I' for Inactive)
REMARK    1  A    between atoms: C_2  and  C_1 
ROOT
ATOM      1  C   UNL d   1      24.226  13.051  -0.924  0.00  0.00     0.169 A 
ATOM      2  N   UNL d   1      24.570  13.713  -0.595  0.00  0.00    -0.142 NA
ATOM      3  N   UNL d   1      24.058  14.025  -0.027  0.00  0.00    -0.146 NA
ATOM      4  C   UNL d   1      23.491  12.936  -0.568  0.00  0.00     0.050 A 
ATOM      5  C   UNL d   1      23.386  13.538  -0.014  0.00  0.00     0.124 A 
ENDROOT
BRANCH   1   6
ATOM      6  C   UNL d   1      24.553  12.572  -1.514  0.00  0.00     0.231 C 
ATOM      7  O   UNL d   1      24.723  12.893  -2.255  0.00  0.00    -0.643 OA
ATOM      8  O   UNL d   1      24.708  11.779  -1.364  0.00  0.00    -0.643 OA
ENDBRANCH   1   6
TORSDOF 1
ENDMDL
MODEL 2
REMARK VINA RESULT:      -2.5      1.635      2.091
REMARK  1 active torsions:
REMARK  status: ('A' for Active; 'I' for Inactive)
REMARK    1  A    between atoms: C_2  and  C_1 
ROOT
ATOM      1  C   UNL d   1      23.987  12.807  -0.740  0.00  0.00     0.169 A 
ATOM      2  N   UNL d   1      24.234  12.944  -1.505  0.00  0.00    -0.142 NA
ATOM      3  N   UNL d   1      24.708  12.312  -1.749  0.00  0.00    -0.146 NA
ATOM      4  C   UNL d   1      24.303  12.086  -0.490  0.00  0.00     0.050 A 
ATOM      5  C   UNL d   1      24.747  11.781  -1.113  0.00  0.00     0.124 A 
ENDROOT
BRANCH   1   6
ATOM      6  C   UNL d   1      23.504  13.302  -0.286  0.00  0.00     0.231 C 
ATOM      7  O   UNL d   1      22.733  13.070  -0.107  0.00  0.00    -0.643 OA
ATOM      8  O   UNL d   1      23.792  14.022  -0.014  0.00  0.00    -0.643 OA
ENDBRANCH   1   6
TORSDOF 1
ENDMDL
MODEL 3
REMARK VINA RESULT:       0.5      9.846     10.102
REMARK  1 active torsions:
REMARK  status: ('A' for Active; 'I' for Inactive)
REMARK    1  A    between atoms: C_2  and  C_1 
ROOT
ATOM      1  C   UNL d   1      14.238  11.890  -1.347  0.00  0.00     0.169 A 
ATOM      2  N   UNL d   1      14.991  12.082  -1.098  0.00  0.00    -0.142 NA
ATOM      3  N   UNL d   1      15.003  12.095  -0.272  0.00  0.00    -0.146 NA
ATOM      4  C   UNL d   1      13.765  11.779  -0.680  0.00  0.00     0.050 A 
ATOM      5  C   UNL d   1      14.237  11.905  -0.016  0.00  0.00     0.124 A 
ENDROOT
BRANCH   1   6
ATOM      6  C   UNL d   1      13.987  11.818  -2.131  0.00  0.00     0.231 C 
ATOM      7  O   UNL d   1      13.181  11.779  -2.301  0.00  0.00    -0.643 OA
ATOM      8  O   UNL d   1      14.538  11.786  -2.740  0.00  0.00    -0.643 OA
ENDBRANCH   1   6
TORSDOF 1
ENDMDL
