MODEL 1
REMARK VINA RESULT:      44.8      0.000      0.000
REMARK  5 active torsions:
REMARK  status: ('A' for Active; 'I' for Inactive)
REMARK    1  A    between atoms: C_7  and  N_2 
REMARK    2  A    between atoms: C_15  and  C_7 
REMARK    3  A    between atoms: C_8  and  O_14 
REMARK    4  A    between atoms: O_17  and  C_9 
REMARK    5  A    between atoms: O_14  and  C_15 
ROOT
ATOM      1  C   UNL d   1      59.115  49.708  50.741  0.00  0.00     0.110 C 
ENDROOT
BRANCH   1   2
ATOM      2  N   UNL d   1      58.414  49.704  50.301  0.00  0.00    -0.266 N 
ATOM      3  C   UNL d   1      58.315  49.703  49.475  0.00  0.00     0.296 A 
ATOM      4  S   UNL d   1      57.500  49.699  49.314  0.00  0.00    -0.025 SA
ATOM      5  O   UNL d   1      58.925  49.705  48.919  0.00  0.00    -0.259 OA
ATOM      6  C   UNL d   1      57.099  49.698  50.041  0.00  0.00     0.050 A 
ATOM      7  C   UNL d   1      56.288  49.695  50.233  0.00  0.00     0.008 A 
ATOM      8  C   UNL d   1      57.659  49.701  50.646  0.00  0.00     0.074 A 
ATOM      9  C   UNL d   1      56.049  49.695  51.021  0.00  0.00     0.001 A 
ATOM     10  C   UNL d   1      56.611  49.698  51.624  0.00  0.00     0.002 A 
ATOM     11  C   UNL d   1      57.413  49.701  51.440  0.00  0.00     0.018 A 
ENDBRANCH   1   2
BRANCH   1  12
ATOM     12  C   UNL d   1      59.818  49.458  50.399  0.00  0.00     0.142 C 
BRANCH  12  13
ATOM     13  O   UNL d   1      60.443  49.183  50.881  0.00  0.00    -0.304 OA
BRANCH  13  14
ATOM     14  C   UNL d   1      60.733  48.414  50.776  0.00  0.00     0.100 A 
ATOM     15  C   UNL d   1      60.436  47.802  51.222  0.00  0.00     0.027 A 
ATOM     16  C   UNL d   1      60.726  47.034  51.117  0.00  0.00     0.026 A 
ATOM     17  C   UNL d   1      61.317  46.894  50.557  0.00  0.00     0.094 A 
ATOM     18  C   UNL d   1      61.610  47.527  50.110  0.00  0.00     0.026 A 
ATOM     19  C   UNL d   1      61.317  48.283  50.221  0.00  0.00     0.027 A 
BRANCH  17  20
ATOM     20  O   UNL d   1      61.609  46.135  50.449  0.00  0.00    -0.328 OA
ATOM     21  C   UNL d   1      61.491  45.745  49.731  0.00  0.00     0.181 C 
ENDBRANCH  17  20
ENDBRANCH  13  14
ENDBRANCH  12  13
ENDBRANCH   1  12
TORSDOF 5
ENDMDL
MODEL 2
REMARK VINA RESULT:      45.4      1.039      1.585
REMARK  5 active torsions:
REMARK  status: ('A' for Active; 'I' for Inactive)
REMARK    1  A    between atoms: C_7  and  N_2 
REMARK    2  A    between atoms: C_15  and  C_7 
REMARK    3  A    between atoms: C_8  and  O_14 
REMARK    4  A    between atoms: O_17  and  C_9 
REMARK    5  A    between atoms: O_14  and  C_15 
ROOT
ATOM      1  C   UNL d   1      58.819  49.354  50.613  0.00  0.00     0.110 C 
ENDROOT
BRANCH   1   2
ATOM      2  N   UNL d   1      58.011  49.478  50.741  0.00  0.00    -0.266 N 
ATOM      3  C   UNL d   1      57.611  49.620  51.456  0.00  0.00     0.296 A 
ATOM      4  S   UNL d   1      56.802  49.707  51.284  0.00  0.00    -0.025 SA
ATOM      5  O   UNL d   1      57.961  49.665  52.201  0.00  0.00    -0.259 OA
ATOM      6  C   UNL d   1      56.707  49.618  50.465  0.00  0.00     0.050 A 
ATOM      7  C   UNL d   1      56.034  49.647  49.972  0.00  0.00     0.008 A 
ATOM      8  C   UNL d   1      57.448  49.478  50.130  0.00  0.00     0.074 A 
ATOM      9  C   UNL d   1      56.110  49.537  49.160  0.00  0.00     0.001 A 
ATOM     10  C   UNL d   1      56.853  49.396  48.829  0.00  0.00     0.002 A 
ATOM     11  C   UNL d   1      57.519  49.367  49.310  0.00  0.00     0.018 A 
ENDBRANCH   1   2
BRANCH   1  12
ATOM     12  C   UNL d   1      59.373  49.687  51.119  0.00  0.00     0.142 C 
BRANCH  12  13
ATOM     13  O   UNL d   1      59.882  49.196  51.563  0.00  0.00    -0.304 OA
BRANCH  13  14
ATOM     14  C   UNL d   1      60.443  48.729  51.173  0.00  0.00     0.100 A 
ATOM     15  C   UNL d   1      61.028  49.080  50.731  0.00  0.00     0.027 A 
ATOM     16  C   UNL d   1      61.590  48.614  50.340  0.00  0.00     0.026 A 
ATOM     17  C   UNL d   1      61.552  47.791  50.404  0.00  0.00     0.094 A 
ATOM     18  C   UNL d   1      60.951  47.447  50.859  0.00  0.00     0.026 A 
ATOM     19  C   UNL d   1      60.400  47.917  51.240  0.00  0.00     0.027 A 
BRANCH  17  20
ATOM     20  O   UNL d   1      62.105  47.323  50.020  0.00  0.00    -0.328 OA
ATOM     21  C   UNL d   1      61.864  46.650  49.608  0.00  0.00     0.181 C 
ENDBRANCH  17  20
ENDBRANCH  13  14
ENDBRANCH  12  13
ENDBRANCH   1  12
TORSDOF 5
ENDMDL
