MODEL 1
REMARK VINA RESULT:      -3.0      0.000      0.000
REMARK  5 active torsions:
REMARK  status: ('A' for Active; 'I' for Inactive)
REMARK       I    between atoms: C_3  and  N_1 
REMARK    1  A    between atoms: S_7  and  C_2 
REMARK    2  A    between atoms: C_6  and  C_3 
REMARK    3  A    between atoms: N_4  and  C_8 
REMARK    4  A    between atoms: C_17  and  S_7 
REMARK    5  A    between atoms: C_18  and  C_17 
ROOT
ATOM      1  N   UNL d   1      31.725  16.663 -23.998  0.00  0.00    -0.251 N 
ATOM      2  C   UNL d   1      32.426  17.077 -23.843  0.00  0.00     0.182 A 
ATOM      3  C   UNL d   1      30.971  16.990 -24.075  0.00  0.00     0.266 C 
ATOM      4  N   UNL d   1      33.037  16.530 -23.814  0.00  0.00    -0.219 NA
ATOM      5  O   UNL d   1      30.861  17.806 -23.996  0.00  0.00    -0.267 OA
ATOM      6  C   UNL d   1      31.911  15.854 -24.065  0.00  0.00     0.106 A 
ATOM      7  C   UNL d   1      32.729  15.777 -23.949  0.00  0.00     0.120 A 
ENDROOT
BRANCH   2   8
ATOM      8  S   UNL d   1      32.485  17.891 -23.739  0.00  0.00    -0.049 SA
BRANCH   8   9
ATOM      9  C   UNL d   1      33.114  18.203 -23.320  0.00  0.00     0.038 C 
BRANCH   9  10
ATOM     10  C   UNL d   1      33.138  19.005 -23.150  0.00  0.00     0.007 A 
ATOM     11  C   UNL d   1      33.086  19.262 -22.362  0.00  0.00     0.002 A 
ATOM     12  C   UNL d   1      33.111  20.072 -22.192  0.00  0.00     0.024 A 
ATOM     13  C   UNL d   1      33.186  20.614 -22.804  0.00  0.00     0.127 A 
ATOM     14  C   UNL d   1      33.238  20.365 -23.584  0.00  0.00     0.024 A 
ATOM     15  C   UNL d   1      33.214  19.558 -23.754  0.00  0.00     0.002 A 
BRANCH  13  16
ATOM     16  N   UNL d   1      33.210  21.424 -22.626  0.00  0.00    -0.114 N 
ATOM     17  O   UNL d   1      33.241  21.992 -23.245  0.00  0.00    -0.532 OA
ATOM     18  O   UNL d   1      33.204  21.687 -21.835  0.00  0.00    -0.532 OA
ENDBRANCH  13  16
ENDBRANCH   9  10
ENDBRANCH   8   9
ENDBRANCH   2   8
BRANCH   3  19
ATOM     19  C   UNL d   1      30.319  16.500 -24.231  0.00  0.00     0.057 A 
ATOM     20  C   UNL d   1      29.704  16.449 -23.676  0.00  0.00     0.005 A 
ATOM     21  C   UNL d   1      29.064  15.959 -23.844  0.00  0.00     0.000 A 
ATOM     22  C   UNL d   1      28.448  15.906 -23.292  0.00  0.00     0.000 C 
ATOM     23  C   UNL d   1      29.034  15.527 -24.551  0.00  0.00     0.000 A 
ATOM     24  C   UNL d   1      29.646  15.582 -25.094  0.00  0.00     0.000 A 
ATOM     25  C   UNL d   1      30.290  16.070 -24.934  0.00  0.00     0.005 A 
ENDBRANCH   3  19
TORSDOF 5
ENDMDL
MODEL 2
REMARK VINA RESULT:      -2.8      1.656      2.620
REMARK  5 active torsions:
REMARK  status: ('A' for Active; 'I' for Inactive)
REMARK       I    between atoms: C_3  and  N_1 
REMARK    1  A    between atoms: S_7  and  C_2 
REMARK    2  A    between atoms: C_6  and  C_3 
REMARK    3  A    between atoms: N_4  and  C_8 
REMARK    4  A    between atoms: C_17  and  S_7 
REMARK    5  A    between atoms: C_18  and  C_17 
ROOT
ATOM      1  N   UNL d   1      32.804  18.544 -23.879  0.00  0.00    -0.251 N 
ATOM      2  C   UNL d   1      32.949  19.352 -23.768  0.00  0.00     0.182 A 
ATOM      3  C   UNL d   1      32.714  17.977 -23.286  0.00  0.00     0.266 C 
ATOM      4  N   UNL d   1      32.997  19.702 -24.509  0.00  0.00    -0.219 NA
ATOM      5  O   UNL d   1      32.767  18.195 -22.490  0.00  0.00    -0.267 OA
ATOM      6  C   UNL d   1      32.763  18.399 -24.698  0.00  0.00     0.106 A 
ATOM      7  C   UNL d   1      32.884  19.122 -25.085  0.00  0.00     0.120 A 
ENDROOT
BRANCH   2   8
ATOM      8  S   UNL d   1      33.029  19.726 -23.039  0.00  0.00    -0.049 SA
BRANCH   8   9
ATOM      9  C   UNL d   1      33.240  20.515 -23.007  0.00  0.00     0.038 C 
BRANCH   9  10
ATOM     10  C   UNL d   1      33.093  20.953 -22.329  0.00  0.00     0.007 A 
ATOM     11  C   UNL d   1      33.208  20.610 -21.582  0.00  0.00     0.002 A 
ATOM     12  C   UNL d   1      33.060  21.053 -20.899  0.00  0.00     0.024 A 
ATOM     13  C   UNL d   1      32.801  21.829 -20.966  0.00  0.00     0.127 A 
ATOM     14  C   UNL d   1      32.686  22.174 -21.702  0.00  0.00     0.024 A 
ATOM     15  C   UNL d   1      32.833  21.732 -22.383  0.00  0.00     0.002 A 
BRANCH  13  16
ATOM     16  N   UNL d   1      32.655  22.268 -20.278  0.00  0.00    -0.114 N 
ATOM     17  O   UNL d   1      31.923  22.671 -20.180  0.00  0.00    -0.532 OA
ATOM     18  O   UNL d   1      33.226  22.316 -19.673  0.00  0.00    -0.532 OA
ENDBRANCH  13  16
ENDBRANCH   9  10
ENDBRANCH   8   9
ENDBRANCH   2   8
BRANCH   3  19
ATOM     19  C   UNL d   1      32.570  17.185 -23.487  0.00  0.00     0.057 A 
ATOM     20  C   UNL d   1      31.788  16.920 -23.567  0.00  0.00     0.005 A 
ATOM     21  C   UNL d   1      31.659  16.131 -23.766  0.00  0.00     0.000 A 
ATOM     22  C   UNL d   1      30.879  15.863 -23.847  0.00  0.00     0.000 C 
ATOM     23  C   UNL d   1      32.296  15.614 -23.885  0.00  0.00     0.000 A 
ATOM     24  C   UNL d   1      33.066  15.883 -23.804  0.00  0.00     0.000 A 
ATOM     25  C   UNL d   1      33.204  16.670 -23.605  0.00  0.00     0.005 A 
ENDBRANCH   3  19
TORSDOF 5
ENDMDL
MODEL 3
REMARK VINA RESULT:      -1.8      1.898      5.570
REMARK  5 active torsions:
REMARK  status: ('A' for Active; 'I' for Inactive)
REMARK       I    between atoms: C_3  and  N_1 
REMARK    1  A    between atoms: S_7  and  C_2 
REMARK    2  A    between atoms: C_6  and  C_3 
REMARK    3  A    between atoms: N_4  and  C_8 
REMARK    4  A    between atoms: C_17  and  S_7 
REMARK    5  A    between atoms: C_18  and  C_17 
ROOT
ATOM      1  N   UNL d   1      32.884  21.011 -22.633  0.00  0.00    -0.251 N 
ATOM      2  C   UNL d   1      32.902  20.434 -23.228  0.00  0.00     0.182 A 
ATOM      3  C   UNL d   1      32.693  20.889 -21.840  0.00  0.00     0.266 C 
ATOM      4  N   UNL d   1      33.120  20.802 -23.927  0.00  0.00    -0.219 NA
ATOM      5  O   UNL d   1      32.493  20.134 -21.570  0.00  0.00    -0.267 OA
ATOM      6  C   UNL d   1      33.095  21.740 -22.975  0.00  0.00     0.106 A 
ATOM      7  C   UNL d   1      33.241  21.605 -23.780  0.00  0.00     0.120 A 
ENDROOT
BRANCH   2   8
ATOM      8  S   UNL d   1      32.728  19.636 -23.122  0.00  0.00    -0.049 SA
BRANCH   8   9
ATOM      9  C   UNL d   1      32.693  19.138 -23.769  0.00  0.00     0.038 C 
BRANCH   9  10
ATOM     10  C   UNL d   1      32.590  18.331 -23.663  0.00  0.00     0.007 A 
ATOM     11  C   UNL d   1      31.824  18.016 -23.598  0.00  0.00     0.002 A 
ATOM     12  C   UNL d   1      31.723  17.202 -23.491  0.00  0.00     0.024 A 
ATOM     13  C   UNL d   1      32.380  16.712 -23.450  0.00  0.00     0.127 A 
ATOM     14  C   UNL d   1      33.139  17.017 -23.513  0.00  0.00     0.024 A 
ATOM     15  C   UNL d   1      33.241  17.829 -23.620  0.00  0.00     0.002 A 
BRANCH  13  16
ATOM     16  N   UNL d   1      32.271  15.897 -23.342  0.00  0.00    -0.114 N 
ATOM     17  O   UNL d   1      32.717  15.483 -22.762  0.00  0.00    -0.532 OA
ATOM     18  O   UNL d   1      31.719  15.476 -23.804  0.00  0.00    -0.532 OA
ENDBRANCH  13  16
ENDBRANCH   9  10
ENDBRANCH   8   9
ENDBRANCH   2   8
BRANCH   3  19
ATOM     19  C   UNL d   1      32.701  21.527 -21.308  0.00  0.00     0.057 A 
ATOM     20  C   UNL d   1      32.177  22.161 -21.424  0.00  0.00     0.005 A 
ATOM     21  C   UNL d   1      32.195  22.788 -20.889  0.00  0.00     0.000 A 
ATOM     22  C   UNL d   1      31.674  23.421 -21.001  0.00  0.00     0.000 C 
ATOM     23  C   UNL d   1      32.724  22.785 -20.251  0.00  0.00     0.000 A 
ATOM     24  C   UNL d   1      33.238  22.156 -20.143  0.00  0.00     0.000 A 
ATOM     25  C   UNL d   1      33.227  21.525 -20.673  0.00  0.00     0.005 A 
ENDBRANCH   3  19
TORSDOF 5
ENDMDL
MODEL 4
REMARK VINA RESULT:      -0.7      1.087      1.514
REMARK  5 active torsions:
REMARK  status: ('A' for Active; 'I' for Inactive)
REMARK       I    between atoms: C_3  and  N_1 
REMARK    1  A    between atoms: S_7  and  C_2 
REMARK    2  A    between atoms: C_6  and  C_3 
REMARK    3  A    between atoms: N_4  and  C_8 
REMARK    4  A    between atoms: C_17  and  S_7 
REMARK    5  A    between atoms: C_18  and  C_17 
ROOT
ATOM      1  N   UNL d   1      32.103  17.702 -23.600  0.00  0.00    -0.251 N 
ATOM      2  C   UNL d   1      32.669  18.164 -23.208  0.00  0.00     0.182 A 
ATOM      3  C   UNL d   1      31.428  17.979 -23.985  0.00  0.00     0.266 C 
ATOM      4  N   UNL d   1      33.241  17.657 -22.908  0.00  0.00    -0.219 NA
ATOM      5  O   UNL d   1      31.263  18.789 -24.006  0.00  0.00    -0.267 OA
ATOM      6  C   UNL d   1      32.332  16.904 -23.538  0.00  0.00     0.106 A 
ATOM      7  C   UNL d   1      33.041  16.882 -23.107  0.00  0.00     0.120 A 
ENDROOT
BRANCH   2   8
ATOM      8  S   UNL d   1      32.649  18.984 -23.139  0.00  0.00    -0.049 SA
BRANCH   8   9
ATOM      9  C   UNL d   1      32.860  19.338 -22.433  0.00  0.00     0.038 C 
BRANCH   9  10
ATOM     10  C   UNL d   1      32.857  20.155 -22.365  0.00  0.00     0.007 A 
ATOM     11  C   UNL d   1      33.222  20.620 -22.950  0.00  0.00     0.002 A 
ATOM     12  C   UNL d   1      33.218  21.445 -22.880  0.00  0.00     0.024 A 
ATOM     13  C   UNL d   1      32.853  21.796 -22.234  0.00  0.00     0.127 A 
ATOM     14  C   UNL d   1      32.492  21.343 -21.654  0.00  0.00     0.024 A 
ATOM     15  C   UNL d   1      32.495  20.520 -21.723  0.00  0.00     0.002 A 
BRANCH  13  16
ATOM     16  N   UNL d   1      32.853  22.624 -22.171  0.00  0.00    -0.114 N 
ATOM     17  O   UNL d   1      32.978  22.991 -21.424  0.00  0.00    -0.532 OA
ATOM     18  O   UNL d   1      32.731  23.103 -22.841  0.00  0.00    -0.532 OA
ENDBRANCH  13  16
ENDBRANCH   9  10
ENDBRANCH   8   9
ENDBRANCH   2   8
BRANCH   3  19
ATOM     19  C   UNL d   1      30.911  17.444 -24.354  0.00  0.00     0.057 A 
ATOM     20  C   UNL d   1      30.094  17.593 -24.345  0.00  0.00     0.005 A 
ATOM     21  C   UNL d   1      29.593  17.054 -24.714  0.00  0.00     0.000 A 
ATOM     22  C   UNL d   1      28.778  17.200 -24.707  0.00  0.00     0.000 C 
ATOM     23  C   UNL d   1      29.897  16.379 -25.086  0.00  0.00     0.000 A 
ATOM     24  C   UNL d   1      30.704  16.238 -25.091  0.00  0.00     0.000 A 
ATOM     25  C   UNL d   1      31.213  16.772 -24.724  0.00  0.00     0.005 A 
ENDBRANCH   3  19
TORSDOF 5
ENDMDL
