MODEL 1
REMARK VINA RESULT:       0.8      0.000      0.000
REMARK  5 active torsions:
REMARK  status: ('A' for Active; 'I' for Inactive)
REMARK    1  A    between atoms: C_5  and  C_1 
REMARK    2  A    between atoms: C_9  and  N_2 
REMARK    3  A    between atoms: N_8  and  C_5 
REMARK    4  A    between atoms: N_6  and  C_10 
REMARK    5  A    between atoms: C_18  and  N_8 
ROOT
ATOM      1  C   UNL d   1      59.300  -9.616  33.619  0.00  0.00     0.067 A 
ATOM      2  N   UNL d   1      58.893  -9.631  32.308  0.00  0.00    -0.230 N 
ATOM      3  C   UNL d   1      58.619  -9.685  33.115  0.00  0.00     0.087 A 
ATOM      4  N   UNL d   1      59.740  -9.529  32.319  0.00  0.00    -0.164 NA
ATOM      5  C   UNL d   1      59.989  -9.521  33.130  0.00  0.00     0.124 A 
ATOM      6  C   UNL d   1      57.844  -9.784  33.354  0.00  0.00     0.021 C 
ENDROOT
BRANCH   1   7
ATOM      7  C   UNL d   1      59.291  -9.640  34.444  0.00  0.00     0.139 C 
ATOM      8  S   UNL d   1      58.599  -9.812  34.839  0.00  0.00    -0.057 SA
BRANCH   7   9
ATOM      9  N   UNL d   1      59.975  -9.489  34.863  0.00  0.00    -0.235 NA
BRANCH   9  10
ATOM     10  C   UNL d   1      60.051  -8.792  35.271  0.00  0.00     0.082 A 
ATOM     11  C   UNL d   1      59.478  -8.562  35.808  0.00  0.00     0.019 A 
ATOM     12  C   UNL d   1      59.559  -7.871  36.210  0.00  0.00     0.002 A 
ATOM     13  C   UNL d   1      60.216  -7.389  36.086  0.00  0.00     0.000 A 
ATOM     14  C   UNL d   1      60.786  -7.612  35.555  0.00  0.00     0.002 A 
ATOM     15  C   UNL d   1      60.707  -8.316  35.144  0.00  0.00     0.019 A 
ENDBRANCH   9  10
ENDBRANCH   7   9
ENDBRANCH   1   7
BRANCH   2  16
ATOM     16  C   UNL d   1      58.426  -9.669  31.629  0.00  0.00     0.083 A 
ATOM     17  C   UNL d   1      58.790  -9.620  30.885  0.00  0.00     0.021 A 
ATOM     18  C   UNL d   1      58.331  -9.658  30.199  0.00  0.00     0.025 A 
ATOM     19  C   UNL d   1      57.507  -9.743  30.258  0.00  0.00     0.127 A 
ATOM     20  C   UNL d   1      57.143  -9.791  31.003  0.00  0.00     0.025 A 
ATOM     21  C   UNL d   1      57.610  -9.753  31.683  0.00  0.00     0.021 A 
BRANCH  19  22
ATOM     22  N   UNL d   1      57.048  -9.780  29.573  0.00  0.00    -0.114 N 
ATOM     23  O   UNL d   1      57.406  -9.816  28.832  0.00  0.00    -0.532 OA
ATOM     24  O   UNL d   1      56.222  -9.781  29.624  0.00  0.00    -0.532 OA
ENDBRANCH  19  22
ENDBRANCH   2  16
TORSDOF 5
ENDMDL
MODEL 2
REMARK VINA RESULT:       1.1      8.682      9.088
REMARK  5 active torsions:
REMARK  status: ('A' for Active; 'I' for Inactive)
REMARK    1  A    between atoms: C_5  and  C_1 
REMARK    2  A    between atoms: C_9  and  N_2 
REMARK    3  A    between atoms: N_8  and  C_5 
REMARK    4  A    between atoms: N_6  and  C_10 
REMARK    5  A    between atoms: C_18  and  N_8 
ROOT
ATOM      1  C   UNL d   1      58.423   0.043  30.305  0.00  0.00     0.067 A 
ATOM      2  N   UNL d   1      59.137  -0.977  29.726  0.00  0.00    -0.230 N 
ATOM      3  C   UNL d   1      58.403  -0.786  30.118  0.00  0.00     0.087 A 
ATOM      4  N   UNL d   1      59.604  -0.265  29.673  0.00  0.00    -0.164 NA
ATOM      5  C   UNL d   1      59.162   0.363  30.031  0.00  0.00     0.124 A 
ATOM      6  C   UNL d   1      57.796  -1.308  30.282  0.00  0.00     0.021 C 
ENDROOT
BRANCH   1   7
ATOM      7  C   UNL d   1      57.825   0.463  30.688  0.00  0.00     0.139 C 
ATOM      8  S   UNL d   1      57.144   0.659  30.287  0.00  0.00    -0.057 SA
BRANCH   7   9
ATOM      9  N   UNL d   1      57.918   0.682  31.469  0.00  0.00    -0.235 NA
BRANCH   9  10
ATOM     10  C   UNL d   1      57.331   0.517  32.005  0.00  0.00     0.082 A 
ATOM     11  C   UNL d   1      57.515   0.387  32.792  0.00  0.00     0.019 A 
ATOM     12  C   UNL d   1      56.931   0.224  33.319  0.00  0.00     0.002 A 
ATOM     13  C   UNL d   1      56.144   0.186  33.073  0.00  0.00     0.000 A 
ATOM     14  C   UNL d   1      55.957   0.313  32.295  0.00  0.00     0.002 A 
ATOM     15  C   UNL d   1      56.550   0.480  31.756  0.00  0.00     0.019 A 
ENDBRANCH   9  10
ENDBRANCH   7   9
ENDBRANCH   1   7
BRANCH   2  16
ATOM     16  C   UNL d   1      59.363  -1.718  29.443  0.00  0.00     0.083 A 
ATOM     17  C   UNL d   1      58.813  -2.340  29.451  0.00  0.00     0.021 A 
ATOM     18  C   UNL d   1      59.032  -3.085  29.170  0.00  0.00     0.025 A 
ATOM     19  C   UNL d   1      59.800  -3.208  28.880  0.00  0.00     0.127 A 
ATOM     20  C   UNL d   1      60.349  -2.586  28.871  0.00  0.00     0.025 A 
ATOM     21  C   UNL d   1      60.123  -1.844  29.154  0.00  0.00     0.021 A 
BRANCH  19  22
ATOM     22  N   UNL d   1      60.018  -3.954  28.598  0.00  0.00    -0.114 N 
ATOM     23  O   UNL d   1      59.446  -4.530  28.456  0.00  0.00    -0.532 OA
ATOM     24  O   UNL d   1      60.814  -4.129  28.456  0.00  0.00    -0.532 OA
ENDBRANCH  19  22
ENDBRANCH   2  16
TORSDOF 5
ENDMDL
