MODEL 1
REMARK VINA RESULT:       6.8      0.000      0.000
REMARK  6 active torsions:
REMARK  status: ('A' for Active; 'I' for Inactive)
REMARK    1  A    between atoms: N_5  and  S_1 
REMARK    2  A    between atoms: C_6  and  S_1 
REMARK    3  A    between atoms: C_2  and  C_14 
REMARK    4  A    between atoms: C_8  and  N_5 
REMARK    5  A    between atoms: C_7  and  C_8 
REMARK       I    between atoms: N_11  and  C_7 
REMARK    6  A    between atoms: C_20  and  N_11 
ROOT
ATOM      1  C   UNL d   1     -41.779-122.132 -50.593  0.00  0.00     0.298 C 
ATOM      2  N   UNL d   1     -41.186-122.215 -51.154  0.00  0.00    -0.207 NA
ATOM      3  O   UNL d   1     -42.561-122.021 -50.830  0.00  0.00    -0.264 OA
ENDROOT
BRANCH   1   4
ATOM      4  C   UNL d   1     -41.585-122.161 -49.796  0.00  0.00     0.151 C 
ATOM      5  C   UNL d   1     -41.520-121.457 -49.360  0.00  0.00     0.027 C 
BRANCH   4   6
ATOM      6  N   UNL d   1     -41.455-122.875 -49.422  0.00  0.00    -0.153 NA
BRANCH   6   7
ATOM      7  S   UNL d   1     -41.889-123.088 -48.753  0.00  0.00     0.285 S 
ATOM      8  O   UNL d   1     -42.276-122.360 -48.773  0.00  0.00    -0.198 OA
ATOM      9  O   UNL d   1     -41.502-123.816 -48.732  0.00  0.00    -0.198 OA
BRANCH   7  10
ATOM     10  C   UNL d   1     -42.321-123.299 -48.088  0.00  0.00     0.105 A 
ATOM     11  C   UNL d   1     -41.943-123.357 -47.363  0.00  0.00     0.012 A 
ATOM     12  C   UNL d   1     -42.379-123.571 -46.685  0.00  0.00     0.001 A 
ATOM     13  C   UNL d   1     -41.123-123.201 -47.307  0.00  0.00     0.001 C 
ATOM     14  C   UNL d   1     -43.181-123.722 -46.744  0.00  0.00     0.000 A 
ATOM     15  C   UNL d   1     -43.561-123.663 -47.475  0.00  0.00     0.001 A 
ATOM     16  C   UNL d   1     -43.124-123.450 -48.147  0.00  0.00     0.013 A 
ATOM     17  C   UNL d   1     -44.378-123.818 -47.535  0.00  0.00     0.000 C 
ENDBRANCH   7  10
ENDBRANCH   6   7
ENDBRANCH   4   6
ENDBRANCH   1   4
BRANCH   2  18
ATOM     18  C   UNL d   1     -41.376-122.188 -51.956  0.00  0.00     0.085 A 
ATOM     19  C   UNL d   1     -41.719-121.508 -52.265  0.00  0.00     0.019 A 
ATOM     20  C   UNL d   1     -41.917-121.465 -53.074  0.00  0.00     0.004 A 
ATOM     21  C   UNL d   1     -41.768-122.106 -53.567  0.00  0.00     0.024 A 
ATOM     22  C   UNL d   1     -41.423-122.789 -53.258  0.00  0.00     0.004 A 
ATOM     23  C   UNL d   1     -41.225-122.837 -52.458  0.00  0.00     0.019 A 
BRANCH  21  24
ATOM     24  C   UNL d   1     -41.969-122.051 -54.371  0.00  0.00     0.111 A 
ATOM     25  N   UNL d   1     -41.524-121.626 -54.914  0.00  0.00    -0.239 NA
ATOM     26  C   UNL d   1     -41.883-121.691 -55.655  0.00  0.00     0.088 A 
ATOM     27  C   UNL d   1     -41.688-121.387 -56.394  0.00  0.00     0.020 A 
ATOM     28  C   UNL d   1     -42.555-122.161 -55.566  0.00  0.00     0.049 A 
ATOM     29  C   UNL d   1     -42.164-121.552 -57.045  0.00  0.00     0.002 A 
ATOM     30  C   UNL d   1     -42.837-122.022 -56.956  0.00  0.00     0.001 A 
ATOM     31  C   UNL d   1     -43.033-122.327 -56.216  0.00  0.00     0.008 A 
ATOM     32  S   UNL d   1     -42.608-122.383 -54.770  0.00  0.00    -0.066 SA
ENDBRANCH  21  24
ENDBRANCH   2  18
TORSDOF 6
ENDMDL
MODEL 2
REMARK VINA RESULT:       8.0      0.887      1.436
REMARK  6 active torsions:
REMARK  status: ('A' for Active; 'I' for Inactive)
REMARK    1  A    between atoms: N_5  and  S_1 
REMARK    2  A    between atoms: C_6  and  S_1 
REMARK    3  A    between atoms: C_2  and  C_14 
REMARK    4  A    between atoms: C_8  and  N_5 
REMARK    5  A    between atoms: C_7  and  C_8 
REMARK       I    between atoms: N_11  and  C_7 
REMARK    6  A    between atoms: C_20  and  N_11 
ROOT
ATOM      1  C   UNL d   1     -41.972-123.284 -51.102  0.00  0.00     0.298 C 
ATOM      2  N   UNL d   1     -41.456-123.500 -51.702  0.00  0.00    -0.207 NA
ATOM      3  O   UNL d   1     -42.572-122.738 -51.248  0.00  0.00    -0.264 OA
ENDROOT
BRANCH   1   4
ATOM      4  C   UNL d   1     -41.884-123.619 -50.357  0.00  0.00     0.151 C 
ATOM      5  C   UNL d   1     -41.128-123.813 -50.076  0.00  0.00     0.027 C 
BRANCH   4   6
ATOM      6  N   UNL d   1     -42.534-123.764 -49.885  0.00  0.00    -0.153 NA
BRANCH   6   7
ATOM      7  S   UNL d   1     -42.525-123.574 -49.082  0.00  0.00     0.285 S 
ATOM      8  O   UNL d   1     -43.350-123.549 -49.079  0.00  0.00    -0.198 OA
ATOM      9  O   UNL d   1     -41.700-123.599 -49.085  0.00  0.00    -0.198 OA
BRANCH   7  10
ATOM     10  C   UNL d   1     -42.517-123.384 -48.283  0.00  0.00     0.105 A 
ATOM     11  C   UNL d   1     -43.193-123.500 -47.834  0.00  0.00     0.012 A 
ATOM     12  C   UNL d   1     -43.188-123.308 -47.023  0.00  0.00     0.001 A 
ATOM     13  C   UNL d   1     -43.883-123.809 -48.192  0.00  0.00     0.001 C 
ATOM     14  C   UNL d   1     -42.511-123.006 -46.677  0.00  0.00     0.000 A 
ATOM     15  C   UNL d   1     -41.830-122.890 -47.130  0.00  0.00     0.001 A 
ATOM     16  C   UNL d   1     -41.839-123.082 -47.937  0.00  0.00     0.013 A 
ATOM     17  C   UNL d   1     -41.141-122.582 -46.777  0.00  0.00     0.000 C 
ENDBRANCH   7  10
ENDBRANCH   6   7
ENDBRANCH   4   6
ENDBRANCH   1   4
BRANCH   2  18
ATOM     18  C   UNL d   1     -41.540-123.167 -52.452  0.00  0.00     0.085 A 
ATOM     19  C   UNL d   1     -41.664-123.658 -53.100  0.00  0.00     0.019 A 
ATOM     20  C   UNL d   1     -41.751-123.336 -53.864  0.00  0.00     0.004 A 
ATOM     21  C   UNL d   1     -41.712-122.522 -53.972  0.00  0.00     0.024 A 
ATOM     22  C   UNL d   1     -41.588-122.027 -53.323  0.00  0.00     0.004 A 
ATOM     23  C   UNL d   1     -41.501-122.341 -52.564  0.00  0.00     0.019 A 
BRANCH  21  24
ATOM     24  C   UNL d   1     -41.800-122.213 -54.738  0.00  0.00     0.111 A 
ATOM     25  N   UNL d   1     -41.535-121.466 -54.951  0.00  0.00    -0.239 NA
ATOM     26  C   UNL d   1     -41.713-121.342 -55.748  0.00  0.00     0.088 A 
ATOM     27  C   UNL d   1     -41.582-120.706 -56.253  0.00  0.00     0.020 A 
ATOM     28  C   UNL d   1     -42.091-122.020 -56.028  0.00  0.00     0.049 A 
ATOM     29  C   UNL d   1     -41.828-120.747 -57.038  0.00  0.00     0.002 A 
ATOM     30  C   UNL d   1     -42.206-121.424 -57.317  0.00  0.00     0.001 A 
ATOM     31  C   UNL d   1     -42.338-122.062 -56.812  0.00  0.00     0.008 A 
ATOM     32  S   UNL d   1     -42.145-122.559 -55.401  0.00  0.00    -0.066 SA
ENDBRANCH  21  24
ENDBRANCH   2  18
TORSDOF 6
ENDMDL
