MODEL 1
REMARK VINA RESULT:      -6.5      0.000      0.000
REMARK  5 active torsions:
REMARK  status: ('A' for Active; 'I' for Inactive)
REMARK    1  A    between atoms: C_7  and  C_1 
REMARK    2  A    between atoms: N_6  and  C_3 
REMARK       I    between atoms: C_8  and  N_6 
REMARK    3  A    between atoms: C_9  and  C_8 
REMARK    4  A    between atoms: C_11  and  C_9 
REMARK    5  A    between atoms: C_16  and  C_11 
ROOT
ATOM      1  N   UNL d   1     -41.243-122.897 -51.514  0.00  0.00    -0.165 NA
ATOM      2  C   UNL d   1     -41.694-123.290 -50.962  0.00  0.00     0.282 C 
ATOM      3  O   UNL d   1     -42.283-123.816 -51.201  0.00  0.00    -0.265 OA
ENDROOT
BRANCH   1   4
ATOM      4  C   UNL d   1     -41.369-123.021 -52.317  0.00  0.00     0.297 A 
ATOM      5  O   UNL d   1     -41.607-122.446 -52.855  0.00  0.00    -0.252 OA
ATOM      6  C   UNL d   1     -41.667-122.803 -53.597  0.00  0.00     0.229 A 
ATOM      7  N   UNL d   1     -41.466-123.591 -53.509  0.00  0.00    -0.117 NA
ATOM      8  N   UNL d   1     -41.282-123.725 -52.720  0.00  0.00    -0.101 NA
BRANCH   6   9
ATOM      9  C   UNL d   1     -41.890-122.425 -54.295  0.00  0.00     0.143 A 
ATOM     10  O   UNL d   1     -42.597-122.034 -54.428  0.00  0.00    -0.301 OA
ATOM     11  C   UNL d   1     -42.585-121.741 -55.196  0.00  0.00     0.123 A 
ATOM     12  C   UNL d   1     -41.865-121.953 -55.541  0.00  0.00     0.029 A 
ATOM     13  C   UNL d   1     -41.435-122.375 -54.986  0.00  0.00     0.030 A 
ENDBRANCH   6   9
ENDBRANCH   1   4
BRANCH   2  14
ATOM     14  C   UNL d   1     -41.567-123.166 -50.156  0.00  0.00     0.063 C 
BRANCH  14  15
ATOM     15  C   UNL d   1     -42.095-123.474 -49.614  0.00  0.00     0.005 C 
BRANCH  15  16
ATOM     16  C   UNL d   1     -41.969-123.353 -48.803  0.00  0.00     0.000 A 
ATOM     17  C   UNL d   1     -42.582-123.057 -48.336  0.00  0.00     0.000 A 
ATOM     18  C   UNL d   1     -42.457-122.937 -47.530  0.00  0.00     0.000 A 
ATOM     19  C   UNL d   1     -41.722-123.113 -47.195  0.00  0.00     0.000 A 
ATOM     20  C   UNL d   1     -41.124-123.406 -47.673  0.00  0.00     0.000 A 
ATOM     21  C   UNL d   1     -41.243-123.526 -48.470  0.00  0.00     0.000 A 
ENDBRANCH  15  16
ENDBRANCH  14  15
ENDBRANCH   2  14
TORSDOF 5
ENDMDL
MODEL 2
REMARK VINA RESULT:      -5.3      1.246      5.461
REMARK  5 active torsions:
REMARK  status: ('A' for Active; 'I' for Inactive)
REMARK    1  A    between atoms: C_7  and  C_1 
REMARK    2  A    between atoms: N_6  and  C_3 
REMARK       I    between atoms: C_8  and  N_6 
REMARK    3  A    between atoms: C_9  and  C_8 
REMARK    4  A    between atoms: C_11  and  C_9 
REMARK    5  A    between atoms: C_16  and  C_11 
ROOT
ATOM      1  N   UNL d   1     -41.927-121.989 -51.566  0.00  0.00    -0.165 NA
ATOM      2  C   UNL d   1     -41.588-122.370 -52.200  0.00  0.00     0.282 C 
ATOM      3  O   UNL d   1     -41.130-123.046 -52.086  0.00  0.00    -0.265 OA
ENDROOT
BRANCH   1   4
ATOM      4  C   UNL d   1     -41.818-122.275 -50.803  0.00  0.00     0.297 A 
ATOM      5  O   UNL d   1     -42.393-122.645 -50.346  0.00  0.00    -0.252 OA
ATOM      6  C   UNL d   1     -42.052-122.844 -49.621  0.00  0.00     0.229 A 
ATOM      7  N   UNL d   1     -41.273-122.595 -49.638  0.00  0.00    -0.117 NA
ATOM      8  N   UNL d   1     -41.129-122.245 -50.366  0.00  0.00    -0.101 NA
BRANCH   6   9
ATOM      9  C   UNL d   1     -42.436-123.225 -48.998  0.00  0.00     0.143 A 
ATOM     10  O   UNL d   1     -43.220-123.462 -48.986  0.00  0.00    -0.301 OA
ATOM     11  C   UNL d   1     -43.367-123.817 -48.260  0.00  0.00     0.123 A 
ATOM     12  C   UNL d   1     -42.668-123.799 -47.819  0.00  0.00     0.029 A 
ATOM     13  C   UNL d   1     -42.093-123.434 -48.273  0.00  0.00     0.030 A 
ENDBRANCH   6   9
ENDBRANCH   1   4
BRANCH   2  14
ATOM     14  C   UNL d   1     -41.698-122.081 -52.965  0.00  0.00     0.063 C 
BRANCH  14  15
ATOM     15  C   UNL d   1     -41.519-122.558 -53.604  0.00  0.00     0.005 C 
BRANCH  15  16
ATOM     16  C   UNL d   1     -41.752-122.330 -54.366  0.00  0.00     0.000 A 
ATOM     17  C   UNL d   1     -42.521-122.058 -54.492  0.00  0.00     0.000 A 
ATOM     18  C   UNL d   1     -42.752-121.831 -55.251  0.00  0.00     0.000 A 
ATOM     19  C   UNL d   1     -42.216-121.877 -55.878  0.00  0.00     0.000 A 
ATOM     20  C   UNL d   1     -41.456-122.151 -55.736  0.00  0.00     0.000 A 
ATOM     21  C   UNL d   1     -41.223-122.376 -54.988  0.00  0.00     0.000 A 
ENDBRANCH  15  16
ENDBRANCH  14  15
ENDBRANCH   2  14
TORSDOF 5
ENDMDL
MODEL 3
REMARK VINA RESULT:      -5.1      1.386      5.514
REMARK  5 active torsions:
REMARK  status: ('A' for Active; 'I' for Inactive)
REMARK    1  A    between atoms: C_7  and  C_1 
REMARK    2  A    between atoms: N_6  and  C_3 
REMARK       I    between atoms: C_8  and  N_6 
REMARK    3  A    between atoms: C_9  and  C_8 
REMARK    4  A    between atoms: C_11  and  C_9 
REMARK    5  A    between atoms: C_16  and  C_11 
ROOT
ATOM      1  N   UNL d   1     -42.223-122.553 -50.894  0.00  0.00    -0.165 NA
ATOM      2  C   UNL d   1     -41.674-122.796 -51.444  0.00  0.00     0.282 C 
ATOM      3  O   UNL d   1     -41.170-123.428 -51.283  0.00  0.00    -0.265 OA
ENDROOT
BRANCH   1   4
ATOM      4  C   UNL d   1     -42.281-122.937 -50.169  0.00  0.00     0.297 A 
ATOM      5  O   UNL d   1     -41.960-122.668 -49.461  0.00  0.00    -0.252 OA
ATOM      6  C   UNL d   1     -42.146-123.218 -48.874  0.00  0.00     0.229 A 
ATOM      7  N   UNL d   1     -42.578-123.817 -49.224  0.00  0.00    -0.117 NA
ATOM      8  N   UNL d   1     -42.661-123.645 -50.022  0.00  0.00    -0.101 NA
BRANCH   6   9
ATOM      9  C   UNL d   1     -41.930-123.163 -48.079  0.00  0.00     0.143 A 
ATOM     10  O   UNL d   1     -42.292-122.696 -47.512  0.00  0.00    -0.301 OA
ATOM     11  C   UNL d   1     -41.898-122.812 -46.799  0.00  0.00     0.123 A 
ATOM     12  C   UNL d   1     -41.289-123.355 -46.927  0.00  0.00     0.029 A 
ATOM     13  C   UNL d   1     -41.308-123.573 -47.717  0.00  0.00     0.030 A 
ENDBRANCH   6   9
ENDBRANCH   1   4
BRANCH   2  14
ATOM     14  C   UNL d   1     -41.617-122.409 -52.172  0.00  0.00     0.063 C 
BRANCH  14  15
ATOM     15  C   UNL d   1     -41.212-122.766 -52.785  0.00  0.00     0.005 C 
BRANCH  15  16
ATOM     16  C   UNL d   1     -41.431-122.609 -53.569  0.00  0.00     0.000 A 
ATOM     17  C   UNL d   1     -41.231-123.147 -54.163  0.00  0.00     0.000 A 
ATOM     18  C   UNL d   1     -41.449-122.991 -54.943  0.00  0.00     0.000 A 
ATOM     19  C   UNL d   1     -41.866-122.300 -55.125  0.00  0.00     0.000 A 
ATOM     20  C   UNL d   1     -42.058-121.777 -54.523  0.00  0.00     0.000 A 
ATOM     21  C   UNL d   1     -41.844-121.927 -53.751  0.00  0.00     0.000 A 
ENDBRANCH  15  16
ENDBRANCH  14  15
ENDBRANCH   2  14
TORSDOF 5
ENDMDL
