MODEL 1
REMARK VINA RESULT:      -8.2      0.000      0.000
REMARK  4 active torsions:
REMARK  status: ('A' for Active; 'I' for Inactive)
REMARK    1  A    between atoms: C_2  and  S_1 
REMARK    2  A    between atoms: N_3  and  S_1 
REMARK    3  A    between atoms: C_7  and  N_3 
REMARK    4  A    between atoms: C_8  and  C_4 
ROOT
ATOM      1  S   UNL d   1      52.449  32.476  52.944  0.00  0.00     0.285 S 
ATOM      2  O   UNL d   1      52.053  32.248  53.633  0.00  0.00    -0.198 OA
ATOM      3  O   UNL d   1      52.850  32.703  52.248  0.00  0.00    -0.198 OA
ENDROOT
BRANCH   1   4
ATOM      4  C   UNL d   1      52.227  33.269  53.073  0.00  0.00     0.105 A 
ATOM      5  C   UNL d   1      51.430  33.481  53.033  0.00  0.00     0.012 A 
ATOM      6  C   UNL d   1      51.204  34.262  53.160  0.00  0.00     0.001 A 
ATOM      7  C   UNL d   1      50.846  32.907  52.862  0.00  0.00     0.001 C 
ATOM      8  C   UNL d   1      50.408  34.474  53.119  0.00  0.00     0.000 C 
ATOM      9  C   UNL d   1      51.785  34.841  53.331  0.00  0.00     0.000 A 
ATOM     10  C   UNL d   1      52.584  34.621  53.370  0.00  0.00     0.001 A 
ATOM     11  C   UNL d   1      52.804  33.836  53.242  0.00  0.00     0.012 A 
ATOM     12  C   UNL d   1      53.168  35.195  53.541  0.00  0.00     0.000 C 
ATOM     13  C   UNL d   1      53.598  33.613  53.280  0.00  0.00     0.001 C 
ENDBRANCH   1   4
BRANCH   1  14
ATOM     14  N   UNL d   1      52.672  31.687  52.812  0.00  0.00    -0.158 NA
BRANCH  14  15
ATOM     15  C   UNL d   1      53.050  31.258  53.411  0.00  0.00     0.100 A 
ATOM     16  C   UNL d   1      53.087  30.429  53.370  0.00  0.00     0.083 A 
ATOM     17  C   UNL d   1      53.461  30.001  53.964  0.00  0.00     0.008 A 
ATOM     18  C   UNL d   1      53.802  30.394  54.604  0.00  0.00     0.000 A 
ATOM     19  C   UNL d   1      53.769  31.215  54.649  0.00  0.00     0.002 A 
ATOM     20  C   UNL d   1      53.391  31.651  54.051  0.00  0.00     0.020 A 
BRANCH  16  21
ATOM     21  C   UNL d   1      52.747  30.032  52.732  0.00  0.00     0.212 C 
ATOM     22  O   UNL d   1      53.098  30.064  51.987  0.00  0.00    -0.644 OA
ATOM     23  O   UNL d   1      52.051  29.601  52.836  0.00  0.00    -0.644 OA
ENDBRANCH  16  21
ENDBRANCH  14  15
ENDBRANCH   1  14
TORSDOF 4
ENDMDL
MODEL 2
REMARK VINA RESULT:      -8.1      1.178      1.701
REMARK  4 active torsions:
REMARK  status: ('A' for Active; 'I' for Inactive)
REMARK    1  A    between atoms: C_2  and  S_1 
REMARK    2  A    between atoms: N_3  and  S_1 
REMARK    3  A    between atoms: C_7  and  N_3 
REMARK    4  A    between atoms: C_8  and  C_4 
ROOT
ATOM      1  S   UNL d   1      53.487  32.460  53.662  0.00  0.00     0.285 S 
ATOM      2  O   UNL d   1      52.804  32.337  54.111  0.00  0.00    -0.198 OA
ATOM      3  O   UNL d   1      54.176  32.581  53.207  0.00  0.00    -0.198 OA
ENDROOT
BRANCH   1   4
ATOM      4  C   UNL d   1      53.632  33.173  54.069  0.00  0.00     0.105 A 
ATOM      5  C   UNL d   1      53.062  33.769  54.063  0.00  0.00     0.012 A 
ATOM      6  C   UNL d   1      53.199  34.475  54.463  0.00  0.00     0.001 A 
ATOM      7  C   UNL d   1      52.342  33.664  53.651  0.00  0.00     0.001 C 
ATOM      8  C   UNL d   1      52.629  35.072  54.457  0.00  0.00     0.000 C 
ATOM      9  C   UNL d   1      53.919  34.586  54.877  0.00  0.00     0.000 A 
ATOM     10  C   UNL d   1      54.487  33.982  54.879  0.00  0.00     0.001 A 
ATOM     11  C   UNL d   1      54.344  33.276  54.476  0.00  0.00     0.012 A 
ATOM     12  C   UNL d   1      55.208  34.087  55.291  0.00  0.00     0.000 C 
ATOM     13  C   UNL d   1      54.907  32.673  54.476  0.00  0.00     0.001 C 
ENDBRANCH   1   4
BRANCH   1  14
ATOM     14  N   UNL d   1      53.345  31.750  53.254  0.00  0.00    -0.158 NA
BRANCH  14  15
ATOM     15  C   UNL d   1      53.296  31.036  53.671  0.00  0.00     0.100 A 
ATOM     16  C   UNL d   1      53.097  30.335  53.272  0.00  0.00     0.083 A 
ATOM     17  C   UNL d   1      53.048  29.624  53.684  0.00  0.00     0.008 A 
ATOM     18  C   UNL d   1      53.197  29.606  54.496  0.00  0.00     0.000 A 
ATOM     19  C   UNL d   1      53.395  30.298  54.894  0.00  0.00     0.002 A 
ATOM     20  C   UNL d   1      53.445  31.017  54.482  0.00  0.00     0.020 A 
BRANCH  16  21
ATOM     21  C   UNL d   1      52.947  30.349  52.461  0.00  0.00     0.212 C 
ATOM     22  O   UNL d   1      52.218  30.609  52.177  0.00  0.00    -0.644 OA
ATOM     23  O   UNL d   1      53.527  30.103  51.929  0.00  0.00    -0.644 OA
ENDBRANCH  16  21
ENDBRANCH  14  15
ENDBRANCH   1  14
TORSDOF 4
ENDMDL
MODEL 3
REMARK VINA RESULT:      -8.1      1.744      3.772
REMARK  4 active torsions:
REMARK  status: ('A' for Active; 'I' for Inactive)
REMARK    1  A    between atoms: C_2  and  S_1 
REMARK    2  A    between atoms: N_3  and  S_1 
REMARK    3  A    between atoms: C_7  and  N_3 
REMARK    4  A    between atoms: C_8  and  C_4 
ROOT
ATOM      1  S   UNL d   1      52.396  33.729  53.790  0.00  0.00     0.285 S 
ATOM      2  O   UNL d   1      52.790  34.377  53.460  0.00  0.00    -0.198 OA
ATOM      3  O   UNL d   1      51.996  33.076  54.122  0.00  0.00    -0.198 OA
ENDROOT
BRANCH   1   4
ATOM      4  C   UNL d   1      53.128  33.371  53.970  0.00  0.00     0.105 A 
ATOM      5  C   UNL d   1      53.297  32.619  53.676  0.00  0.00     0.012 A 
ATOM      6  C   UNL d   1      54.017  32.260  53.849  0.00  0.00     0.001 A 
ATOM      7  C   UNL d   1      52.740  32.214  53.200  0.00  0.00     0.001 C 
ATOM      8  C   UNL d   1      54.185  31.508  53.555  0.00  0.00     0.000 C 
ATOM      9  C   UNL d   1      54.578  32.662  54.325  0.00  0.00     0.000 A 
ATOM     10  C   UNL d   1      54.401  33.417  54.617  0.00  0.00     0.001 A 
ATOM     11  C   UNL d   1      53.677  33.772  54.440  0.00  0.00     0.012 A 
ATOM     12  C   UNL d   1      54.957  33.822  55.093  0.00  0.00     0.000 C 
ATOM     13  C   UNL d   1      53.498  34.523  54.728  0.00  0.00     0.001 C 
ENDBRANCH   1   4
BRANCH   1  14
ATOM     14  N   UNL d   1      51.666  34.084  53.612  0.00  0.00    -0.158 NA
BRANCH  14  15
ATOM     15  C   UNL d   1      51.443  34.198  52.823  0.00  0.00     0.100 A 
ATOM     16  C   UNL d   1      50.657  34.392  52.637  0.00  0.00     0.083 A 
ATOM     17  C   UNL d   1      50.434  34.507  51.853  0.00  0.00     0.008 A 
ATOM     18  C   UNL d   1      50.990  34.429  51.249  0.00  0.00     0.000 A 
ATOM     19  C   UNL d   1      51.769  34.237  51.429  0.00  0.00     0.002 A 
ATOM     20  C   UNL d   1      51.999  34.121  52.218  0.00  0.00     0.020 A 
BRANCH  16  21
ATOM     21  C   UNL d   1      50.098  34.471  53.238  0.00  0.00     0.212 C 
ATOM     22  O   UNL d   1      49.695  33.810  53.521  0.00  0.00    -0.644 OA
ATOM     23  O   UNL d   1      49.939  35.214  53.560  0.00  0.00    -0.644 OA
ENDBRANCH  16  21
ENDBRANCH  14  15
ENDBRANCH   1  14
TORSDOF 4
ENDMDL
MODEL 4
REMARK VINA RESULT:      -7.8      1.286      3.609
REMARK  4 active torsions:
REMARK  status: ('A' for Active; 'I' for Inactive)
REMARK    1  A    between atoms: C_2  and  S_1 
REMARK    2  A    between atoms: N_3  and  S_1 
REMARK    3  A    between atoms: C_7  and  N_3 
REMARK    4  A    between atoms: C_8  and  C_4 
ROOT
ATOM      1  S   UNL d   1      52.831  32.407  53.212  0.00  0.00     0.285 S 
ATOM      2  O   UNL d   1      52.479  32.439  53.960  0.00  0.00    -0.198 OA
ATOM      3  O   UNL d   1      53.185  32.377  52.457  0.00  0.00    -0.198 OA
ENDROOT
BRANCH   1   4
ATOM      4  C   UNL d   1      52.898  31.578  53.275  0.00  0.00     0.105 A 
ATOM      5  C   UNL d   1      52.216  31.116  53.316  0.00  0.00     0.012 A 
ATOM      6  C   UNL d   1      52.274  30.297  53.379  0.00  0.00     0.001 A 
ATOM      7  C   UNL d   1      51.459  31.472  53.296  0.00  0.00     0.001 C 
ATOM      8  C   UNL d   1      51.592  29.835  53.420  0.00  0.00     0.000 C 
ATOM      9  C   UNL d   1      53.030  29.935  53.399  0.00  0.00     0.000 A 
ATOM     10  C   UNL d   1      53.711  30.406  53.357  0.00  0.00     0.001 A 
ATOM     11  C   UNL d   1      53.645  31.226  53.295  0.00  0.00     0.012 A 
ATOM     12  C   UNL d   1      54.468  30.049  53.378  0.00  0.00     0.000 C 
ATOM     13  C   UNL d   1      54.321  31.698  53.253  0.00  0.00     0.001 C 
ENDBRANCH   1   4
BRANCH   1  14
ATOM     14  N   UNL d   1      52.765  33.232  53.147  0.00  0.00    -0.158 NA
BRANCH  14  15
ATOM     15  C   UNL d   1      53.012  33.718  53.771  0.00  0.00     0.100 A 
ATOM     16  C   UNL d   1      52.809  34.523  53.777  0.00  0.00     0.083 A 
ATOM     17  C   UNL d   1      53.054  35.007  54.396  0.00  0.00     0.008 A 
ATOM     18  C   UNL d   1      53.502  34.693  55.013  0.00  0.00     0.000 A 
ATOM     19  C   UNL d   1      53.705  33.896  55.011  0.00  0.00     0.002 A 
ATOM     20  C   UNL d   1      53.461  33.404  54.388  0.00  0.00     0.020 A 
BRANCH  16  21
ATOM     21  C   UNL d   1      52.361  34.840  53.161  0.00  0.00     0.212 C 
ATOM     22  O   UNL d   1      51.551  34.959  53.254  0.00  0.00    -0.644 OA
ATOM     23  O   UNL d   1      52.723  35.041  52.447  0.00  0.00    -0.644 OA
ENDBRANCH  16  21
ENDBRANCH  14  15
ENDBRANCH   1  14
TORSDOF 4
ENDMDL
MODEL 5
REMARK VINA RESULT:      -7.8      1.266      3.579
REMARK  4 active torsions:
REMARK  status: ('A' for Active; 'I' for Inactive)
REMARK    1  A    between atoms: C_2  and  S_1 
REMARK    2  A    between atoms: N_3  and  S_1 
REMARK    3  A    between atoms: C_7  and  N_3 
REMARK    4  A    between atoms: C_8  and  C_4 
ROOT
ATOM      1  S   UNL d   1      52.579  32.942  52.969  0.00  0.00     0.285 S 
ATOM      2  O   UNL d   1      51.935  32.453  53.142  0.00  0.00    -0.198 OA
ATOM      3  O   UNL d   1      53.227  33.437  52.793  0.00  0.00    -0.198 OA
ENDROOT
BRANCH   1   4
ATOM      4  C   UNL d   1      53.060  32.497  53.485  0.00  0.00     0.105 A 
ATOM      5  C   UNL d   1      53.122  31.681  53.382  0.00  0.00     0.012 A 
ATOM      6  C   UNL d   1      53.595  31.236  53.888  0.00  0.00     0.001 A 
ATOM      7  C   UNL d   1      52.706  31.297  52.766  0.00  0.00     0.001 C 
ATOM      8  C   UNL d   1      53.657  30.419  53.785  0.00  0.00     0.000 C 
ATOM      9  C   UNL d   1      54.014  31.615  54.507  0.00  0.00     0.000 A 
ATOM     10  C   UNL d   1      53.947  32.435  54.604  0.00  0.00     0.001 A 
ATOM     11  C   UNL d   1      53.471  32.876  54.094  0.00  0.00     0.012 A 
ATOM     12  C   UNL d   1      54.363  32.819  55.221  0.00  0.00     0.000 C 
ATOM     13  C   UNL d   1      53.402  33.693  54.187  0.00  0.00     0.001 C 
ENDBRANCH   1   4
BRANCH   1  14
ATOM     14  N   UNL d   1      52.102  33.387  52.455  0.00  0.00    -0.158 NA
BRANCH  14  15
ATOM     15  C   UNL d   1      51.405  33.737  52.736  0.00  0.00     0.100 A 
ATOM     16  C   UNL d   1      50.945  34.210  52.231  0.00  0.00     0.083 A 
ATOM     17  C   UNL d   1      50.253  34.558  52.508  0.00  0.00     0.008 A 
ATOM     18  C   UNL d   1      50.013  34.438  53.288  0.00  0.00     0.000 A 
ATOM     19  C   UNL d   1      50.466  33.970  53.791  0.00  0.00     0.002 A 
ATOM     20  C   UNL d   1      51.165  33.617  53.516  0.00  0.00     0.020 A 
BRANCH  16  21
ATOM     21  C   UNL d   1      51.182  34.332  51.450  0.00  0.00     0.212 C 
ATOM     22  O   UNL d   1      51.863  34.765  51.285  0.00  0.00    -0.644 OA
ATOM     23  O   UNL d   1      50.736  34.020  50.830  0.00  0.00    -0.644 OA
ENDBRANCH  16  21
ENDBRANCH  14  15
ENDBRANCH   1  14
TORSDOF 4
ENDMDL
