MODEL 1
REMARK VINA RESULT:     -11.7      0.000      0.000
REMARK  2 active torsions:
REMARK  status: ('A' for Active; 'I' for Inactive)
REMARK    1  A    between atoms: C_2  and  C_1 
REMARK    2  A    between atoms: C_14  and  C_8 
ROOT
ATOM      1  C   UNL d   1      52.065  33.715  52.947  0.00  0.00     0.106 A 
ATOM      2  C   UNL d   1      52.599  34.217  53.307  0.00  0.00     0.304 A 
ATOM      3  C   UNL d   1      52.205  32.899  52.955  0.00  0.00     0.011 A 
ATOM      4  C   UNL d   1      52.871  32.592  53.318  0.00  0.00     0.023 A 
ATOM      5  O   UNL d   1      53.294  33.924  53.689  0.00  0.00    -0.273 OA
ATOM      6  C   UNL d   1      53.405  33.095  53.678  0.00  0.00     0.103 A 
ATOM      7  C   UNL d   1      53.011  31.777  53.327  0.00  0.00     0.002 A 
ATOM      8  O   UNL d   1      52.450  35.059  53.296  0.00  0.00    -0.259 OA
ATOM      9  C   UNL d   1      54.100  32.802  54.061  0.00  0.00     0.025 A 
ATOM     10  C   UNL d   1      53.680  31.466  53.691  0.00  0.00     0.000 A 
ATOM     11  C   UNL d   1      54.214  31.968  54.051  0.00  0.00     0.002 A 
ATOM     12  C   UNL d   1      52.467  31.264  52.960  0.00  0.00     0.000 A 
ATOM     13  C   UNL d   1      53.820  30.650  53.699  0.00  0.00     0.000 A 
ATOM     14  C   UNL d   1      52.601  30.450  52.964  0.00  0.00     0.000 A 
ATOM     15  C   UNL d   1      53.285  30.125  53.337  0.00  0.00     0.000 A 
ENDROOT
BRANCH   1  16
ATOM     16  C   UNL d   1      51.393  34.030  52.581  0.00  0.00     0.210 A 
ATOM     17  O   UNL d   1      50.679  34.269  52.921  0.00  0.00    -0.268 OA
ATOM     18  C   UNL d   1      50.201  34.540  52.312  0.00  0.00     0.204 A 
ATOM     19  N   UNL d   1      50.607  34.472  51.607  0.00  0.00    -0.121 NA
ATOM     20  N   UNL d   1      51.346  34.157  51.763  0.00  0.00    -0.121 NA
BRANCH  18  21
ATOM     21  C   UNL d   1      49.441  34.841  52.327  0.00  0.00     0.043 A 
ATOM     22  C   UNL d   1      49.171  35.239  52.983  0.00  0.00     0.004 A 
ATOM     23  C   UNL d   1      48.401  35.545  53.002  0.00  0.00     0.000 A 
ATOM     24  C   UNL d   1      47.913  35.448  52.362  0.00  0.00     0.000 A 
ATOM     25  C   UNL d   1      48.192  35.045  51.701  0.00  0.00     0.000 A 
ATOM     26  C   UNL d   1      48.951  34.742  51.681  0.00  0.00     0.004 A 
ENDBRANCH  18  21
ENDBRANCH   1  16
TORSDOF 2
ENDMDL
MODEL 2
REMARK VINA RESULT:     -10.3      1.016      1.983
REMARK  2 active torsions:
REMARK  status: ('A' for Active; 'I' for Inactive)
REMARK    1  A    between atoms: C_2  and  C_1 
REMARK    2  A    between atoms: C_14  and  C_8 
ROOT
ATOM      1  C   UNL d   1      51.979  33.280  53.046  0.00  0.00     0.106 A 
ATOM      2  C   UNL d   1      52.021  32.486  52.859  0.00  0.00     0.304 A 
ATOM      3  C   UNL d   1      52.536  33.604  53.566  0.00  0.00     0.011 A 
ATOM      4  C   UNL d   1      53.124  33.140  53.894  0.00  0.00     0.023 A 
ATOM      5  O   UNL d   1      52.621  31.985  53.184  0.00  0.00    -0.273 OA
ATOM      6  C   UNL d   1      53.166  32.346  53.706  0.00  0.00     0.103 A 
ATOM      7  C   UNL d   1      53.680  33.465  54.413  0.00  0.00     0.002 A 
ATOM      8  O   UNL d   1      51.445  32.154  52.321  0.00  0.00    -0.259 OA
ATOM      9  C   UNL d   1      53.766  31.845  54.031  0.00  0.00     0.025 A 
ATOM     10  C   UNL d   1      54.273  33.000  54.744  0.00  0.00     0.000 A 
ATOM     11  C   UNL d   1      54.315  32.206  54.556  0.00  0.00     0.002 A 
ATOM     12  C   UNL d   1      53.638  34.274  54.605  0.00  0.00     0.000 A 
ATOM     13  C   UNL d   1      54.829  33.325  55.264  0.00  0.00     0.000 A 
ATOM     14  C   UNL d   1      54.189  34.604  55.122  0.00  0.00     0.000 A 
ATOM     15  C   UNL d   1      54.799  34.133  55.464  0.00  0.00     0.000 A 
ENDROOT
BRANCH   1  16
ATOM     16  C   UNL d   1      51.382  33.745  52.713  0.00  0.00     0.210 A 
ATOM     17  O   UNL d   1      50.656  33.970  53.037  0.00  0.00    -0.268 OA
ATOM     18  C   UNL d   1      50.274  34.430  52.475  0.00  0.00     0.204 A 
ATOM     19  N   UNL d   1      50.750  34.491  51.815  0.00  0.00    -0.121 NA
ATOM     20  N   UNL d   1      51.439  34.069  51.953  0.00  0.00    -0.121 NA
BRANCH  18  21
ATOM     21  C   UNL d   1      49.544  34.798  52.497  0.00  0.00     0.043 A 
ATOM     22  C   UNL d   1      49.314  35.211  53.158  0.00  0.00     0.004 A 
ATOM     23  C   UNL d   1      48.575  35.586  53.185  0.00  0.00     0.000 A 
ATOM     24  C   UNL d   1      48.077  35.541  52.545  0.00  0.00     0.000 A 
ATOM     25  C   UNL d   1      48.316  35.121  51.879  0.00  0.00     0.000 A 
ATOM     26  C   UNL d   1      49.045  34.751  51.852  0.00  0.00     0.004 A 
ENDBRANCH  18  21
ENDBRANCH   1  16
TORSDOF 2
ENDMDL
MODEL 3
REMARK VINA RESULT:      -9.8      1.822      5.076
REMARK  2 active torsions:
REMARK  status: ('A' for Active; 'I' for Inactive)
REMARK    1  A    between atoms: C_2  and  C_1 
REMARK    2  A    between atoms: C_14  and  C_8 
ROOT
ATOM      1  C   UNL d   1      53.163  32.216  53.372  0.00  0.00     0.106 A 
ATOM      2  C   UNL d   1      53.833  32.682  53.409  0.00  0.00     0.304 A 
ATOM      3  C   UNL d   1      52.425  32.573  53.262  0.00  0.00     0.011 A 
ATOM      4  C   UNL d   1      52.359  33.385  53.191  0.00  0.00     0.023 A 
ATOM      5  O   UNL d   1      53.791  33.524  53.337  0.00  0.00    -0.273 OA
ATOM      6  C   UNL d   1      53.029  33.851  53.227  0.00  0.00     0.103 A 
ATOM      7  C   UNL d   1      51.621  33.743  53.081  0.00  0.00     0.002 A 
ATOM      8  O   UNL d   1      54.594  32.309  53.522  0.00  0.00    -0.259 OA
ATOM      9  C   UNL d   1      52.987  34.694  53.156  0.00  0.00     0.025 A 
ATOM     10  C   UNL d   1      51.552  34.559  53.008  0.00  0.00     0.000 A 
ATOM     11  C   UNL d   1      52.222  35.025  53.045  0.00  0.00     0.002 A 
ATOM     12  C   UNL d   1      50.938  33.267  53.043  0.00  0.00     0.000 A 
ATOM     13  C   UNL d   1      50.814  34.916  52.899  0.00  0.00     0.000 A 
ATOM     14  C   UNL d   1      50.199  33.617  52.934  0.00  0.00     0.000 A 
ATOM     15  C   UNL d   1      50.122  34.454  52.859  0.00  0.00     0.000 A 
ENDROOT
BRANCH   1  16
ATOM     16  C   UNL d   1      53.236  31.395  53.445  0.00  0.00     0.210 A 
ATOM     17  O   UNL d   1      53.272  30.935  54.130  0.00  0.00    -0.268 OA
ATOM     18  C   UNL d   1      53.343  30.153  53.893  0.00  0.00     0.204 A 
ATOM     19  N   UNL d   1      53.351  30.125  53.077  0.00  0.00    -0.121 NA
ATOM     20  N   UNL d   1      53.285  30.889  52.791  0.00  0.00    -0.121 NA
BRANCH  18  21
ATOM     21  C   UNL d   1      53.401  29.466  54.333  0.00  0.00     0.043 A 
ATOM     22  C   UNL d   1      53.103  29.439  55.089  0.00  0.00     0.004 A 
ATOM     23  C   UNL d   1      53.159  28.746  55.539  0.00  0.00     0.000 A 
ATOM     24  C   UNL d   1      53.514  28.088  55.223  0.00  0.00     0.000 A 
ATOM     25  C   UNL d   1      53.814  28.122  54.457  0.00  0.00     0.000 A 
ATOM     26  C   UNL d   1      53.759  28.806  54.013  0.00  0.00     0.004 A 
ENDBRANCH  18  21
ENDBRANCH   1  16
TORSDOF 2
ENDMDL
MODEL 4
REMARK VINA RESULT:      -9.5      1.416      5.182
REMARK  2 active torsions:
REMARK  status: ('A' for Active; 'I' for Inactive)
REMARK    1  A    between atoms: C_2  and  C_1 
REMARK    2  A    between atoms: C_14  and  C_8 
ROOT
ATOM      1  C   UNL d   1      50.949  34.479  52.669  0.00  0.00     0.106 A 
ATOM      2  C   UNL d   1      50.957  34.134  51.929  0.00  0.00     0.304 A 
ATOM      3  C   UNL d   1      50.263  34.860  52.933  0.00  0.00     0.011 A 
ATOM      4  C   UNL d   1      49.595  34.894  52.462  0.00  0.00     0.023 A 
ATOM      5  O   UNL d   1      50.278  34.156  51.423  0.00  0.00    -0.273 OA
ATOM      6  C   UNL d   1      49.603  34.548  51.722  0.00  0.00     0.103 A 
ATOM      7  C   UNL d   1      48.909  35.274  52.726  0.00  0.00     0.002 A 
ATOM      8  O   UNL d   1      51.667  33.742  51.660  0.00  0.00    -0.259 OA
ATOM      9  C   UNL d   1      48.924  34.570  51.216  0.00  0.00     0.025 A 
ATOM     10  C   UNL d   1      48.236  35.310  52.255  0.00  0.00     0.000 A 
ATOM     11  C   UNL d   1      48.244  34.964  51.514  0.00  0.00     0.002 A 
ATOM     12  C   UNL d   1      48.902  35.626  53.481  0.00  0.00     0.000 A 
ATOM     13  C   UNL d   1      47.550  35.690  52.518  0.00  0.00     0.000 A 
ATOM     14  C   UNL d   1      48.221  36.007  53.750  0.00  0.00     0.000 A 
ATOM     15  C   UNL d   1      47.528  36.047  53.271  0.00  0.00     0.000 A 
ENDROOT
BRANCH   1  16
ATOM     16  C   UNL d   1      51.628  34.442  53.141  0.00  0.00     0.210 A 
ATOM     17  O   UNL d   1      51.993  33.781  53.475  0.00  0.00    -0.268 OA
ATOM     18  C   UNL d   1      52.646  34.051  53.892  0.00  0.00     0.204 A 
ATOM     19  N   UNL d   1      52.688  34.863  53.820  0.00  0.00    -0.121 NA
ATOM     20  N   UNL d   1      52.061  35.115  53.356  0.00  0.00    -0.121 NA
BRANCH  18  21
ATOM     21  C   UNL d   1      53.205  33.643  54.328  0.00  0.00     0.043 A 
ATOM     22  C   UNL d   1      53.714  34.045  54.818  0.00  0.00     0.004 A 
ATOM     23  C   UNL d   1      54.282  33.637  55.261  0.00  0.00     0.000 A 
ATOM     24  C   UNL d   1      54.331  32.829  55.207  0.00  0.00     0.000 A 
ATOM     25  C   UNL d   1      53.813  32.427  54.709  0.00  0.00     0.000 A 
ATOM     26  C   UNL d   1      53.252  32.830  54.271  0.00  0.00     0.004 A 
ENDBRANCH  18  21
ENDBRANCH   1  16
TORSDOF 2
ENDMDL
