MODEL 1
REMARK VINA RESULT:       7.9      0.000      0.000
REMARK  2 active torsions:
REMARK  status: ('A' for Active; 'I' for Inactive)
REMARK    1  A    between atoms: C_3  and  C_1 
REMARK       I    between atoms: C_2  and  N_4 
REMARK    2  A    between atoms: N_4  and  C_9 
ROOT
ATOM      1  C   UNL d   1     -52.479  24.431  33.403  0.00  0.00     0.065 A 
ATOM      2  C   UNL d   1     -52.490  25.253  33.349  0.00  0.00     0.008 A 
ATOM      3  C   UNL d   1     -51.760  24.031  33.425  0.00  0.00     0.008 A 
ATOM      4  C   UNL d   1     -51.054  25.278  33.339  0.00  0.00     0.085 A 
ATOM      5  C   UNL d   1     -51.774  25.678  33.317  0.00  0.00     0.019 A 
ATOM      6  C   UNL d   1     -51.052  24.452  33.393  0.00  0.00     0.019 A 
ENDROOT
BRANCH   4   7
ATOM      7  N   UNL d   1     -50.344  25.695  33.307  0.00  0.00    -0.208 NA
ATOM      8  C   UNL d   1     -50.353  26.521  33.347  0.00  0.00     0.279 C 
ATOM      9  O   UNL d   1     -49.642  26.938  33.315  0.00  0.00    -0.265 OA
ATOM     10  C   UNL d   1     -51.068  26.922  33.419  0.00  0.00     0.068 C 
ENDBRANCH   4   7
BRANCH   1  11
ATOM     11  C   UNL d   1     -53.192  24.008  33.435  0.00  0.00     0.211 C 
ATOM     12  O   UNL d   1     -53.182  23.194  33.558  0.00  0.00    -0.644 OA
ATOM     13  O   UNL d   1     -53.909  24.401  33.345  0.00  0.00    -0.644 OA
ENDBRANCH   1  11
TORSDOF 2
ENDMDL
MODEL 2
REMARK VINA RESULT:       9.1      0.945      3.196
REMARK  2 active torsions:
REMARK  status: ('A' for Active; 'I' for Inactive)
REMARK    1  A    between atoms: C_3  and  C_1 
REMARK       I    between atoms: C_2  and  N_4 
REMARK    2  A    between atoms: N_4  and  C_9 
ROOT
ATOM      1  C   UNL d   1     -50.663  25.801  33.317  0.00  0.00     0.065 A 
ATOM      2  C   UNL d   1     -51.471  25.958  33.308  0.00  0.00     0.008 A 
ATOM      3  C   UNL d   1     -50.396  25.022  33.326  0.00  0.00     0.008 A 
ATOM      4  C   UNL d   1     -51.752  24.550  33.316  0.00  0.00     0.085 A 
ATOM      5  C   UNL d   1     -52.018  25.330  33.307  0.00  0.00     0.019 A 
ATOM      6  C   UNL d   1     -50.938  24.400  33.325  0.00  0.00     0.019 A 
ENDROOT
BRANCH   4   7
ATOM      7  N   UNL d   1     -52.290  23.926  33.315  0.00  0.00    -0.208 NA
ATOM      8  C   UNL d   1     -53.076  24.063  33.534  0.00  0.00     0.279 C 
ATOM      9  O   UNL d   1     -53.614  23.438  33.533  0.00  0.00    -0.265 OA
ATOM     10  C   UNL d   1     -53.317  24.819  33.751  0.00  0.00     0.068 C 
ENDBRANCH   4   7
BRANCH   1  11
ATOM     11  C   UNL d   1     -50.118  26.426  33.318  0.00  0.00     0.211 C 
ATOM     12  O   UNL d   1     -50.385  27.205  33.324  0.00  0.00    -0.644 OA
ATOM     13  O   UNL d   1     -49.310  26.270  33.312  0.00  0.00    -0.644 OA
ENDBRANCH   1  11
TORSDOF 2
ENDMDL
