MODEL 1
REMARK VINA RESULT:      47.0      0.000      0.000
REMARK  7 active torsions:
REMARK  status: ('A' for Active; 'I' for Inactive)
REMARK    1  A    between atoms: S_3  and  C_1 
REMARK    2  A    between atoms: C_10  and  S_3 
REMARK    3  A    between atoms: N_11  and  C_4 
REMARK    4  A    between atoms: C_9  and  C_5 
REMARK    5  A    between atoms: C_20  and  N_11 
REMARK    6  A    between atoms: C_22  and  C_20 
REMARK    7  A    between atoms: C_23  and  C_22 
ROOT
ATOM      1  C   UNL d   1      14.043  15.093  -4.205  0.00  0.00     0.042 A 
ATOM      2  C   UNL d   1      14.705  15.566  -4.095  0.00  0.00     0.006 A 
ATOM      3  C   UNL d   1      13.452  15.312  -4.744  0.00  0.00     0.006 A 
ATOM      4  C   UNL d   1      14.199  16.500  -5.069  0.00  0.00     0.094 A 
ATOM      5  C   UNL d   1      13.521  16.011  -5.178  0.00  0.00     0.024 A 
ATOM      6  C   UNL d   1      14.785  16.271  -4.526  0.00  0.00     0.024 A 
ATOM      7  O   UNL d   1      14.274  17.204  -5.502  0.00  0.00    -0.328 OA
ATOM      8  C   UNL d   1      14.361  17.924  -5.939  0.00  0.00     0.181 C 
ENDROOT
BRANCH   1   9
ATOM      9  C   UNL d   1      13.958  14.390  -3.779  0.00  0.00     0.185 A 
ATOM     10  N   UNL d   1      14.273  14.290  -3.025  0.00  0.00    -0.207 NA
ATOM     11  C   UNL d   1      14.084  13.528  -2.768  0.00  0.00     0.212 A 
ATOM     12  C   UNL d   1      13.655  13.170  -3.366  0.00  0.00     0.213 A 
ATOM     13  O   UNL d   1      13.573  13.687  -3.987  0.00  0.00    -0.269 OA
BRANCH  11  14
ATOM     14  S   UNL d   1      14.233  13.088  -2.069  0.00  0.00     0.230 S 
ATOM     15  O   UNL d   1      13.882  13.891  -1.824  0.00  0.00    -0.215 OA
ATOM     16  O   UNL d   1      14.569  12.318  -2.279  0.00  0.00    -0.215 OA
BRANCH  14  17
ATOM     17  C   UNL d   1      14.380  12.655  -1.387  0.00  0.00     0.090 A 
ATOM     18  C   UNL d   1      15.150  12.503  -1.161  0.00  0.00     0.011 A 
ATOM     19  C   UNL d   1      15.300  12.073  -0.482  0.00  0.00     0.001 A 
ATOM     20  C   UNL d   1      14.679  11.796  -0.029  0.00  0.00     0.000 A 
ATOM     21  C   UNL d   1      13.901  11.947  -0.254  0.00  0.00     0.001 A 
ATOM     22  C   UNL d   1      13.751  12.377  -0.932  0.00  0.00     0.011 A 
ENDBRANCH  14  17
ENDBRANCH  11  14
BRANCH  12  23
ATOM     23  N   UNL d   1      13.368  12.392  -3.304  0.00  0.00    -0.219 NA
BRANCH  23  24
ATOM     24  C   UNL d   1      13.139  11.813  -3.834  0.00  0.00     0.101 C 
BRANCH  24  25
ATOM     25  C   UNL d   1      13.072  12.197  -4.558  0.00  0.00     0.021 C 
BRANCH  25  26
ATOM     26  C   UNL d   1      12.802  11.779  -5.229  0.00  0.00     0.002 C 
ATOM     27  C   UNL d   1      13.243  11.779  -5.932  0.00  0.00     0.000 C 
ENDBRANCH  25  26
ENDBRANCH  24  25
ENDBRANCH  23  24
ENDBRANCH  12  23
ENDBRANCH   1   9
TORSDOF 7
ENDMDL
