MODEL 1
REMARK VINA RESULT:      45.9      0.000      0.000
REMARK  3 active torsions:
REMARK  status: ('A' for Active; 'I' for Inactive)
REMARK    1  A    between atoms: C_6  and  N_1 
REMARK    2  A    between atoms: C_5  and  C_6 
REMARK       I    between atoms: N_10  and  C_5 
REMARK    3  A    between atoms: C_16  and  N_10 
ROOT
ATOM      1  C   UNL d   1     -55.936 -99.779 -44.325  0.00  0.00     0.297 C 
ATOM      2  N   UNL d   1     -56.495 -99.753 -44.926  0.00  0.00    -0.207 NA
ATOM      3  O   UNL d   1     -56.147 -99.530 -43.564  0.00  0.00    -0.264 OA
ENDROOT
BRANCH   1   4
ATOM      4  C   UNL d   1     -55.175-100.049 -44.476  0.00  0.00     0.148 C 
BRANCH   4   5
ATOM      5  N   UNL d   1     -55.020-100.856 -44.479  0.00  0.00    -0.235 N 
ATOM      6  C   UNL d   1     -54.952-101.266 -43.771  0.00  0.00     0.273 A 
ATOM      7  C   UNL d   1     -54.796-102.078 -43.776  0.00  0.00     0.086 A 
ATOM      8  O   UNL d   1     -55.038-100.871 -43.048  0.00  0.00    -0.266 OA
ATOM      9  C   UNL d   1     -54.724-102.509 -43.074  0.00  0.00     0.012 C 
ATOM     10  S   UNL d   1     -54.712-102.465 -44.497  0.00  0.00    -0.077 SA
ATOM     11  C   UNL d   1     -54.780-102.060 -45.206  0.00  0.00     0.097 A 
ATOM     12  C   UNL d   1     -54.934-101.252 -45.203  0.00  0.00     0.274 A 
ATOM     13  O   UNL d   1     -55.003-100.840 -45.919  0.00  0.00    -0.266 OA
ENDBRANCH   4   5
ENDBRANCH   1   4
BRANCH   2  14
ATOM     14  C   UNL d   1     -57.255 -99.484 -44.779  0.00  0.00     0.087 A 
ATOM     15  C   UNL d   1     -57.561 -99.571 -44.019  0.00  0.00     0.045 A 
ATOM     16  C   UNL d   1     -58.318 -99.310 -43.846  0.00  0.00     0.121 A 
ATOM     17  O   UNL d   1     -58.766 -99.320 -43.156  0.00  0.00    -0.299 OA
ATOM     18  C   UNL d   1     -58.775 -98.959 -44.439  0.00  0.00     0.119 A 
ATOM     19  C   UNL d   1     -59.498 -98.975 -43.323  0.00  0.00     0.304 A 
ATOM     20  O   UNL d   1     -59.496 -98.758 -44.105  0.00  0.00    -0.300 OA
ATOM     21  C   UNL d   1     -58.472 -98.870 -45.202  0.00  0.00     0.028 A 
ATOM     22  C   UNL d   1     -57.707 -99.133 -45.378  0.00  0.00     0.021 A 
ENDBRANCH   2  14
TORSDOF 3
ENDMDL
MODEL 2
REMARK VINA RESULT:      46.0      1.816      4.428
REMARK  3 active torsions:
REMARK  status: ('A' for Active; 'I' for Inactive)
REMARK    1  A    between atoms: C_6  and  N_1 
REMARK    2  A    between atoms: C_5  and  C_6 
REMARK       I    between atoms: N_10  and  C_5 
REMARK    3  A    between atoms: C_16  and  N_10 
ROOT
ATOM      1  C   UNL d   1     -57.306 -99.423 -44.281  0.00  0.00     0.297 C 
ATOM      2  N   UNL d   1     -56.613 -99.406 -44.721  0.00  0.00    -0.207 NA
ATOM      3  O   UNL d   1     -57.485-100.096 -43.832  0.00  0.00    -0.264 OA
ENDROOT
BRANCH   1   4
ATOM      4  C   UNL d   1     -57.818 -98.780 -44.285  0.00  0.00     0.148 C 
BRANCH   4   5
ATOM      5  N   UNL d   1     -58.470 -98.780 -44.786  0.00  0.00    -0.235 N 
ATOM      6  C   UNL d   1     -58.365 -98.774 -45.600  0.00  0.00     0.273 A 
ATOM      7  C   UNL d   1     -59.021 -98.773 -46.103  0.00  0.00     0.086 A 
ATOM      8  O   UNL d   1     -57.603 -98.769 -45.924  0.00  0.00    -0.266 OA
ATOM      9  C   UNL d   1     -58.937 -98.767 -46.924  0.00  0.00     0.012 C 
ATOM     10  S   UNL d   1     -59.776 -98.778 -45.774  0.00  0.00    -0.077 SA
ATOM     11  C   UNL d   1     -59.885 -98.784 -44.962  0.00  0.00     0.097 A 
ATOM     12  C   UNL d   1     -59.233 -98.785 -44.461  0.00  0.00     0.274 A 
ATOM     13  O   UNL d   1     -59.342 -98.791 -43.639  0.00  0.00    -0.266 OA
ENDBRANCH   4   5
ENDBRANCH   1   4
BRANCH   2  14
ATOM     14  C   UNL d   1     -56.101-100.045 -44.719  0.00  0.00     0.087 A 
ATOM     15  C   UNL d   1     -56.371-100.765 -45.015  0.00  0.00     0.045 A 
ATOM     16  C   UNL d   1     -55.877-101.419 -45.023  0.00  0.00     0.121 A 
ATOM     17  O   UNL d   1     -55.986-102.195 -45.278  0.00  0.00    -0.299 OA
ATOM     18  C   UNL d   1     -55.106-101.354 -44.734  0.00  0.00     0.119 A 
ATOM     19  C   UNL d   1     -55.282-102.607 -45.145  0.00  0.00     0.304 A 
ATOM     20  O   UNL d   1     -54.752-102.090 -44.814  0.00  0.00    -0.300 OA
ATOM     21  C   UNL d   1     -54.831-100.635 -44.436  0.00  0.00     0.028 A 
ATOM     22  C   UNL d   1     -55.328 -99.973 -44.427  0.00  0.00     0.021 A 
ENDBRANCH   2  14
TORSDOF 3
ENDMDL
