MODEL 1
REMARK VINA RESULT:      69.1      0.000      0.000
REMARK  5 active torsions:
REMARK  status: ('A' for Active; 'I' for Inactive)
REMARK    1  A    between atoms: C_11  and  C_1 
REMARK    2  A    between atoms: C_12  and  N_3 
REMARK    3  A    between atoms: C_7  and  S_13 
REMARK    4  A    between atoms: C_14  and  C_11 
REMARK    5  A    between atoms: S_13  and  C_14 
ROOT
ATOM      1  C   UNL d   1      60.220  48.467  50.812  0.00  0.00     0.057 A 
ATOM      2  C   UNL d   1      60.389  47.670  50.685  0.00  0.00     0.067 A 
ATOM      3  N   UNL d   1      61.085  47.625  50.263  0.00  0.00    -0.306 N 
ATOM      4  C   UNL d   1      61.352  48.383  50.125  0.00  0.00     0.064 A 
ATOM      5  C   UNL d   1      60.823  48.914  50.461  0.00  0.00     0.022 A 
ATOM      6  C   UNL d   1      59.939  47.029  50.937  0.00  0.00     0.019 C 
ATOM      7  C   UNL d   1      61.865  48.959  49.832  0.00  0.00     0.019 C 
ENDROOT
BRANCH   1   8
ATOM      8  C   UNL d   1      59.784  49.119  51.096  0.00  0.00     0.204 C 
ATOM      9  O   UNL d   1      59.898  49.394  51.875  0.00  0.00    -0.286 OA
BRANCH   8  10
ATOM     10  C   UNL d   1      59.217  49.707  50.970  0.00  0.00     0.080 C 
BRANCH  10  11
ATOM     11  S   UNL d   1      58.492  49.667  51.362  0.00  0.00    -0.043 SA
BRANCH  11  12
ATOM     12  C   UNL d   1      57.786  49.624  50.931  0.00  0.00     0.233 A 
ATOM     13  N   UNL d   1      57.722  49.707  50.118  0.00  0.00    -0.029 NA
ATOM     14  C   UNL d   1      56.929  49.624  49.926  0.00  0.00     0.788 A 
ATOM     15  N   UNL d   1      56.605  49.667  49.169  0.00  0.00     0.064 N 
ATOM     16  N   UNL d   1      56.514  49.491  50.622  0.00  0.00     0.050 NA
ATOM     17  N   UNL d   1      57.046  49.490  51.255  0.00  0.00    -0.105 NA
ENDBRANCH  11  12
ENDBRANCH  10  11
ENDBRANCH   8  10
ENDBRANCH   1   8
BRANCH   3  18
ATOM     18  C   UNL d   1      61.461  46.922  50.014  0.00  0.00     0.064 A 
ATOM     19  C   UNL d   1      61.156  46.227  50.235  0.00  0.00     0.020 A 
ATOM     20  C   UNL d   1      61.533  45.527  49.985  0.00  0.00     0.031 A 
ATOM     21  C   UNL d   1      62.212  45.561  49.515  0.00  0.00     0.140 A 
ATOM     22  C   UNL d   1      62.510  46.290  49.297  0.00  0.00     0.031 A 
ATOM     23  F   UNL d   1      62.585  44.868  49.267  0.00  0.00    -0.204 F 
ATOM     24  C   UNL d   1      62.139  46.977  49.544  0.00  0.00     0.020 A 
ENDBRANCH   3  18
TORSDOF 5
ENDMDL
