MODEL 1
REMARK VINA RESULT:     -13.0      0.000      0.000
REMARK  2 active torsions:
REMARK  status: ('A' for Active; 'I' for Inactive)
REMARK    1  A    between atoms: C_13  and  C_5 
REMARK    2  A    between atoms: C_16  and  C_13 
ROOT
ATOM      1  C   UNL d   1      53.555  33.444  54.217  0.00  0.00     0.111 A 
ATOM      2  C   UNL d   1      53.246  32.223  53.548  0.00  0.00     0.062 A 
ATOM      3  C   UNL d   1      53.877  33.024  54.836  0.00  0.00     0.213 A 
ATOM      4  C   UNL d   1      53.568  31.802  54.167  0.00  0.00     0.101 A 
ATOM      5  C   UNL d   1      53.241  33.048  53.577  0.00  0.00     0.018 A 
ATOM      6  O   UNL d   1      53.885  32.209  54.812  0.00  0.00    -0.288 OA
ATOM      7  C   UNL d   1      52.932  31.827  52.908  0.00  0.00     0.194 A 
ATOM      8  C   UNL d   1      53.566  34.297  54.277  0.00  0.00     0.105 C 
ATOM      9  N   UNL d   1      53.565  35.141  54.316  0.00  0.00    -0.191 NA
ATOM     10  C   UNL d   1      53.576  30.988  54.144  0.00  0.00     0.002 A 
ATOM     11  C   UNL d   1      53.259  30.579  53.498  0.00  0.00     0.042 A 
ATOM     12  C   UNL d   1      52.936  30.999  52.879  0.00  0.00     0.019 A 
ATOM     13  O   UNL d   1      52.602  32.257  52.275  0.00  0.00    -0.287 OA
ATOM     14  N   UNL d   1      54.197  33.474  55.489  0.00  0.00    -0.120 N 
ATOM     15  C   UNL d   1      53.002  30.021  52.963  0.00  0.00     0.009 C 
ATOM     16  C   UNL d   1      53.351  29.786  53.643  0.00  0.00     0.009 C 
ENDROOT
BRANCH   5  17
ATOM     17  C   UNL d   1      52.911  33.479  52.943  0.00  0.00     0.001 C 
BRANCH  17  18
ATOM     18  C   UNL d   1      52.119  33.685  52.952  0.00  0.00     0.000 A 
ATOM     19  C   UNL d   1      51.785  34.092  52.304  0.00  0.00     0.000 A 
ATOM     20  C   UNL d   1      50.971  34.301  52.319  0.00  0.00     0.000 A 
ATOM     21  C   UNL d   1      50.515  34.115  52.945  0.00  0.00     0.000 A 
ATOM     22  C   UNL d   1      50.838  33.706  53.603  0.00  0.00     0.000 A 
ATOM     23  C   UNL d   1      51.640  33.490  53.609  0.00  0.00     0.000 A 
ENDBRANCH  17  18
ENDBRANCH   5  17
TORSDOF 2
ENDMDL
MODEL 2
REMARK VINA RESULT:     -12.3      1.154      2.514
REMARK  2 active torsions:
REMARK  status: ('A' for Active; 'I' for Inactive)
REMARK    1  A    between atoms: C_13  and  C_5 
REMARK    2  A    between atoms: C_16  and  C_13 
ROOT
ATOM      1  C   UNL d   1      52.557  33.332  53.201  0.00  0.00     0.111 A 
ATOM      2  C   UNL d   1      53.108  32.019  53.279  0.00  0.00     0.062 A 
ATOM      3  C   UNL d   1      51.811  33.014  53.113  0.00  0.00     0.213 A 
ATOM      4  C   UNL d   1      52.363  31.701  53.191  0.00  0.00     0.101 A 
ATOM      5  C   UNL d   1      53.201  32.839  53.284  0.00  0.00     0.018 A 
ATOM      6  O   UNL d   1      51.715  32.205  53.108  0.00  0.00    -0.288 OA
ATOM      7  C   UNL d   1      53.752  31.527  53.362  0.00  0.00     0.194 A 
ATOM      8  C   UNL d   1      52.619  34.185  53.202  0.00  0.00     0.105 C 
ATOM      9  N   UNL d   1      52.704  35.025  53.205  0.00  0.00    -0.191 NA
ATOM     10  C   UNL d   1      52.266  30.892  53.186  0.00  0.00     0.002 A 
ATOM     11  C   UNL d   1      52.915  30.385  53.270  0.00  0.00     0.042 A 
ATOM     12  C   UNL d   1      53.660  30.703  53.358  0.00  0.00     0.019 A 
ATOM     13  O   UNL d   1      54.515  31.852  53.452  0.00  0.00    -0.287 OA
ATOM     14  N   UNL d   1      51.161  33.562  53.029  0.00  0.00    -0.120 N 
ATOM     15  C   UNL d   1      53.420  29.749  53.336  0.00  0.00     0.009 C 
ATOM     16  C   UNL d   1      52.635  29.624  53.242  0.00  0.00     0.009 C 
ENDROOT
BRANCH   5  17
ATOM     17  C   UNL d   1      53.964  33.165  53.374  0.00  0.00     0.001 C 
BRANCH  17  18
ATOM     18  C   UNL d   1      54.257  33.329  54.121  0.00  0.00     0.000 A 
ATOM     19  C   UNL d   1      55.067  33.504  54.223  0.00  0.00     0.000 A 
ATOM     20  C   UNL d   1      55.362  33.672  54.991  0.00  0.00     0.000 A 
ATOM     21  C   UNL d   1      54.878  33.666  55.623  0.00  0.00     0.000 A 
ATOM     22  C   UNL d   1      54.062  33.492  55.535  0.00  0.00     0.000 A 
ATOM     23  C   UNL d   1      53.749  33.323  54.784  0.00  0.00     0.000 A 
ENDBRANCH  17  18
ENDBRANCH   5  17
TORSDOF 2
ENDMDL
MODEL 3
REMARK VINA RESULT:     -12.0      1.574      3.455
REMARK  2 active torsions:
REMARK  status: ('A' for Active; 'I' for Inactive)
REMARK    1  A    between atoms: C_13  and  C_5 
REMARK    2  A    between atoms: C_16  and  C_13 
ROOT
ATOM      1  C   UNL d   1      53.055  31.564  53.239  0.00  0.00     0.111 A 
ATOM      2  C   UNL d   1      52.518  32.879  53.123  0.00  0.00     0.062 A 
ATOM      3  C   UNL d   1      52.307  31.251  53.155  0.00  0.00     0.213 A 
ATOM      4  C   UNL d   1      51.770  32.567  53.038  0.00  0.00     0.101 A 
ATOM      5  C   UNL d   1      53.161  32.372  53.223  0.00  0.00     0.018 A 
ATOM      6  O   UNL d   1      51.669  31.748  53.055  0.00  0.00    -0.288 OA
ATOM      7  C   UNL d   1      52.624  33.688  53.107  0.00  0.00     0.194 A 
ATOM      8  C   UNL d   1      53.700  31.011  53.341  0.00  0.00     0.105 C 
ATOM      9  N   UNL d   1      54.352  30.484  53.443  0.00  0.00    -0.191 NA
ATOM     10  C   UNL d   1      51.132  33.063  52.939  0.00  0.00     0.002 A 
ATOM     11  C   UNL d   1      51.231  33.885  52.922  0.00  0.00     0.042 A 
ATOM     12  C   UNL d   1      51.979  34.198  53.006  0.00  0.00     0.019 A 
ATOM     13  O   UNL d   1      53.389  34.008  53.193  0.00  0.00    -0.287 OA
ATOM     14  N   UNL d   1      52.236  30.399  53.176  0.00  0.00    -0.120 N 
ATOM     15  C   UNL d   1      51.138  34.693  52.881  0.00  0.00     0.009 C 
ATOM     16  C   UNL d   1      50.498  34.217  52.816  0.00  0.00     0.009 C 
ENDROOT
BRANCH   5  17
ATOM     17  C   UNL d   1      53.926  32.692  53.309  0.00  0.00     0.001 C 
BRANCH  17  18
ATOM     18  C   UNL d   1      54.203  32.908  54.049  0.00  0.00     0.000 A 
ATOM     19  C   UNL d   1      54.816  33.471  54.119  0.00  0.00     0.000 A 
ATOM     20  C   UNL d   1      55.096  33.689  54.880  0.00  0.00     0.000 A 
ATOM     21  C   UNL d   1      54.782  33.365  55.537  0.00  0.00     0.000 A 
ATOM     22  C   UNL d   1      54.165  32.799  55.481  0.00  0.00     0.000 A 
ATOM     23  C   UNL d   1      53.874  32.569  54.737  0.00  0.00     0.000 A 
ENDBRANCH  17  18
ENDBRANCH   5  17
TORSDOF 2
ENDMDL
MODEL 4
REMARK VINA RESULT:     -11.0      1.472      2.609
REMARK  2 active torsions:
REMARK  status: ('A' for Active; 'I' for Inactive)
REMARK    1  A    between atoms: C_13  and  C_5 
REMARK    2  A    between atoms: C_16  and  C_13 
ROOT
ATOM      1  C   UNL d   1      53.198  31.642  53.421  0.00  0.00     0.111 A 
ATOM      2  C   UNL d   1      53.708  32.852  53.979  0.00  0.00     0.062 A 
ATOM      3  C   UNL d   1      53.530  31.220  54.034  0.00  0.00     0.213 A 
ATOM      4  C   UNL d   1      54.040  32.429  54.591  0.00  0.00     0.101 A 
ATOM      5  C   UNL d   1      53.285  32.452  53.392  0.00  0.00     0.018 A 
ATOM      6  O   UNL d   1      53.948  31.610  54.615  0.00  0.00    -0.288 OA
ATOM      7  C   UNL d   1      53.795  33.662  53.950  0.00  0.00     0.194 A 
ATOM      8  C   UNL d   1      52.767  31.199  52.830  0.00  0.00     0.105 C 
ATOM      9  N   UNL d   1      52.337  30.781  52.235  0.00  0.00    -0.191 NA
ATOM     10  C   UNL d   1      54.457  32.819  55.173  0.00  0.00     0.002 A 
ATOM     11  C   UNL d   1      54.550  33.641  55.151  0.00  0.00     0.042 A 
ATOM     12  C   UNL d   1      54.218  34.064  54.538  0.00  0.00     0.019 A 
ATOM     13  O   UNL d   1      53.455  34.094  53.323  0.00  0.00    -0.287 OA
ATOM     14  N   UNL d   1      53.417  30.372  54.029  0.00  0.00    -0.120 N 
ATOM     15  C   UNL d   1      54.741  34.420  55.292  0.00  0.00     0.009 C 
ATOM     16  C   UNL d   1      54.988  33.854  55.800  0.00  0.00     0.009 C 
ENDROOT
BRANCH   5  17
ATOM     17  C   UNL d   1      52.946  32.885  52.765  0.00  0.00     0.001 C 
BRANCH  17  18
ATOM     18  C   UNL d   1      52.197  33.208  52.844  0.00  0.00     0.000 A 
ATOM     19  C   UNL d   1      51.998  33.907  52.433  0.00  0.00     0.000 A 
ATOM     20  C   UNL d   1      51.229  34.234  52.518  0.00  0.00     0.000 A 
ATOM     21  C   UNL d   1      50.688  33.884  52.986  0.00  0.00     0.000 A 
ATOM     22  C   UNL d   1      50.875  33.181  53.405  0.00  0.00     0.000 A 
ATOM     23  C   UNL d   1      51.630  32.841  53.335  0.00  0.00     0.000 A 
ENDBRANCH  17  18
ENDBRANCH   5  17
TORSDOF 2
ENDMDL
MODEL 5
REMARK VINA RESULT:     -10.9      0.866      3.028
REMARK  2 active torsions:
REMARK  status: ('A' for Active; 'I' for Inactive)
REMARK    1  A    between atoms: C_13  and  C_5 
REMARK    2  A    between atoms: C_16  and  C_13 
ROOT
ATOM      1  C   UNL d   1      53.638  33.785  54.285  0.00  0.00     0.111 A 
ATOM      2  C   UNL d   1      52.554  33.659  53.367  0.00  0.00     0.062 A 
ATOM      3  C   UNL d   1      53.248  34.395  54.660  0.00  0.00     0.213 A 
ATOM      4  C   UNL d   1      52.164  34.268  53.743  0.00  0.00     0.101 A 
ATOM      5  C   UNL d   1      53.294  33.419  53.643  0.00  0.00     0.018 A 
ATOM      6  O   UNL d   1      52.518  34.635  54.392  0.00  0.00    -0.288 OA
ATOM      7  C   UNL d   1      52.210  33.292  52.725  0.00  0.00     0.194 A 
ATOM      8  C   UNL d   1      54.402  33.561  54.595  0.00  0.00     0.105 C 
ATOM      9  N   UNL d   1      55.160  33.323  54.885  0.00  0.00    -0.191 NA
ATOM     10  C   UNL d   1      51.434  34.508  53.474  0.00  0.00     0.002 A 
ATOM     11  C   UNL d   1      51.078  34.141  52.823  0.00  0.00     0.042 A 
ATOM     12  C   UNL d   1      51.467  33.532  52.447  0.00  0.00     0.019 A 
ATOM     13  O   UNL d   1      52.609  32.669  52.340  0.00  0.00    -0.287 OA
ATOM     14  N   UNL d   1      53.641  34.754  55.330  0.00  0.00    -0.120 N 
ATOM     15  C   UNL d   1      50.587  33.907  52.217  0.00  0.00     0.009 C 
ATOM     16  C   UNL d   1      50.363  34.505  52.699  0.00  0.00     0.009 C 
ENDROOT
BRANCH   5  17
ATOM     17  C   UNL d   1      53.693  32.795  53.258  0.00  0.00     0.001 C 
BRANCH  17  18
ATOM     18  C   UNL d   1      53.558  32.019  53.482  0.00  0.00     0.000 A 
ATOM     19  C   UNL d   1      53.444  31.430  52.900  0.00  0.00     0.000 A 
ATOM     20  C   UNL d   1      53.306  30.636  53.136  0.00  0.00     0.000 A 
ATOM     21  C   UNL d   1      53.282  30.438  53.906  0.00  0.00     0.000 A 
ATOM     22  C   UNL d   1      53.395  31.020  54.501  0.00  0.00     0.000 A 
ATOM     23  C   UNL d   1      53.533  31.812  54.290  0.00  0.00     0.000 A 
ENDBRANCH  17  18
ENDBRANCH   5  17
TORSDOF 2
ENDMDL
MODEL 6
REMARK VINA RESULT:     -10.2      1.373      3.060
REMARK  2 active torsions:
REMARK  status: ('A' for Active; 'I' for Inactive)
REMARK    1  A    between atoms: C_13  and  C_5 
REMARK    2  A    between atoms: C_16  and  C_13 
ROOT
ATOM      1  C   UNL d   1      52.276  33.727  53.134  0.00  0.00     0.111 A 
ATOM      2  C   UNL d   1      53.479  33.442  53.843  0.00  0.00     0.062 A 
ATOM      3  C   UNL d   1      52.128  34.352  53.635  0.00  0.00     0.213 A 
ATOM      4  C   UNL d   1      53.331  34.067  54.345  0.00  0.00     0.101 A 
ATOM      5  C   UNL d   1      52.946  33.274  53.236  0.00  0.00     0.018 A 
ATOM      6  O   UNL d   1      52.651  34.521  54.236  0.00  0.00    -0.288 OA
ATOM      7  C   UNL d   1      54.150  32.989  53.946  0.00  0.00     0.194 A 
ATOM      8  C   UNL d   1      51.704  33.579  52.515  0.00  0.00     0.105 C 
ATOM      9  N   UNL d   1      51.152  33.416  51.896  0.00  0.00    -0.191 NA
ATOM     10  C   UNL d   1      53.855  34.237  54.946  0.00  0.00     0.002 A 
ATOM     11  C   UNL d   1      54.538  33.782  55.056  0.00  0.00     0.042 A 
ATOM     12  C   UNL d   1      54.686  33.157  54.555  0.00  0.00     0.019 A 
ATOM     13  O   UNL d   1      54.301  32.350  53.432  0.00  0.00    -0.287 OA
ATOM     14  N   UNL d   1      51.415  34.803  53.497  0.00  0.00    -0.120 N 
ATOM     15  C   UNL d   1      55.239  33.457  55.311  0.00  0.00     0.009 C 
ATOM     16  C   UNL d   1      54.936  34.090  55.693  0.00  0.00     0.009 C 
ENDROOT
BRANCH   5  17
ATOM     17  C   UNL d   1      53.098  32.634  52.723  0.00  0.00     0.001 C 
BRANCH  17  18
ATOM     18  C   UNL d   1      52.850  31.879  52.919  0.00  0.00     0.000 A 
ATOM     19  C   UNL d   1      53.353  31.226  52.787  0.00  0.00     0.000 A 
ATOM     20  C   UNL d   1      53.093  30.454  52.991  0.00  0.00     0.000 A 
ATOM     21  C   UNL d   1      52.373  30.338  53.309  0.00  0.00     0.000 A 
ATOM     22  C   UNL d   1      51.857  30.985  53.448  0.00  0.00     0.000 A 
ATOM     23  C   UNL d   1      52.094  31.758  53.253  0.00  0.00     0.000 A 
ENDBRANCH  17  18
ENDBRANCH   5  17
TORSDOF 2
ENDMDL
