MODEL 1
REMARK VINA RESULT:      -2.8      0.000      0.000
REMARK  5 active torsions:
REMARK  status: ('A' for Active; 'I' for Inactive)
REMARK    1  A    between atoms: S_10  and  C_6 
REMARK    2  A    between atoms: C_15  and  S_10 
REMARK    3  A    between atoms: C_12  and  C_15 
REMARK       I    between atoms: N_16  and  C_12 
REMARK    4  A    between atoms: C_14  and  C_20 
REMARK    5  A    between atoms: C_20  and  N_16 
ROOT
ATOM      1  C   UNL d   1      30.364  17.197 -24.324  0.00  0.00     0.117 A 
ATOM      2  C   UNL d   1      30.446  16.550 -23.835  0.00  0.00     0.082 A 
ATOM      3  N   UNL d   1      31.019  17.704 -24.453  0.00  0.00    -0.214 NA
ATOM      4  C   UNL d   1      31.159  16.388 -23.468  0.00  0.00     0.283 A 
ATOM      5  N   UNL d   1      31.813  16.895 -23.596  0.00  0.00    -0.183 NA
ATOM      6  C   UNL d   1      31.730  17.544 -24.087  0.00  0.00     0.198 A 
ATOM      7  S   UNL d   1      29.589  17.209 -24.608  0.00  0.00    -0.068 SA
ATOM      8  C   UNL d   1      29.722  16.166 -23.818  0.00  0.00     0.013 A 
ATOM      9  C   UNL d   1      29.175  16.568 -24.298  0.00  0.00     0.031 A 
ATOM     10  O   UNL d   1      31.236  15.714 -22.961  0.00  0.00    -0.265 OA
ATOM     11  C   UNL d   1      29.544  15.472 -23.388  0.00  0.00     0.001 C 
ATOM     12  C   UNL d   1      28.369  16.357 -24.434  0.00  0.00     0.007 C 
ENDROOT
BRANCH   6  13
ATOM     13  S   UNL d   1      32.381  18.047 -24.215  0.00  0.00    -0.043 SA
BRANCH  13  14
ATOM     14  C   UNL d   1      32.558  18.625 -23.667  0.00  0.00     0.101 C 
BRANCH  14  15
ATOM     15  C   UNL d   1      33.015  19.308 -23.905  0.00  0.00     0.286 C 
ATOM     16  O   UNL d   1      33.241  19.391 -24.698  0.00  0.00    -0.265 OA
ATOM     17  N   UNL d   1      33.224  19.871 -23.350  0.00  0.00    -0.206 NA
BRANCH  17  18
ATOM     18  C   UNL d   1      32.998  19.786 -22.567  0.00  0.00     0.102 C 
BRANCH  18  19
ATOM     19  C   UNL d   1      33.211  20.346 -22.012  0.00  0.00     0.021 C 
ATOM     20  C   UNL d   1      32.907  20.314 -21.245  0.00  0.00     0.002 C 
ENDBRANCH  18  19
ENDBRANCH  17  18
ENDBRANCH  14  15
ENDBRANCH  13  14
ENDBRANCH   6  13
TORSDOF 5
ENDMDL
MODEL 2
REMARK VINA RESULT:      -2.7      1.372      4.807
REMARK  5 active torsions:
REMARK  status: ('A' for Active; 'I' for Inactive)
REMARK    1  A    between atoms: S_10  and  C_6 
REMARK    2  A    between atoms: C_15  and  S_10 
REMARK    3  A    between atoms: C_12  and  C_15 
REMARK       I    between atoms: N_16  and  C_12 
REMARK    4  A    between atoms: C_14  and  C_20 
REMARK    5  A    between atoms: C_20  and  N_16 
ROOT
ATOM      1  C   UNL d   1      33.237  19.731 -21.890  0.00  0.00     0.117 A 
ATOM      2  C   UNL d   1      33.238  20.329 -22.444  0.00  0.00     0.082 A 
ATOM      3  N   UNL d   1      33.236  18.932 -22.144  0.00  0.00    -0.214 NA
ATOM      4  C   UNL d   1      33.238  20.161 -23.244  0.00  0.00     0.283 A 
ATOM      5  N   UNL d   1      33.236  19.363 -23.498  0.00  0.00    -0.183 NA
ATOM      6  C   UNL d   1      33.235  18.763 -22.942  0.00  0.00     0.198 A 
ATOM      7  S   UNL d   1      33.238  20.075 -21.140  0.00  0.00    -0.068 SA
ATOM      8  C   UNL d   1      33.240  21.039 -22.034  0.00  0.00     0.013 A 
ATOM      9  C   UNL d   1      33.240  20.895 -21.215  0.00  0.00     0.031 A 
ATOM     10  O   UNL d   1      33.239  20.788 -23.813  0.00  0.00    -0.265 OA
ATOM     11  C   UNL d   1      33.241  21.803 -22.374  0.00  0.00     0.001 C 
ATOM     12  C   UNL d   1      33.241  21.472 -20.600  0.00  0.00     0.007 C 
ENDROOT
BRANCH   6  13
ATOM     13  S   UNL d   1      33.234  17.969 -23.194  0.00  0.00    -0.043 SA
BRANCH  13  14
ATOM     14  C   UNL d   1      32.541  17.632 -23.459  0.00  0.00     0.101 C 
BRANCH  14  15
ATOM     15  C   UNL d   1      32.532  16.808 -23.690  0.00  0.00     0.286 C 
ATOM     16  O   UNL d   1      33.237  16.372 -23.669  0.00  0.00    -0.265 OA
ATOM     17  N   UNL d   1      31.833  16.459 -23.928  0.00  0.00    -0.206 NA
BRANCH  17  18
ATOM     18  C   UNL d   1      31.138  16.894 -23.948  0.00  0.00     0.102 C 
BRANCH  18  19
ATOM     19  C   UNL d   1      30.494  16.625 -24.373  0.00  0.00     0.021 C 
ATOM     20  C   UNL d   1      29.802  16.396 -23.986  0.00  0.00     0.002 C 
ENDBRANCH  18  19
ENDBRANCH  17  18
ENDBRANCH  14  15
ENDBRANCH  13  14
ENDBRANCH   6  13
TORSDOF 5
ENDMDL
MODEL 3
REMARK VINA RESULT:      -2.1      1.392      1.804
REMARK  5 active torsions:
REMARK  status: ('A' for Active; 'I' for Inactive)
REMARK    1  A    between atoms: S_10  and  C_6 
REMARK    2  A    between atoms: C_15  and  S_10 
REMARK    3  A    between atoms: C_12  and  C_15 
REMARK       I    between atoms: N_16  and  C_12 
REMARK    4  A    between atoms: C_14  and  C_20 
REMARK    5  A    between atoms: C_20  and  N_16 
ROOT
ATOM      1  C   UNL d   1      29.707  16.370 -23.740  0.00  0.00     0.117 A 
ATOM      2  C   UNL d   1      29.127  16.896 -23.964  0.00  0.00     0.082 A 
ATOM      3  N   UNL d   1      30.501  16.505 -23.972  0.00  0.00    -0.214 NA
ATOM      4  C   UNL d   1      29.307  17.555 -24.414  0.00  0.00     0.283 A 
ATOM      5  N   UNL d   1      30.101  17.690 -24.646  0.00  0.00    -0.183 NA
ATOM      6  C   UNL d   1      30.683  17.161 -24.421  0.00  0.00     0.198 A 
ATOM      7  S   UNL d   1      29.353  15.770 -23.296  0.00  0.00    -0.068 SA
ATOM      8  C   UNL d   1      28.418  16.620 -23.659  0.00  0.00     0.013 A 
ATOM      9  C   UNL d   1      28.544  15.915 -23.237  0.00  0.00     0.031 A 
ATOM     10  O   UNL d   1      28.699  18.097 -24.643  0.00  0.00    -0.265 OA
ATOM     11  C   UNL d   1      27.670  16.983 -23.748  0.00  0.00     0.001 C 
ATOM     12  C   UNL d   1      27.963  15.453 -22.837  0.00  0.00     0.007 C 
ENDROOT
BRANCH   6  13
ATOM     13  S   UNL d   1      31.472  17.296 -24.652  0.00  0.00    -0.043 SA
BRANCH  13  14
ATOM     14  C   UNL d   1      31.903  17.885 -24.289  0.00  0.00     0.101 C 
BRANCH  14  15
ATOM     15  C   UNL d   1      32.742  17.953 -24.446  0.00  0.00     0.286 C 
ATOM     16  O   UNL d   1      33.072  17.536 -25.082  0.00  0.00    -0.265 OA
ATOM     17  N   UNL d   1      33.208  18.426 -23.969  0.00  0.00    -0.206 NA
BRANCH  17  18
ATOM     18  C   UNL d   1      32.877  18.836 -23.341  0.00  0.00     0.102 C 
BRANCH  18  19
ATOM     19  C   UNL d   1      33.241  19.506 -23.048  0.00  0.00     0.021 C 
ATOM     20  C   UNL d   1      33.173  19.706 -22.250  0.00  0.00     0.002 C 
ENDBRANCH  18  19
ENDBRANCH  17  18
ENDBRANCH  14  15
ENDBRANCH  13  14
ENDBRANCH   6  13
TORSDOF 5
ENDMDL
MODEL 4
REMARK VINA RESULT:      -1.7      2.960      3.977
REMARK  5 active torsions:
REMARK  status: ('A' for Active; 'I' for Inactive)
REMARK    1  A    between atoms: S_10  and  C_6 
REMARK    2  A    between atoms: C_15  and  S_10 
REMARK    3  A    between atoms: C_12  and  C_15 
REMARK       I    between atoms: N_16  and  C_12 
REMARK    4  A    between atoms: C_14  and  C_20 
REMARK    5  A    between atoms: C_20  and  N_16 
ROOT
ATOM      1  C   UNL d   1      33.138  19.734 -23.851  0.00  0.00     0.117 A 
ATOM      2  C   UNL d   1      33.164  19.269 -23.183  0.00  0.00     0.082 A 
ATOM      3  N   UNL d   1      33.164  20.568 -23.776  0.00  0.00    -0.214 NA
ATOM      4  C   UNL d   1      33.214  19.604 -22.438  0.00  0.00     0.283 A 
ATOM      5  N   UNL d   1      33.241  20.438 -22.363  0.00  0.00    -0.183 NA
ATOM      6  C   UNL d   1      33.215  20.904 -23.034  0.00  0.00     0.198 A 
ATOM      7  S   UNL d   1      33.088  19.238 -24.509  0.00  0.00    -0.068 SA
ATOM      8  C   UNL d   1      33.129  18.488 -23.430  0.00  0.00     0.013 A 
ATOM      9  C   UNL d   1      33.081  18.453 -24.259  0.00  0.00     0.031 A 
ATOM     10  O   UNL d   1      33.241  19.113 -21.749  0.00  0.00    -0.265 OA
ATOM     11  C   UNL d   1      33.139  17.815 -22.935  0.00  0.00     0.001 C 
ATOM     12  C   UNL d   1      33.036  17.758 -24.735  0.00  0.00     0.007 C 
ENDROOT
BRANCH   6  13
ATOM     13  S   UNL d   1      33.241  21.734 -22.959  0.00  0.00    -0.043 SA
BRANCH  13  14
ATOM     14  C   UNL d   1      32.924  22.088 -22.296  0.00  0.00     0.101 C 
BRANCH  14  15
ATOM     15  C   UNL d   1      32.890  22.942 -22.249  0.00  0.00     0.286 C 
ATOM     16  O   UNL d   1      33.062  23.394 -22.922  0.00  0.00    -0.265 OA
ATOM     17  N   UNL d   1      32.689  23.303 -21.544  0.00  0.00    -0.206 NA
BRANCH  17  18
ATOM     18  C   UNL d   1      32.520  22.852 -20.881  0.00  0.00     0.102 C 
BRANCH  18  19
ATOM     19  C   UNL d   1      32.330  23.213 -20.173  0.00  0.00     0.021 C 
ATOM     20  C   UNL d   1      32.628  22.922 -19.460  0.00  0.00     0.002 C 
ENDBRANCH  18  19
ENDBRANCH  17  18
ENDBRANCH  14  15
ENDBRANCH  13  14
ENDBRANCH   6  13
TORSDOF 5
ENDMDL
MODEL 5
REMARK VINA RESULT:      -1.0      2.441      5.328
REMARK  5 active torsions:
REMARK  status: ('A' for Active; 'I' for Inactive)
REMARK    1  A    between atoms: S_10  and  C_6 
REMARK    2  A    between atoms: C_15  and  S_10 
REMARK    3  A    between atoms: C_12  and  C_15 
REMARK       I    between atoms: N_16  and  C_12 
REMARK    4  A    between atoms: C_14  and  C_20 
REMARK    5  A    between atoms: C_20  and  N_16 
ROOT
ATOM      1  C   UNL d   1      32.774  21.315 -21.711  0.00  0.00     0.117 A 
ATOM      2  C   UNL d   1      32.774  22.112 -21.879  0.00  0.00     0.082 A 
ATOM      3  N   UNL d   1      32.932  20.764 -22.323  0.00  0.00    -0.214 NA
ATOM      4  C   UNL d   1      32.925  22.384 -22.635  0.00  0.00     0.283 A 
ATOM      5  N   UNL d   1      33.083  21.833 -23.247  0.00  0.00    -0.183 NA
ATOM      6  C   UNL d   1      33.083  21.033 -23.078  0.00  0.00     0.198 A 
ATOM      7  S   UNL d   1      32.605  21.219 -20.909  0.00  0.00    -0.068 SA
ATOM      8  C   UNL d   1      32.604  22.506 -21.180  0.00  0.00     0.013 A 
ATOM      9  C   UNL d   1      32.496  21.959 -20.563  0.00  0.00     0.031 A 
ATOM     10  O   UNL d   1      32.923  23.214 -22.800  0.00  0.00    -0.265 OA
ATOM     11  C   UNL d   1      32.545  23.334 -21.084  0.00  0.00     0.001 C 
ATOM     12  C   UNL d   1      32.313  22.132 -19.758  0.00  0.00     0.007 C 
ENDROOT
BRANCH   6  13
ATOM     13  S   UNL d   1      33.240  20.486 -23.686  0.00  0.00    -0.043 SA
BRANCH  13  14
ATOM     14  C   UNL d   1      32.857  19.765 -23.689  0.00  0.00     0.101 C 
BRANCH  14  15
ATOM     15  C   UNL d   1      32.913  19.259 -24.377  0.00  0.00     0.286 C 
ATOM     16  O   UNL d   1      33.213  19.567 -25.086  0.00  0.00    -0.265 OA
ATOM     17  N   UNL d   1      32.672  18.479 -24.329  0.00  0.00    -0.206 NA
BRANCH  17  18
ATOM     18  C   UNL d   1      32.377  18.179 -23.626  0.00  0.00     0.102 C 
BRANCH  18  19
ATOM     19  C   UNL d   1      32.029  17.440 -23.606  0.00  0.00     0.021 C 
ATOM     20  C   UNL d   1      32.421  16.801 -23.261  0.00  0.00     0.002 C 
ENDBRANCH  18  19
ENDBRANCH  17  18
ENDBRANCH  14  15
ENDBRANCH  13  14
ENDBRANCH   6  13
TORSDOF 5
ENDMDL
MODEL 6
REMARK VINA RESULT:      -0.1      3.221      4.718
REMARK  5 active torsions:
REMARK  status: ('A' for Active; 'I' for Inactive)
REMARK    1  A    between atoms: S_10  and  C_6 
REMARK    2  A    between atoms: C_15  and  S_10 
REMARK    3  A    between atoms: C_12  and  C_15 
REMARK       I    between atoms: N_16  and  C_12 
REMARK    4  A    between atoms: C_14  and  C_20 
REMARK    5  A    between atoms: C_20  and  N_16 
ROOT
ATOM      1  C   UNL d   1      32.882  20.124 -22.496  0.00  0.00     0.117 A 
ATOM      2  C   UNL d   1      33.017  19.621 -21.870  0.00  0.00     0.082 A 
ATOM      3  N   UNL d   1      32.822  20.949 -22.358  0.00  0.00    -0.214 NA
ATOM      4  C   UNL d   1      33.095  19.908 -21.108  0.00  0.00     0.283 A 
ATOM      5  N   UNL d   1      33.034  20.732 -20.970  0.00  0.00    -0.183 NA
ATOM      6  C   UNL d   1      32.899  21.237 -21.600  0.00  0.00     0.198 A 
ATOM      7  S   UNL d   1      32.831  19.671 -23.184  0.00  0.00    -0.068 SA
ATOM      8  C   UNL d   1      33.049  18.860 -22.173  0.00  0.00     0.013 A 
ATOM      9  C   UNL d   1      32.934  18.876 -22.996  0.00  0.00     0.031 A 
ATOM     10  O   UNL d   1      33.235  19.378 -20.463  0.00  0.00    -0.265 OA
ATOM     11  C   UNL d   1      33.177  18.160 -21.734  0.00  0.00     0.001 C 
ATOM     12  C   UNL d   1      32.925  18.214 -23.520  0.00  0.00     0.007 C 
ENDROOT
BRANCH   6  13
ATOM     13  S   UNL d   1      32.839  22.056 -21.463  0.00  0.00    -0.043 SA
BRANCH  13  14
ATOM     14  C   UNL d   1      32.609  22.327 -20.728  0.00  0.00     0.101 C 
BRANCH  14  15
ATOM     15  C   UNL d   1      32.608  23.168 -20.568  0.00  0.00     0.286 C 
ATOM     16  O   UNL d   1      32.678  23.702 -21.198  0.00  0.00    -0.265 OA
ATOM     17  N   UNL d   1      32.539  23.435 -19.799  0.00  0.00    -0.206 NA
BRANCH  17  18
ATOM     18  C   UNL d   1      32.470  22.903 -19.179  0.00  0.00     0.102 C 
BRANCH  18  19
ATOM     19  C   UNL d   1      32.401  23.171 -18.411  0.00  0.00     0.021 C 
ATOM     20  C   UNL d   1      32.594  22.680 -17.776  0.00  0.00     0.002 C 
ENDBRANCH  18  19
ENDBRANCH  17  18
ENDBRANCH  14  15
ENDBRANCH  13  14
ENDBRANCH   6  13
TORSDOF 5
ENDMDL
