MODEL 1
REMARK VINA RESULT:      78.3      0.000      0.000
REMARK  4 active torsions:
REMARK  status: ('A' for Active; 'I' for Inactive)
REMARK    1  A    between atoms: C_2  and  N_1 
REMARK    2  A    between atoms: C_14  and  C_7 
REMARK    3  A    between atoms: O_20  and  C_14 
REMARK    4  A    between atoms: C_23  and  O_20 
ROOT
ATOM      1  C   UNL d   1     -56.897 -98.975 -44.083  0.00  0.00     0.105 A 
ATOM      2  C   UNL d   1     -57.050 -99.179 -44.874  0.00  0.00     0.086 A 
ATOM      3  S   UNL d   1     -56.092 -98.857 -43.990  0.00  0.00    -0.069 SA
ATOM      4  C   UNL d   1     -56.306 -99.177 -45.242  0.00  0.00     0.013 A 
ATOM      5  C   UNL d   1     -55.729 -98.981 -44.703  0.00  0.00     0.031 A 
ATOM      6  C   UNL d   1     -56.076 -99.330 -46.014  0.00  0.00     0.001 A 
ATOM      7  C   UNL d   1     -54.956 -98.938 -44.910  0.00  0.00     0.006 A 
ATOM      8  C   UNL d   1     -55.281 -99.289 -46.241  0.00  0.00     0.000 A 
ATOM      9  C   UNL d   1     -54.720 -99.092 -45.687  0.00  0.00     0.001 A 
ENDROOT
BRANCH   1  10
ATOM     10  N   UNL d   1     -57.541 -98.927 -43.548  0.00  0.00    -0.236 N 
ATOM     11  C   UNL d   1     -58.314 -98.949 -43.823  0.00  0.00     0.266 A 
ATOM     12  C   UNL d   1     -58.788 -98.890 -43.169  0.00  0.00     0.069 A 
ATOM     13  O   UNL d   1     -58.534 -99.020 -44.631  0.00  0.00    -0.267 OA
ATOM     14  C   UNL d   1     -59.606 -98.882 -43.092  0.00  0.00     0.165 A 
ATOM     15  C   UNL d   1     -58.307 -98.831 -42.486  0.00  0.00     0.069 A 
ATOM     16  C   UNL d   1     -59.960 -98.815 -42.348  0.00  0.00     0.006 A 
ATOM     17  O   UNL d   1     -58.904 -98.834 -42.535  0.00  0.00    -0.341 OA
ATOM     18  C   UNL d   1     -59.479 -98.756 -41.666  0.00  0.00     0.006 A 
ATOM     19  C   UNL d   1     -58.659 -98.765 -41.748  0.00  0.00     0.165 A 
ATOM     20  C   UNL d   1     -57.541 -98.854 -42.726  0.00  0.00     0.266 A 
ATOM     21  O   UNL d   1     -56.983 -98.819 -42.317  0.00  0.00    -0.267 OA
ENDBRANCH   1  10
BRANCH   2  22
ATOM     22  C   UNL d   1     -57.783 -99.349 -45.225  0.00  0.00     0.302 C 
ATOM     23  O   UNL d   1     -58.058 -99.811 -45.179  0.00  0.00    -0.259 OA
BRANCH  22  24
ATOM     24  O   UNL d   1     -58.149 -98.756 -45.702  0.00  0.00    -0.271 OA
BRANCH  24  25
ATOM     25  C   UNL d   1     -58.458 -98.968 -46.417  0.00  0.00     0.126 C 
ATOM     26  C   UNL d   1     -59.243 -99.261 -46.430  0.00  0.00     0.029 C 
ENDBRANCH  24  25
ENDBRANCH  22  24
ENDBRANCH   2  22
TORSDOF 4
ENDMDL
