MODEL 1
REMARK VINA RESULT:      -1.2      0.000      0.000
REMARK  5 active torsions:
REMARK  status: ('A' for Active; 'I' for Inactive)
REMARK    1  A    between atoms: C_10  and  N_1 
REMARK    2  A    between atoms: S_7  and  C_2 
REMARK    3  A    between atoms: C_12  and  S_7 
REMARK    4  A    between atoms: C_9  and  C_12 
REMARK    5  A    between atoms: O_16  and  C_9 
ROOT
ATOM      1  N   UNL d   1      59.016  -0.526  29.873  0.00  0.00    -0.254 N 
ATOM      2  C   UNL d   1      58.785  -1.303  29.691  0.00  0.00     0.182 A 
ATOM      3  C   UNL d   1      58.591  -0.090  30.434  0.00  0.00     0.274 A 
ATOM      4  C   UNL d   1      57.939  -0.426  30.813  0.00  0.00     0.104 A 
ATOM      5  N   UNL d   1      58.129  -1.642  30.072  0.00  0.00    -0.222 NA
ATOM      6  C   UNL d   1      57.708  -1.202  30.631  0.00  0.00     0.095 A 
ATOM      7  S   UNL d   1      57.423  -0.136  31.379  0.00  0.00    -0.080 SA
ATOM      8  O   UNL d   1      58.820   0.682  30.615  0.00  0.00    -0.266 OA
ATOM      9  C   UNL d   1      57.051  -1.387  31.087  0.00  0.00     0.027 A 
ATOM     10  C   UNL d   1      56.870  -0.739  31.547  0.00  0.00     0.037 A 
ENDROOT
BRANCH   2  11
ATOM     11  S   UNL d   1      59.212  -1.744  29.126  0.00  0.00    -0.044 SA
BRANCH  11  12
ATOM     12  C   UNL d   1      58.876  -2.447  28.839  0.00  0.00     0.095 C 
ATOM     13  C   UNL d   1      58.148  -2.427  28.461  0.00  0.00     0.013 C 
BRANCH  12  14
ATOM     14  C   UNL d   1      59.177  -2.982  28.912  0.00  0.00     0.302 C 
ATOM     15  O   UNL d   1      58.804  -3.619  29.276  0.00  0.00    -0.259 OA
BRANCH  14  16
ATOM     16  O   UNL d   1      59.958  -3.055  28.641  0.00  0.00    -0.295 OA
ATOM     17  C   UNL d   1      60.326  -3.795  28.620  0.00  0.00     0.185 C 
ENDBRANCH  14  16
ENDBRANCH  12  14
ENDBRANCH  11  12
ENDBRANCH   2  11
BRANCH   1  18
ATOM     18  C   UNL d   1      59.665  -0.190  29.497  0.00  0.00     0.069 A 
ATOM     19  C   UNL d   1      59.553   0.294  28.833  0.00  0.00     0.018 A 
ATOM     20  C   UNL d   1      60.203   0.633  28.455  0.00  0.00     0.002 A 
ATOM     21  C   UNL d   1      60.966   0.490  28.736  0.00  0.00     0.000 A 
ATOM     22  C   UNL d   1      61.077   0.006  29.400  0.00  0.00     0.002 A 
ATOM     23  C   UNL d   1      60.427  -0.333  29.778  0.00  0.00     0.018 A 
ENDBRANCH   1  18
TORSDOF 5
ENDMDL
MODEL 2
REMARK VINA RESULT:       1.4      1.211      2.792
REMARK  5 active torsions:
REMARK  status: ('A' for Active; 'I' for Inactive)
REMARK    1  A    between atoms: C_10  and  N_1 
REMARK    2  A    between atoms: S_7  and  C_2 
REMARK    3  A    between atoms: C_12  and  S_7 
REMARK    4  A    between atoms: C_9  and  C_12 
REMARK    5  A    between atoms: O_16  and  C_9 
ROOT
ATOM      1  N   UNL d   1      58.250  -1.392  30.098  0.00  0.00    -0.254 N 
ATOM      2  C   UNL d   1      58.615  -0.655  29.988  0.00  0.00     0.182 A 
ATOM      3  C   UNL d   1      57.628  -1.468  30.642  0.00  0.00     0.274 A 
ATOM      4  C   UNL d   1      57.374  -0.812  31.073  0.00  0.00     0.104 A 
ATOM      5  N   UNL d   1      58.359   0.006  30.421  0.00  0.00    -0.222 NA
ATOM      6  C   UNL d   1      57.739  -0.075  30.962  0.00  0.00     0.095 A 
ATOM      7  S   UNL d   1      56.787  -0.719  31.636  0.00  0.00    -0.080 SA
ATOM      8  O   UNL d   1      57.265  -2.200  30.752  0.00  0.00    -0.266 OA
ATOM      9  C   UNL d   1      57.375   0.469  31.458  0.00  0.00     0.027 A 
ATOM     10  C   UNL d   1      56.791   0.082  31.874  0.00  0.00     0.037 A 
ENDROOT
BRANCH   2  11
ATOM     11  S   UNL d   1      59.240  -0.577  29.441  0.00  0.00    -0.044 SA
BRANCH  11  12
ATOM     12  C   UNL d   1      59.427   0.182  29.162  0.00  0.00     0.095 C 
ATOM     13  C   UNL d   1      58.829   0.681  28.903  0.00  0.00     0.013 C 
BRANCH  12  14
ATOM     14  C   UNL d   1      60.017   0.368  29.150  0.00  0.00     0.302 C 
ATOM     15  O   UNL d   1      60.455   0.308  28.456  0.00  0.00    -0.259 OA
BRANCH  14  16
ATOM     16  O   UNL d   1      60.364   0.677  29.838  0.00  0.00    -0.295 OA
ATOM     17  C   UNL d   1      61.122   0.438  30.066  0.00  0.00     0.185 C 
ENDBRANCH  14  16
ENDBRANCH  12  14
ENDBRANCH  11  12
ENDBRANCH   2  11
BRANCH   1  18
ATOM     18  C   UNL d   1      58.502  -2.046  29.670  0.00  0.00     0.069 A 
ATOM     19  C   UNL d   1      58.030  -2.347  29.058  0.00  0.00     0.018 A 
ATOM     20  C   UNL d   1      58.282  -3.004  28.627  0.00  0.00     0.002 A 
ATOM     21  C   UNL d   1      59.003  -3.363  28.805  0.00  0.00     0.000 A 
ATOM     22  C   UNL d   1      59.474  -3.062  29.417  0.00  0.00     0.002 A 
ATOM     23  C   UNL d   1      59.223  -2.405  29.848  0.00  0.00     0.018 A 
ENDBRANCH   1  18
TORSDOF 5
ENDMDL
MODEL 3
REMARK VINA RESULT:       1.6      2.070      3.688
REMARK  5 active torsions:
REMARK  status: ('A' for Active; 'I' for Inactive)
REMARK    1  A    between atoms: C_10  and  N_1 
REMARK    2  A    between atoms: S_7  and  C_2 
REMARK    3  A    between atoms: C_12  and  S_7 
REMARK    4  A    between atoms: C_9  and  C_12 
REMARK    5  A    between atoms: O_16  and  C_9 
ROOT
ATOM      1  N   UNL d   1      58.999   0.216  30.580  0.00  0.00    -0.254 N 
ATOM      2  C   UNL d   1      58.596   0.287  31.302  0.00  0.00     0.182 A 
ATOM      3  C   UNL d   1      59.824   0.295  30.558  0.00  0.00     0.274 A 
ATOM      4  C   UNL d   1      60.244   0.444  31.252  0.00  0.00     0.104 A 
ATOM      5  N   UNL d   1      59.018   0.437  32.002  0.00  0.00    -0.222 NA
ATOM      6  C   UNL d   1      59.841   0.515  31.974  0.00  0.00     0.095 A 
ATOM      7  S   UNL d   1      61.043   0.546  31.399  0.00  0.00    -0.080 SA
ATOM      8  O   UNL d   1      60.224   0.224  29.840  0.00  0.00    -0.266 OA
ATOM      9  C   UNL d   1      60.394   0.661  32.562  0.00  0.00     0.027 A 
ATOM     10  C   UNL d   1      61.132   0.682  32.218  0.00  0.00     0.037 A 
ENDROOT
BRANCH   2  11
ATOM     11  S   UNL d   1      57.766   0.208  31.326  0.00  0.00    -0.044 SA
BRANCH  11  12
ATOM     12  C   UNL d   1      57.385   0.275  32.061  0.00  0.00     0.095 C 
ATOM     13  C   UNL d   1      57.797   0.561  32.711  0.00  0.00     0.013 C 
BRANCH  12  14
ATOM     14  C   UNL d   1      56.792   0.109  32.115  0.00  0.00     0.302 C 
ATOM     15  O   UNL d   1      56.197   0.607  31.842  0.00  0.00    -0.259 OA
BRANCH  14  16
ATOM     16  O   UNL d   1      56.599  -0.619  32.465  0.00  0.00    -0.295 OA
ATOM     17  C   UNL d   1      55.910  -1.019  32.244  0.00  0.00     0.185 C 
ENDBRANCH  14  16
ENDBRANCH  12  14
ENDBRANCH  11  12
ENDBRANCH   2  11
BRANCH   1  18
ATOM     18  C   UNL d   1      58.582   0.067  29.888  0.00  0.00     0.069 A 
ATOM     19  C   UNL d   1      58.550  -0.703  29.581  0.00  0.00     0.018 A 
ATOM     20  C   UNL d   1      58.132  -0.854  28.886  0.00  0.00     0.002 A 
ATOM     21  C   UNL d   1      57.746  -0.239  28.495  0.00  0.00     0.000 A 
ATOM     22  C   UNL d   1      57.778   0.531  28.801  0.00  0.00     0.002 A 
ATOM     23  C   UNL d   1      58.196   0.682  29.496  0.00  0.00     0.018 A 
ENDBRANCH   1  18
TORSDOF 5
ENDMDL
