MODEL 1
REMARK VINA RESULT:      66.2      0.000      0.000
REMARK  3 active torsions:
REMARK  status: ('A' for Active; 'I' for Inactive)
REMARK    1  A    between atoms: N_9  and  C_4 
REMARK       I    between atoms: C_7  and  N_10 
REMARK    2  A    between atoms: C_8  and  C_7 
REMARK    3  A    between atoms: N_10  and  N_9 
ROOT
ATOM      1  C   UNL d   1     -49.088  28.919  34.107  0.00  0.00     0.297 C 
ATOM      2  N   UNL d   1     -49.327  28.135  34.020  0.00  0.00    -0.104 NA
ATOM      3  O   UNL d   1     -49.457  29.514  33.671  0.00  0.00    -0.264 OA
ENDROOT
BRANCH   1   4
ATOM      4  C   UNL d   1     -48.481  29.106  34.630  0.00  0.00     0.059 A 
ATOM      5  C   UNL d   1     -48.226  29.894  34.687  0.00  0.00     0.005 A 
ATOM      6  C   UNL d   1     -47.614  30.073  35.217  0.00  0.00     0.000 A 
ATOM      7  C   UNL d   1     -48.568  30.476  34.235  0.00  0.00     0.000 A 
ATOM      8  C   UNL d   1     -47.357  30.848  35.279  0.00  0.00     0.000 A 
ATOM      9  C   UNL d   1     -47.266  29.482  35.676  0.00  0.00     0.000 A 
ATOM     10  C   UNL d   1     -47.696  31.433  34.829  0.00  0.00     0.000 A 
ATOM     11  C   UNL d   1     -48.310  31.249  34.299  0.00  0.00     0.000 A 
ATOM     12  C   UNL d   1     -47.526  28.703  35.613  0.00  0.00     0.000 A 
ATOM     13  C   UNL d   1     -48.136  28.513  35.088  0.00  0.00     0.005 A 
ENDBRANCH   1   4
BRANCH   2  14
ATOM     14  N   UNL d   1     -49.934  27.948  33.497  0.00  0.00    -0.127 NA
BRANCH  14  15
ATOM     15  C   UNL d   1     -50.215  27.171  33.450  0.00  0.00     0.178 A 
ATOM     16  N   UNL d   1     -51.022  27.021  33.450  0.00  0.00    -0.240 N 
ATOM     17  C   UNL d   1     -51.298  26.253  33.403  0.00  0.00     0.343 A 
ATOM     18  C   UNL d   1     -51.556  27.648  33.498  0.00  0.00     0.105 C 
ATOM     19  N   UNL d   1     -50.765  25.626  33.355  0.00  0.00    -0.224 N 
ATOM     20  O   UNL d   1     -52.111  26.104  33.404  0.00  0.00    -0.245 OA
ATOM     21  C   UNL d   1     -49.950  25.760  33.354  0.00  0.00     0.271 A 
ATOM     22  C   UNL d   1     -51.043  24.849  33.308  0.00  0.00     0.107 C 
ATOM     23  C   UNL d   1     -49.681  26.544  33.402  0.00  0.00     0.101 A 
ATOM     24  O   UNL d   1     -49.421  25.139  33.306  0.00  0.00    -0.266 OA
ENDBRANCH  14  15
ENDBRANCH   2  14
TORSDOF 3
ENDMDL
