MODEL 1
REMARK VINA RESULT:      18.5      0.000      0.000
REMARK  6 active torsions:
REMARK  status: ('A' for Active; 'I' for Inactive)
REMARK    1  A    between atoms: C_6  and  C_1 
REMARK    2  A    between atoms: C_7  and  C_3 
REMARK    3  A    between atoms: O_11  and  C_6 
REMARK    4  A    between atoms: O_12  and  C_7 
REMARK    5  A    between atoms: C_14  and  O_11 
REMARK    6  A    between atoms: C_15  and  O_12 
ROOT
ATOM      1  C   UNL d   1      14.464  12.917  -1.156  0.00  0.00     0.083 A 
ATOM      2  C   UNL d   1      13.912  12.966  -1.787  0.00  0.00     0.030 A 
ATOM      3  C   UNL d   1      13.975  12.258  -2.209  0.00  0.00     0.145 A 
ATOM      4  N   UNL d   1      14.538  11.783  -1.865  0.00  0.00    -0.240 NA
ATOM      5  C   UNL d   1      14.842  12.195  -1.209  0.00  0.00     0.087 A 
ATOM      6  C   UNL d   1      13.422  13.591  -1.936  0.00  0.00     0.002 C 
ATOM      7  C   UNL d   1      15.428  11.935  -0.686  0.00  0.00     0.021 C 
ENDROOT
BRANCH   1   8
ATOM      8  C   UNL d   1      14.610  13.486  -0.580  0.00  0.00     0.302 C 
ATOM      9  O   UNL d   1      14.063  13.633  -0.016  0.00  0.00    -0.259 OA
BRANCH   8  10
ATOM     10  O   UNL d   1      15.339  13.905  -0.598  0.00  0.00    -0.271 OA
BRANCH  10  11
ATOM     11  C   UNL d   1      15.476  14.521  -0.108  0.00  0.00     0.126 C 
ATOM     12  C   UNL d   1      16.176  14.958  -0.156  0.00  0.00     0.029 C 
ENDBRANCH  10  11
ENDBRANCH   8  10
ENDBRANCH   1   8
BRANCH   3  13
ATOM     13  C   UNL d   1      13.517  12.089  -2.879  0.00  0.00     0.318 C 
ATOM     14  O   UNL d   1      12.772  11.809  -2.816  0.00  0.00    -0.257 OA
BRANCH  13  15
ATOM     15  O   UNL d   1      13.835  12.213  -3.616  0.00  0.00    -0.270 OA
BRANCH  15  16
ATOM     16  C   UNL d   1      13.414  12.028  -4.295  0.00  0.00     0.126 C 
ATOM     17  C   UNL d   1      13.781  12.000  -5.019  0.00  0.00     0.029 C 
ENDBRANCH  15  16
ENDBRANCH  13  15
ENDBRANCH   3  13
TORSDOF 6
ENDMDL
MODEL 2
REMARK VINA RESULT:      19.7      0.833      3.739
REMARK  6 active torsions:
REMARK  status: ('A' for Active; 'I' for Inactive)
REMARK    1  A    between atoms: C_6  and  C_1 
REMARK    2  A    between atoms: C_7  and  C_3 
REMARK    3  A    between atoms: O_11  and  C_6 
REMARK    4  A    between atoms: O_12  and  C_7 
REMARK    5  A    between atoms: C_14  and  O_11 
REMARK    6  A    between atoms: C_15  and  O_12 
ROOT
ATOM      1  C   UNL d   1      13.911  12.763  -2.324  0.00  0.00     0.083 A 
ATOM      2  C   UNL d   1      14.211  12.520  -1.579  0.00  0.00     0.030 A 
ATOM      3  C   UNL d   1      14.590  13.179  -1.253  0.00  0.00     0.145 A 
ATOM      4  N   UNL d   1      14.534  13.809  -1.765  0.00  0.00    -0.240 NA
ATOM      5  C   UNL d   1      14.110  13.547  -2.433  0.00  0.00     0.087 A 
ATOM      6  C   UNL d   1      14.135  11.782  -1.258  0.00  0.00     0.002 C 
ATOM      7  C   UNL d   1      13.914  13.992  -3.102  0.00  0.00     0.021 C 
ENDROOT
BRANCH   1   8
ATOM      8  C   UNL d   1      13.489  12.304  -2.862  0.00  0.00     0.302 C 
ATOM      9  O   UNL d   1      12.944  11.781  -2.599  0.00  0.00    -0.259 OA
BRANCH   8  10
ATOM     10  O   UNL d   1      13.643  12.397  -3.684  0.00  0.00    -0.271 OA
BRANCH  10  11
ATOM     11  C   UNL d   1      13.442  11.830  -4.210  0.00  0.00     0.126 C 
ATOM     12  C   UNL d   1      13.019  12.014  -4.896  0.00  0.00     0.029 C 
ENDBRANCH  10  11
ENDBRANCH   8  10
ENDBRANCH   1   8
BRANCH   3  13
ATOM     13  C   UNL d   1      14.962  13.166  -0.513  0.00  0.00     0.318 C 
ATOM     14  O   UNL d   1      15.187  12.481  -0.171  0.00  0.00    -0.257 OA
BRANCH  13  15
ATOM     15  O   UNL d   1      15.100  13.868  -0.127  0.00  0.00    -0.270 OA
BRANCH  15  16
ATOM     16  C   UNL d   1      15.852  14.191  -0.091  0.00  0.00     0.126 C 
ATOM     17  C   UNL d   1      15.960  14.992  -0.014  0.00  0.00     0.029 C 
ENDBRANCH  15  16
ENDBRANCH  13  15
ENDBRANCH   3  13
TORSDOF 6
ENDMDL
MODEL 3
REMARK VINA RESULT:      20.2      1.682      3.442
REMARK  6 active torsions:
REMARK  status: ('A' for Active; 'I' for Inactive)
REMARK    1  A    between atoms: C_6  and  C_1 
REMARK    2  A    between atoms: C_7  and  C_3 
REMARK    3  A    between atoms: O_11  and  C_6 
REMARK    4  A    between atoms: O_12  and  C_7 
REMARK    5  A    between atoms: C_14  and  O_11 
REMARK    6  A    between atoms: C_15  and  O_12 
ROOT
ATOM      1  C   UNL d   1      13.345  12.991  -3.638  0.00  0.00     0.083 A 
ATOM      2  C   UNL d   1      13.766  13.086  -2.919  0.00  0.00     0.030 A 
ATOM      3  C   UNL d   1      13.863  12.328  -2.601  0.00  0.00     0.145 A 
ATOM      4  N   UNL d   1      13.520  11.779  -3.094  0.00  0.00    -0.240 NA
ATOM      5  C   UNL d   1      13.197  12.194  -3.740  0.00  0.00     0.087 A 
ATOM      6  C   UNL d   1      14.020  13.789  -2.611  0.00  0.00     0.002 C 
ATOM      7  C   UNL d   1      12.793  11.871  -4.386  0.00  0.00     0.021 C 
ENDROOT
BRANCH   1   8
ATOM      8  C   UNL d   1      13.113  13.584  -4.160  0.00  0.00     0.302 C 
ATOM      9  O   UNL d   1      12.769  13.392  -4.855  0.00  0.00    -0.259 OA
BRANCH   8  10
ATOM     10  O   UNL d   1      13.246  14.387  -3.946  0.00  0.00    -0.271 OA
BRANCH  10  11
ATOM     11  C   UNL d   1      13.121  14.980  -4.467  0.00  0.00     0.126 C 
ATOM     12  C   UNL d   1      13.721  15.520  -4.651  0.00  0.00     0.029 C 
ENDBRANCH  10  11
ENDBRANCH   8  10
ENDBRANCH   1   8
BRANCH   3  13
ATOM     13  C   UNL d   1      14.255  12.185  -1.886  0.00  0.00     0.318 C 
ATOM     14  O   UNL d   1      15.037  12.030  -1.862  0.00  0.00    -0.257 OA
BRANCH  13  15
ATOM     15  O   UNL d   1      13.832  12.203  -1.192  0.00  0.00    -0.270 OA
BRANCH  15  16
ATOM     16  C   UNL d   1      14.083  11.787  -0.532  0.00  0.00     0.126 C 
ATOM     17  C   UNL d   1      14.846  11.853  -0.262  0.00  0.00     0.029 C 
ENDBRANCH  15  16
ENDBRANCH  13  15
ENDBRANCH   3  13
TORSDOF 6
ENDMDL
