MODEL 1
REMARK VINA RESULT:      -7.2      0.000      0.000
REMARK  3 active torsions:
REMARK  status: ('A' for Active; 'I' for Inactive)
REMARK    1  A    between atoms: N_3  and  C_1 
REMARK       I    between atoms: C_5  and  N_3 
REMARK    2  A    between atoms: C_10  and  C_4 
REMARK       I    between atoms: N_8  and  C_5 
REMARK    3  A    between atoms: C_11  and  N_8 
ROOT
ATOM      1  C   UNL d   1     -48.711  12.651  23.231  0.00  0.00     0.199 A 
ATOM      2  N   UNL d   1     -47.891  12.662  23.131  0.00  0.00    -0.221 NA
ATOM      3  C   UNL d   1     -47.581  11.914  23.402  0.00  0.00     0.090 A 
ATOM      4  S   UNL d   1     -48.949  11.930  23.554  0.00  0.00    -0.046 SA
ATOM      5  C   UNL d   1     -48.241  11.456  23.666  0.00  0.00     0.058 A 
ENDROOT
BRANCH   1   6
ATOM      6  N   UNL d   1     -49.231  13.287  23.031  0.00  0.00    -0.166 NA
ATOM      7  C   UNL d   1     -49.652  13.248  22.303  0.00  0.00     0.370 C 
ATOM      8  N   UNL d   1     -50.172  13.884  22.104  0.00  0.00    -0.191 NA
ATOM      9  O   UNL d   1     -49.570  12.621  21.795  0.00  0.00    -0.242 OA
BRANCH   8  10
ATOM     10  C   UNL d   1     -50.253  14.514  22.618  0.00  0.00     0.086 A 
ATOM     11  C   UNL d   1     -50.878  14.584  23.143  0.00  0.00     0.019 A 
ATOM     12  C   UNL d   1     -50.944  15.230  23.657  0.00  0.00     0.002 A 
ATOM     13  C   UNL d   1     -50.367  15.817  23.642  0.00  0.00     0.000 A 
ATOM     14  C   UNL d   1     -49.734  15.762  23.123  0.00  0.00     0.002 A 
ATOM     15  C   UNL d   1     -49.690  15.107  22.618  0.00  0.00     0.019 A 
ENDBRANCH   8  10
ENDBRANCH   1   6
BRANCH   3  16
ATOM     16  C   UNL d   1     -46.786  11.691  23.400  0.00  0.00     0.018 A 
ATOM     17  C   UNL d   1     -46.545  10.942  23.698  0.00  0.00     0.002 A 
ATOM     18  C   UNL d   1     -45.770  10.723  23.697  0.00  0.00     0.000 A 
ATOM     19  C   UNL d   1     -45.183  11.249  23.395  0.00  0.00     0.000 A 
ATOM     20  C   UNL d   1     -45.421  11.985  23.103  0.00  0.00     0.000 A 
ATOM     21  C   UNL d   1     -46.216  12.198  23.109  0.00  0.00     0.002 A 
ENDBRANCH   3  16
TORSDOF 3
ENDMDL
MODEL 2
REMARK VINA RESULT:      -6.8      1.610      2.197
REMARK  3 active torsions:
REMARK  status: ('A' for Active; 'I' for Inactive)
REMARK    1  A    between atoms: N_3  and  C_1 
REMARK       I    between atoms: C_5  and  N_3 
REMARK    2  A    between atoms: C_10  and  C_4 
REMARK       I    between atoms: N_8  and  C_5 
REMARK    3  A    between atoms: C_11  and  N_8 
ROOT
ATOM      1  C   UNL d   1     -47.789  13.702  22.664  0.00  0.00     0.199 A 
ATOM      2  N   UNL d   1     -47.238  13.125  22.451  0.00  0.00    -0.221 NA
ATOM      3  C   UNL d   1     -46.457  13.439  22.594  0.00  0.00     0.090 A 
ATOM      4  S   UNL d   1     -47.403  14.377  22.939  0.00  0.00    -0.046 SA
ATOM      5  C   UNL d   1     -46.559  14.221  22.899  0.00  0.00     0.058 A 
ENDROOT
BRANCH   1   6
ATOM      6  N   UNL d   1     -48.628  13.613  22.608  0.00  0.00    -0.166 NA
ATOM      7  C   UNL d   1     -49.040  14.048  22.015  0.00  0.00     0.370 C 
ATOM      8  N   UNL d   1     -49.878  13.960  21.959  0.00  0.00    -0.191 NA
ATOM      9  O   UNL d   1     -48.653  14.544  21.503  0.00  0.00    -0.242 OA
BRANCH   8  10
ATOM     10  C   UNL d   1     -50.265  13.459  22.477  0.00  0.00     0.086 A 
ATOM     11  C   UNL d   1     -50.317  12.650  22.359  0.00  0.00     0.019 A 
ATOM     12  C   UNL d   1     -50.713  12.157  22.895  0.00  0.00     0.002 A 
ATOM     13  C   UNL d   1     -51.064  12.488  23.563  0.00  0.00     0.000 A 
ATOM     14  C   UNL d   1     -51.021  13.297  23.695  0.00  0.00     0.002 A 
ATOM     15  C   UNL d   1     -50.620  13.769  23.146  0.00  0.00     0.019 A 
ENDBRANCH   8  10
ENDBRANCH   1   6
BRANCH   3  16
ATOM     16  C   UNL d   1     -45.745  13.044  22.457  0.00  0.00     0.018 A 
ATOM     17  C   UNL d   1     -45.216  13.302  21.856  0.00  0.00     0.002 A 
ATOM     18  C   UNL d   1     -44.520  12.918  21.720  0.00  0.00     0.000 A 
ATOM     19  C   UNL d   1     -44.312  12.245  22.186  0.00  0.00     0.000 A 
ATOM     20  C   UNL d   1     -44.833  11.993  22.777  0.00  0.00     0.000 A 
ATOM     21  C   UNL d   1     -45.541  12.393  22.906  0.00  0.00     0.002 A 
ENDBRANCH   3  16
TORSDOF 3
ENDMDL
