MODEL 1
REMARK VINA RESULT:      -9.9      0.000      0.000
REMARK  2 active torsions:
REMARK  status: ('A' for Active; 'I' for Inactive)
REMARK    1  A    between atoms: N_5  and  C_1 
REMARK       I    between atoms: C_7  and  N_5 
REMARK    2  A    between atoms: C_11  and  C_7 
ROOT
ATOM      1  C   UNL d   1      52.553  34.070  53.702  0.00  0.00     0.124 A 
ATOM      2  C   UNL d   1      53.033  34.481  54.183  0.00  0.00     0.093 A 
ATOM      3  S   UNL d   1      52.802  33.286  53.671  0.00  0.00    -0.067 SA
ATOM      4  C   UNL d   1      53.608  33.978  54.480  0.00  0.00     0.018 A 
ATOM      5  C   UNL d   1      53.460  33.211  54.151  0.00  0.00     0.032 A 
ATOM      6  C   UNL d   1      52.965  35.322  54.368  0.00  0.00     0.103 C 
ATOM      7  N   UNL d   1      52.913  36.120  54.553  0.00  0.00    -0.191 NA
ATOM      8  C   UNL d   1      54.236  34.091  54.991  0.00  0.00     0.001 A 
ATOM      9  C   UNL d   1      53.946  32.588  54.346  0.00  0.00     0.006 A 
ATOM     10  C   UNL d   1      54.720  33.427  55.173  0.00  0.00     0.000 A 
ATOM     11  C   UNL d   1      54.585  32.730  54.874  0.00  0.00     0.001 A 
ENDROOT
BRANCH   1  12
ATOM     12  N   UNL d   1      51.886  34.380  53.280  0.00  0.00    -0.201 NA
ATOM     13  C   UNL d   1      51.235  33.897  53.117  0.00  0.00     0.280 C 
ATOM     14  O   UNL d   1      51.224  33.078  53.371  0.00  0.00    -0.265 OA
BRANCH  13  15
ATOM     15  C   UNL d   1      50.596  34.193  52.713  0.00  0.00     0.058 A 
ATOM     16  C   UNL d   1      50.562  34.078  51.871  0.00  0.00     0.005 A 
ATOM     17  C   UNL d   1      49.895  34.388  51.450  0.00  0.00     0.000 A 
ATOM     18  C   UNL d   1      49.294  34.797  51.891  0.00  0.00     0.000 A 
ATOM     19  C   UNL d   1      49.340  34.900  52.703  0.00  0.00     0.000 A 
ATOM     20  C   UNL d   1      49.979  34.604  53.107  0.00  0.00     0.005 A 
ENDBRANCH  13  15
ENDBRANCH   1  12
TORSDOF 2
ENDMDL
MODEL 2
REMARK VINA RESULT:      -9.0      2.048      3.697
REMARK  2 active torsions:
REMARK  status: ('A' for Active; 'I' for Inactive)
REMARK    1  A    between atoms: N_5  and  C_1 
REMARK       I    between atoms: C_7  and  N_5 
REMARK    2  A    between atoms: C_11  and  C_7 
ROOT
ATOM      1  C   UNL d   1      53.092  32.963  54.017  0.00  0.00     0.124 A 
ATOM      2  C   UNL d   1      53.491  33.465  54.487  0.00  0.00     0.093 A 
ATOM      3  S   UNL d   1      52.598  33.391  53.517  0.00  0.00    -0.067 SA
ATOM      4  C   UNL d   1      53.269  34.233  54.307  0.00  0.00     0.018 A 
ATOM      5  C   UNL d   1      52.695  34.186  53.685  0.00  0.00     0.032 A 
ATOM      6  C   UNL d   1      54.067  33.242  55.090  0.00  0.00     0.103 C 
ATOM      7  N   UNL d   1      54.616  33.046  55.668  0.00  0.00    -0.191 NA
ATOM      8  C   UNL d   1      53.492  34.961  54.605  0.00  0.00     0.001 A 
ATOM      9  C   UNL d   1      52.368  34.868  53.386  0.00  0.00     0.006 A 
ATOM     10  C   UNL d   1      53.136  35.648  54.275  0.00  0.00     0.000 A 
ATOM     11  C   UNL d   1      52.614  35.605  53.709  0.00  0.00     0.001 A 
ENDROOT
BRANCH   1  12
ATOM     12  N   UNL d   1      53.157  32.118  54.021  0.00  0.00    -0.201 NA
ATOM     13  C   UNL d   1      53.013  31.685  53.331  0.00  0.00     0.280 C 
ATOM     14  O   UNL d   1      52.797  32.084  52.603  0.00  0.00    -0.265 OA
BRANCH  13  15
ATOM     15  C   UNL d   1      53.076  30.876  53.335  0.00  0.00     0.058 A 
ATOM     16  C   UNL d   1      52.367  30.416  53.236  0.00  0.00     0.005 A 
ATOM     17  C   UNL d   1      52.432  29.571  53.240  0.00  0.00     0.000 A 
ATOM     18  C   UNL d   1      53.203  29.227  53.342  0.00  0.00     0.000 A 
ATOM     19  C   UNL d   1      53.877  29.683  53.436  0.00  0.00     0.000 A 
ATOM     20  C   UNL d   1      53.815  30.493  53.432  0.00  0.00     0.005 A 
ENDBRANCH  13  15
ENDBRANCH   1  12
TORSDOF 2
ENDMDL
MODEL 3
REMARK VINA RESULT:      -8.9      2.292      4.145
REMARK  2 active torsions:
REMARK  status: ('A' for Active; 'I' for Inactive)
REMARK    1  A    between atoms: N_5  and  C_1 
REMARK       I    between atoms: C_7  and  N_5 
REMARK    2  A    between atoms: C_11  and  C_7 
ROOT
ATOM      1  C   UNL d   1      53.157  32.385  53.757  0.00  0.00     0.124 A 
ATOM      2  C   UNL d   1      53.454  33.061  54.053  0.00  0.00     0.093 A 
ATOM      3  S   UNL d   1      52.589  32.561  53.188  0.00  0.00    -0.067 SA
ATOM      4  C   UNL d   1      53.087  33.696  53.686  0.00  0.00     0.018 A 
ATOM      5  C   UNL d   1      52.532  33.375  53.131  0.00  0.00     0.032 A 
ATOM      6  C   UNL d   1      54.062  33.122  54.661  0.00  0.00     0.103 C 
ATOM      7  N   UNL d   1      54.641  33.196  55.239  0.00  0.00    -0.191 NA
ATOM      8  C   UNL d   1      53.167  34.505  53.765  0.00  0.00     0.001 A 
ATOM      9  C   UNL d   1      52.079  33.877  52.678  0.00  0.00     0.006 A 
ATOM     10  C   UNL d   1      52.684  34.998  53.283  0.00  0.00     0.000 A 
ATOM     11  C   UNL d   1      52.180  34.707  52.778  0.00  0.00     0.001 A 
ENDROOT
BRANCH   1  12
ATOM     12  N   UNL d   1      53.384  31.600  53.983  0.00  0.00    -0.201 NA
ATOM     13  C   UNL d   1      52.960  30.947  53.705  0.00  0.00     0.280 C 
ATOM     14  O   UNL d   1      52.288  31.053  53.184  0.00  0.00    -0.265 OA
BRANCH  13  15
ATOM     15  C   UNL d   1      53.177  30.195  53.922  0.00  0.00     0.058 A 
ATOM     16  C   UNL d   1      53.615  29.725  53.364  0.00  0.00     0.005 A 
ATOM     17  C   UNL d   1      53.841  28.940  53.590  0.00  0.00     0.000 A 
ATOM     18  C   UNL d   1      53.619  28.664  54.364  0.00  0.00     0.000 A 
ATOM     19  C   UNL d   1      53.198  29.130  54.891  0.00  0.00     0.000 A 
ATOM     20  C   UNL d   1      52.981  29.881  54.673  0.00  0.00     0.005 A 
ENDBRANCH  13  15
ENDBRANCH   1  12
TORSDOF 2
ENDMDL
MODEL 4
REMARK VINA RESULT:      -7.4      1.980      2.680
REMARK  2 active torsions:
REMARK  status: ('A' for Active; 'I' for Inactive)
REMARK    1  A    between atoms: N_5  and  C_1 
REMARK       I    between atoms: C_7  and  N_5 
REMARK    2  A    between atoms: C_11  and  C_7 
ROOT
ATOM      1  C   UNL d   1      52.667  31.795  53.138  0.00  0.00     0.124 A 
ATOM      2  C   UNL d   1      53.389  31.669  53.443  0.00  0.00     0.093 A 
ATOM      3  S   UNL d   1      52.278  31.075  53.049  0.00  0.00    -0.067 SA
ATOM      4  C   UNL d   1      53.492  30.865  53.561  0.00  0.00     0.018 A 
ATOM      5  C   UNL d   1      52.779  30.483  53.308  0.00  0.00     0.032 A 
ATOM      6  C   UNL d   1      53.975  32.277  53.623  0.00  0.00     0.103 C 
ATOM      7  N   UNL d   1      54.542  32.844  53.799  0.00  0.00    -0.191 NA
ATOM      8  C   UNL d   1      54.113  30.421  53.855  0.00  0.00     0.001 A 
ATOM      9  C   UNL d   1      52.715  29.673  53.359  0.00  0.00     0.006 A 
ATOM     10  C   UNL d   1      54.016  29.586  53.895  0.00  0.00     0.000 A 
ATOM     11  C   UNL d   1      53.367  29.239  53.665  0.00  0.00     0.001 A 
ENDROOT
BRANCH   1  12
ATOM     12  N   UNL d   1      52.337  32.549  52.932  0.00  0.00    -0.201 NA
ATOM     13  C   UNL d   1      51.526  32.688  53.022  0.00  0.00     0.280 C 
ATOM     14  O   UNL d   1      51.009  32.074  53.323  0.00  0.00    -0.265 OA
BRANCH  13  15
ATOM     15  C   UNL d   1      51.210  33.409  52.825  0.00  0.00     0.058 A 
ATOM     16  C   UNL d   1      50.662  33.770  53.366  0.00  0.00     0.005 A 
ATOM     17  C   UNL d   1      50.332  34.524  53.160  0.00  0.00     0.000 A 
ATOM     18  C   UNL d   1      50.567  34.879  52.424  0.00  0.00     0.000 A 
ATOM     19  C   UNL d   1      51.097  34.519  51.913  0.00  0.00     0.000 A 
ATOM     20  C   UNL d   1      51.413  33.797  52.110  0.00  0.00     0.005 A 
ENDBRANCH  13  15
ENDBRANCH   1  12
TORSDOF 2
ENDMDL
MODEL 5
REMARK VINA RESULT:      -7.2      1.237      4.388
REMARK  2 active torsions:
REMARK  status: ('A' for Active; 'I' for Inactive)
REMARK    1  A    between atoms: N_5  and  C_1 
REMARK       I    between atoms: C_7  and  N_5 
REMARK    2  A    between atoms: C_11  and  C_7 
ROOT
ATOM      1  C   UNL d   1      52.286  33.728  53.457  0.00  0.00     0.124 A 
ATOM      2  C   UNL d   1      51.894  33.240  52.968  0.00  0.00     0.093 A 
ATOM      3  S   UNL d   1      51.857  34.424  53.553  0.00  0.00    -0.067 SA
ATOM      4  C   UNL d   1      51.198  33.604  52.731  0.00  0.00     0.018 A 
ATOM      5  C   UNL d   1      51.174  34.363  53.107  0.00  0.00     0.032 A 
ATOM      6  C   UNL d   1      52.153  32.455  52.723  0.00  0.00     0.103 C 
ATOM      7  N   UNL d   1      52.386  31.706  52.480  0.00  0.00    -0.191 NA
ATOM      8  C   UNL d   1      50.588  33.370  52.240  0.00  0.00     0.001 A 
ATOM      9  C   UNL d   1      50.541  34.858  52.976  0.00  0.00     0.006 A 
ATOM     10  C   UNL d   1      49.948  33.903  52.125  0.00  0.00     0.000 A 
ATOM     11  C   UNL d   1      49.926  34.594  52.466  0.00  0.00     0.001 A 
ENDROOT
BRANCH   1  12
ATOM     12  N   UNL d   1      53.032  33.568  53.829  0.00  0.00    -0.201 NA
ATOM     13  C   UNL d   1      53.372  34.124  54.337  0.00  0.00     0.280 C 
ATOM     14  O   UNL d   1      52.979  34.869  54.496  0.00  0.00    -0.265 OA
BRANCH  13  15
ATOM     15  C   UNL d   1      54.086  33.970  54.692  0.00  0.00     0.058 A 
ATOM     16  C   UNL d   1      54.084  33.588  55.452  0.00  0.00     0.005 A 
ATOM     17  C   UNL d   1      54.829  33.428  55.823  0.00  0.00     0.000 A 
ATOM     18  C   UNL d   1      55.540  33.658  55.416  0.00  0.00     0.000 A 
ATOM     19  C   UNL d   1      55.525  34.026  54.684  0.00  0.00     0.000 A 
ATOM     20  C   UNL d   1      54.812  34.179  54.328  0.00  0.00     0.005 A 
ENDBRANCH  13  15
ENDBRANCH   1  12
TORSDOF 2
ENDMDL
MODEL 6
REMARK VINA RESULT:      -7.2      2.211      3.539
REMARK  2 active torsions:
REMARK  status: ('A' for Active; 'I' for Inactive)
REMARK    1  A    between atoms: N_5  and  C_1 
REMARK       I    between atoms: C_7  and  N_5 
REMARK    2  A    between atoms: C_11  and  C_7 
ROOT
ATOM      1  C   UNL d   1      53.029  32.317  53.545  0.00  0.00     0.124 A 
ATOM      2  C   UNL d   1      52.441  31.836  53.311  0.00  0.00     0.093 A 
ATOM      3  S   UNL d   1      53.709  31.874  53.683  0.00  0.00    -0.067 SA
ATOM      4  C   UNL d   1      52.721  31.065  53.290  0.00  0.00     0.018 A 
ATOM      5  C   UNL d   1      53.534  31.089  53.529  0.00  0.00     0.032 A 
ATOM      6  C   UNL d   1      51.638  32.079  53.111  0.00  0.00     0.103 C 
ATOM      7  N   UNL d   1      50.870  32.295  52.917  0.00  0.00    -0.191 NA
ATOM      8  C   UNL d   1      52.372  30.353  53.095  0.00  0.00     0.001 A 
ATOM      9  C   UNL d   1      53.965  30.400  53.562  0.00  0.00     0.006 A 
ATOM     10  C   UNL d   1      52.843  29.657  53.139  0.00  0.00     0.000 A 
ATOM     11  C   UNL d   1      53.583  29.679  53.356  0.00  0.00     0.001 A 
ENDROOT
BRANCH   1  12
ATOM     12  N   UNL d   1      52.976  33.158  53.640  0.00  0.00    -0.201 NA
ATOM     13  C   UNL d   1      53.340  33.528  54.284  0.00  0.00     0.280 C 
ATOM     14  O   UNL d   1      53.776  33.070  54.862  0.00  0.00    -0.265 OA
BRANCH  13  15
ATOM     15  C   UNL d   1      53.289  34.334  54.376  0.00  0.00     0.058 A 
ATOM     16  C   UNL d   1      53.220  34.646  55.164  0.00  0.00     0.005 A 
ATOM     17  C   UNL d   1      53.167  35.487  55.259  0.00  0.00     0.000 A 
ATOM     18  C   UNL d   1      53.186  35.974  54.562  0.00  0.00     0.000 A 
ATOM     19  C   UNL d   1      53.253  35.657  53.809  0.00  0.00     0.000 A 
ATOM     20  C   UNL d   1      53.304  34.852  53.717  0.00  0.00     0.005 A 
ENDBRANCH  13  15
ENDBRANCH   1  12
TORSDOF 2
ENDMDL
