MODEL 1
REMARK VINA RESULT:      -1.5      0.000      0.000
REMARK  3 active torsions:
REMARK  status: ('A' for Active; 'I' for Inactive)
REMARK    1  A    between atoms: C_6  and  C_1 
REMARK    2  A    between atoms: C_2  and  C_8 
REMARK       I    between atoms: N_11  and  C_6 
REMARK    3  A    between atoms: C_12  and  N_11 
ROOT
ATOM      1  C   UNL d   1      59.977  -0.862  28.942  0.00  0.00     0.054 A 
ATOM      2  C   UNL d   1      59.719  -0.332  29.522  0.00  0.00     0.088 A 
ATOM      3  C   UNL d   1      60.621  -0.679  28.455  0.00  0.00     0.005 A 
ATOM      4  C   UNL d   1      60.113   0.398  29.617  0.00  0.00     0.019 A 
ATOM      5  C   UNL d   1      61.015   0.051  28.551  0.00  0.00     0.000 A 
ATOM      6  C   UNL d   1      60.736   0.577  29.147  0.00  0.00     0.002 A 
ENDROOT
BRANCH   2   7
ATOM      7  N   UNL d   1      59.074  -0.514  30.009  0.00  0.00    -0.207 NA
ATOM      8  C   UNL d   1      58.842  -0.003  30.617  0.00  0.00     0.286 C 
ATOM      9  O   UNL d   1      59.230   0.682  30.754  0.00  0.00    -0.265 OA
BRANCH   8  10
ATOM     10  C   UNL d   1      58.186  -0.206  31.100  0.00  0.00     0.098 A 
ATOM     11  S   UNL d   1      57.658  -0.727  30.887  0.00  0.00    -0.081 SA
ATOM     12  C   UNL d   1      57.098  -0.777  31.507  0.00  0.00     0.030 A 
ATOM     13  C   UNL d   1      56.440  -1.205  31.614  0.00  0.00     0.006 A 
ATOM     14  C   UNL d   1      57.336  -0.251  32.096  0.00  0.00     0.017 A 
ATOM     15  C   UNL d   1      55.999  -1.120  32.313  0.00  0.00     0.001 A 
ATOM     16  C   UNL d   1      56.217  -0.606  32.905  0.00  0.00     0.000 A 
ATOM     17  C   UNL d   1      56.905  -0.159  32.793  0.00  0.00     0.001 A 
ATOM     18  C   UNL d   1      58.033   0.112  31.831  0.00  0.00     0.069 A 
ATOM     19 CL   UNL d   1      58.487   0.674  32.207  0.00  0.00    -0.082 Cl
ENDBRANCH   8  10
ENDBRANCH   2   7
BRANCH   1  20
ATOM     20  C   UNL d   1      59.584  -1.591  28.846  0.00  0.00     0.164 A 
ATOM     21  N   UNL d   1      58.803  -1.801  28.632  0.00  0.00    -0.225 NA
ATOM     22  C   UNL d   1      58.776  -2.612  28.641  0.00  0.00     0.101 A 
ATOM     23  C   UNL d   1      58.155  -3.113  28.477  0.00  0.00     0.021 A 
ATOM     24  C   UNL d   1      59.473  -2.910  28.842  0.00  0.00     0.101 A 
ATOM     25  C   UNL d   1      58.249  -3.931  28.520  0.00  0.00     0.002 A 
ATOM     26  C   UNL d   1      58.951  -4.234  28.722  0.00  0.00     0.002 A 
ATOM     27  C   UNL d   1      59.568  -3.730  28.884  0.00  0.00     0.021 A 
ATOM     28  N   UNL d   1      59.996  -2.297  28.975  0.00  0.00    -0.225 NA
ENDBRANCH   1  20
TORSDOF 3
ENDMDL
