MODEL 1
REMARK VINA RESULT:      -5.5      0.000      0.000
REMARK  4 active torsions:
REMARK  status: ('A' for Active; 'I' for Inactive)
REMARK    1  A    between atoms: C_2  and  S_1 
REMARK    2  A    between atoms: C_5  and  S_1 
REMARK    3  A    between atoms: C_7  and  C_5 
REMARK       I    between atoms: N_11  and  C_7 
REMARK    4  A    between atoms: C_14  and  N_11 
ROOT
ATOM      1  S   UNL d   1      57.207   0.165  31.521  0.00  0.00     0.217 S 
ATOM      2  O   UNL d   1      56.671   0.056  30.896  0.00  0.00    -0.217 OA
ATOM      3  O   UNL d   1      57.744   0.274  32.150  0.00  0.00    -0.217 OA
ENDROOT
BRANCH   1   4
ATOM      4  C   UNL d   1      56.761  -0.344  31.996  0.00  0.00     0.109 A 
ATOM      5  C   UNL d   1      56.794  -1.168  31.989  0.00  0.00     0.110 A 
ATOM      6  N   UNL d   1      56.260  -1.451  32.546  0.00  0.00    -0.243 NA
ATOM      7  C   UNL d   1      55.895  -0.799  32.900  0.00  0.00     0.082 A 
ATOM      8  C   UNL d   1      56.207  -0.121  32.557  0.00  0.00     0.030 A 
ATOM      9  C   UNL d   1      55.319  -0.742  33.489  0.00  0.00     0.019 A 
ATOM     10  C   UNL d   1      55.946   0.624  32.801  0.00  0.00     0.002 A 
ATOM     11  C   UNL d   1      55.371   0.682  33.389  0.00  0.00     0.000 A 
ATOM     12  C   UNL d   1      55.061   0.003  33.729  0.00  0.00     0.002 A 
ENDBRANCH   1   4
BRANCH   1  13
ATOM     13  C   UNL d   1      57.664   0.682  31.045  0.00  0.00     0.161 C 
BRANCH  13  14
ATOM     14  C   UNL d   1      58.334   0.388  30.657  0.00  0.00     0.291 C 
ATOM     15  N   UNL d   1      58.323   0.320  29.835  0.00  0.00    -0.207 NA
ATOM     16  O   UNL d   1      59.000   0.168  31.079  0.00  0.00    -0.264 OA
BRANCH  15  17
ATOM     17  C   UNL d   1      58.991   0.027  29.443  0.00  0.00     0.085 A 
ATOM     18  C   UNL d   1      59.704   0.441  29.459  0.00  0.00     0.019 A 
ATOM     19  C   UNL d   1      60.368   0.145  29.066  0.00  0.00     0.002 A 
ATOM     20  C   UNL d   1      60.323  -0.573  28.651  0.00  0.00     0.000 A 
ATOM     21  C   UNL d   1      59.606  -0.985  28.637  0.00  0.00     0.002 A 
ATOM     22  C   UNL d   1      58.946  -0.685  29.031  0.00  0.00     0.019 A 
ENDBRANCH  15  17
ENDBRANCH  13  14
ENDBRANCH   1  13
TORSDOF 4
ENDMDL
MODEL 2
REMARK VINA RESULT:      -4.2      1.062      4.508
REMARK  4 active torsions:
REMARK  status: ('A' for Active; 'I' for Inactive)
REMARK    1  A    between atoms: C_2  and  S_1 
REMARK    2  A    between atoms: C_5  and  S_1 
REMARK    3  A    between atoms: C_7  and  C_5 
REMARK       I    between atoms: N_11  and  C_7 
REMARK    4  A    between atoms: C_14  and  N_11 
ROOT
ATOM      1  S   UNL d   1      58.391   0.339  30.062  0.00  0.00     0.217 S 
ATOM      2  O   UNL d   1      58.812   0.463  30.768  0.00  0.00    -0.217 OA
ATOM      3  O   UNL d   1      57.970   0.214  29.353  0.00  0.00    -0.217 OA
ENDROOT
BRANCH   1   4
ATOM      4  C   UNL d   1      59.066   0.010  29.715  0.00  0.00     0.109 A 
ATOM      5  C   UNL d   1      59.779   0.399  29.577  0.00  0.00     0.110 A 
ATOM      6  N   UNL d   1      60.297  -0.132  29.224  0.00  0.00    -0.243 NA
ATOM      7  C   UNL d   1      59.901  -0.854  29.142  0.00  0.00     0.082 A 
ATOM      8  C   UNL d   1      59.144  -0.760  29.447  0.00  0.00     0.030 A 
ATOM      9  C   UNL d   1      60.138  -1.581  28.830  0.00  0.00     0.019 A 
ATOM     10  C   UNL d   1      58.614  -1.394  29.441  0.00  0.00     0.002 A 
ATOM     11  C   UNL d   1      58.850  -2.120  29.129  0.00  0.00     0.000 A 
ATOM     12  C   UNL d   1      59.607  -2.210  28.827  0.00  0.00     0.002 A 
ENDBRANCH   1   4
BRANCH   1  13
ATOM     13  C   UNL d   1      57.703   0.672  30.408  0.00  0.00     0.161 C 
BRANCH  13  14
ATOM     14  C   UNL d   1      57.450   0.399  31.147  0.00  0.00     0.291 C 
ATOM     15  N   UNL d   1      56.670   0.142  31.234  0.00  0.00    -0.207 NA
ATOM     16  O   UNL d   1      57.961   0.382  31.786  0.00  0.00    -0.264 OA
BRANCH  15  17
ATOM     17  C   UNL d   1      56.413  -0.132  31.971  0.00  0.00     0.085 A 
ATOM     18  C   UNL d   1      56.157   0.397  32.551  0.00  0.00     0.019 A 
ATOM     19  C   UNL d   1      55.900   0.119  33.286  0.00  0.00     0.002 A 
ATOM     20  C   UNL d   1      55.897  -0.695  33.448  0.00  0.00     0.000 A 
ATOM     21  C   UNL d   1      56.154  -1.222  32.864  0.00  0.00     0.002 A 
ATOM     22  C   UNL d   1      56.410  -0.940  32.131  0.00  0.00     0.019 A 
ENDBRANCH  15  17
ENDBRANCH  13  14
ENDBRANCH   1  13
TORSDOF 4
ENDMDL
MODEL 3
REMARK VINA RESULT:      -3.7      0.872      4.709
REMARK  4 active torsions:
REMARK  status: ('A' for Active; 'I' for Inactive)
REMARK    1  A    between atoms: C_2  and  S_1 
REMARK    2  A    between atoms: C_5  and  S_1 
REMARK    3  A    between atoms: C_7  and  C_5 
REMARK       I    between atoms: N_11  and  C_7 
REMARK    4  A    between atoms: C_14  and  N_11 
ROOT
ATOM      1  S   UNL d   1      57.752  -0.208  30.541  0.00  0.00     0.217 S 
ATOM      2  O   UNL d   1      58.134  -0.781  31.005  0.00  0.00    -0.217 OA
ATOM      3  O   UNL d   1      57.368   0.367  30.075  0.00  0.00    -0.217 OA
ENDROOT
BRANCH   1   4
ATOM      4  C   UNL d   1      58.473  -0.005  30.192  0.00  0.00     0.109 A 
ATOM      5  C   UNL d   1      58.905   0.682  30.335  0.00  0.00     0.110 A 
ATOM      6  N   UNL d   1      59.584   0.659  29.873  0.00  0.00    -0.243 NA
ATOM      7  C   UNL d   1      59.572  -0.046  29.441  0.00  0.00     0.082 A 
ATOM      8  C   UNL d   1      58.885  -0.450  29.642  0.00  0.00     0.030 A 
ATOM      9  C   UNL d   1      60.100  -0.366  28.893  0.00  0.00     0.019 A 
ATOM     10  C   UNL d   1      58.720  -1.182  29.295  0.00  0.00     0.002 A 
ATOM     11  C   UNL d   1      59.247  -1.502  28.747  0.00  0.00     0.000 A 
ATOM     12  C   UNL d   1      59.931  -1.095  28.549  0.00  0.00     0.002 A 
ENDBRANCH   1   4
BRANCH   1  13
ATOM     13  C   UNL d   1      57.017  -0.409  30.891  0.00  0.00     0.161 C 
BRANCH  13  14
ATOM     14  C   UNL d   1      56.813  -0.077  31.622  0.00  0.00     0.291 C 
ATOM     15  N   UNL d   1      56.366  -0.523  32.154  0.00  0.00    -0.207 NA
ATOM     16  O   UNL d   1      57.048   0.682  31.818  0.00  0.00    -0.264 OA
BRANCH  15  17
ATOM     17  C   UNL d   1      56.159  -0.195  32.885  0.00  0.00     0.085 A 
ATOM     18  C   UNL d   1      56.740  -0.007  33.441  0.00  0.00     0.019 A 
ATOM     19  C   UNL d   1      56.528   0.321  34.170  0.00  0.00     0.002 A 
ATOM     20  C   UNL d   1      55.731   0.462  34.351  0.00  0.00     0.000 A 
ATOM     21  C   UNL d   1      55.152   0.271  33.791  0.00  0.00     0.002 A 
ATOM     22  C   UNL d   1      55.368  -0.055  33.064  0.00  0.00     0.019 A 
ENDBRANCH  15  17
ENDBRANCH  13  14
ENDBRANCH   1  13
TORSDOF 4
ENDMDL
