MODEL 1
REMARK VINA RESULT:      -2.8      0.000      0.000
REMARK  5 active torsions:
REMARK  status: ('A' for Active; 'I' for Inactive)
REMARK    1  A    between atoms: C_2  and  C_1 
REMARK       I    between atoms: N_3  and  C_2 
REMARK    2  A    between atoms: C_6  and  N_3 
REMARK    3  A    between atoms: O_15  and  C_5 
REMARK    4  A    between atoms: O_17  and  C_11 
REMARK    5  A    between atoms: O_18  and  C_14 
ROOT
ATOM      1  C   UNL d   1      57.828   0.002  30.969  0.00  0.00     0.281 C 
ATOM      2  N   UNL d   1      58.136  -0.722  30.674  0.00  0.00    -0.206 NA
ATOM      3  O   UNL d   1      57.914   0.682  30.542  0.00  0.00    -0.265 OA
ENDROOT
BRANCH   1   4
ATOM      4  C   UNL d   1      57.436   0.014  31.705  0.00  0.00     0.080 A 
ATOM      5  C   UNL d   1      56.674  -0.271  31.776  0.00  0.00     0.007 A 
ATOM      6  C   UNL d   1      56.265  -0.269  32.495  0.00  0.00     0.000 A 
ATOM      7  C   UNL d   1      55.519  -0.550  32.556  0.00  0.00     0.000 A 
ATOM      8  C   UNL d   1      56.652   0.040  33.180  0.00  0.00     0.002 A 
ATOM      9  C   UNL d   1      55.115  -0.547  33.271  0.00  0.00     0.000 A 
ATOM     10  C   UNL d   1      55.502  -0.238  33.956  0.00  0.00     0.000 A 
ATOM     11  C   UNL d   1      56.277   0.054  33.896  0.00  0.00     0.000 A 
ATOM     12  C   UNL d   1      57.433   0.334  33.116  0.00  0.00     0.024 A 
ATOM     13  C   UNL d   1      57.823   0.323  32.389  0.00  0.00     0.099 A 
BRANCH  13  14
ATOM     14  O   UNL d   1      58.598   0.615  32.330  0.00  0.00    -0.328 OA
ATOM     15  C   UNL d   1      59.078   0.682  33.022  0.00  0.00     0.181 C 
ENDBRANCH  13  14
ENDBRANCH   1   4
BRANCH   2  16
ATOM     16  C   UNL d   1      58.528  -0.734  29.938  0.00  0.00     0.109 A 
ATOM     17  C   UNL d   1      58.933  -0.073  29.706  0.00  0.00     0.045 A 
ATOM     18  C   UNL d   1      59.311  -0.103  28.984  0.00  0.00     0.096 A 
ATOM     19  C   UNL d   1      59.290  -0.769  28.504  0.00  0.00     0.026 A 
ATOM     20  C   UNL d   1      58.879  -1.417  28.757  0.00  0.00     0.028 A 
ATOM     21  C   UNL d   1      58.496  -1.423  29.461  0.00  0.00     0.112 A 
BRANCH  18  22
ATOM     22  O   UNL d   1      59.737   0.571  28.721  0.00  0.00    -0.328 OA
ATOM     23  C   UNL d   1      60.536   0.560  28.731  0.00  0.00     0.181 C 
ENDBRANCH  18  22
BRANCH  21  24
ATOM     24  O   UNL d   1      58.073  -2.113  29.704  0.00  0.00    -0.327 OA
ATOM     25  C   UNL d   1      58.194  -2.828  29.313  0.00  0.00     0.181 C 
ENDBRANCH  21  24
ENDBRANCH   2  16
TORSDOF 5
ENDMDL
MODEL 2
REMARK VINA RESULT:      -1.9      0.874      1.625
REMARK  5 active torsions:
REMARK  status: ('A' for Active; 'I' for Inactive)
REMARK    1  A    between atoms: C_2  and  C_1 
REMARK       I    between atoms: N_3  and  C_2 
REMARK    2  A    between atoms: C_6  and  N_3 
REMARK    3  A    between atoms: O_15  and  C_5 
REMARK    4  A    between atoms: O_17  and  C_11 
REMARK    5  A    between atoms: O_18  and  C_14 
ROOT
ATOM      1  C   UNL d   1      57.589  -0.848  31.121  0.00  0.00     0.281 C 
ATOM      2  N   UNL d   1      57.852  -0.382  30.474  0.00  0.00    -0.206 NA
ATOM      3  O   UNL d   1      57.685  -1.650  31.107  0.00  0.00    -0.265 OA
ENDROOT
BRANCH   1   4
ATOM      4  C   UNL d   1      57.229  -0.479  31.777  0.00  0.00     0.080 A 
ATOM      5  C   UNL d   1      56.492  -0.713  32.035  0.00  0.00     0.007 A 
ATOM      6  C   UNL d   1      56.115  -0.362  32.682  0.00  0.00     0.000 A 
ATOM      7  C   UNL d   1      55.392  -0.597  32.928  0.00  0.00     0.000 A 
ATOM      8  C   UNL d   1      56.512   0.263  33.090  0.00  0.00     0.002 A 
ATOM      9  C   UNL d   1      55.020  -0.247  33.572  0.00  0.00     0.000 A 
ATOM     10  C   UNL d   1      55.417   0.378  33.980  0.00  0.00     0.000 A 
ATOM     11  C   UNL d   1      56.169   0.625  33.727  0.00  0.00     0.000 A 
ATOM     12  C   UNL d   1      57.269   0.510  32.833  0.00  0.00     0.024 A 
ATOM     13  C   UNL d   1      57.626   0.146  32.185  0.00  0.00     0.099 A 
BRANCH  13  14
ATOM     14  O   UNL d   1      58.378   0.393  31.932  0.00  0.00    -0.328 OA
ATOM     15  C   UNL d   1      58.938   0.680  32.495  0.00  0.00     0.181 C 
ENDBRANCH  13  14
ENDBRANCH   1   4
BRANCH   2  16
ATOM     16  C   UNL d   1      58.212  -0.751  29.819  0.00  0.00     0.109 A 
ATOM     17  C   UNL d   1      58.449  -1.520  29.892  0.00  0.00     0.045 A 
ATOM     18  C   UNL d   1      58.798  -1.865  29.240  0.00  0.00     0.096 A 
ATOM     19  C   UNL d   1      58.911  -1.460  28.536  0.00  0.00     0.026 A 
ATOM     20  C   UNL d   1      58.666  -0.691  28.486  0.00  0.00     0.028 A 
ATOM     21  C   UNL d   1      58.319  -0.321  29.107  0.00  0.00     0.112 A 
BRANCH  18  22
ATOM     22  O   UNL d   1      59.053  -2.664  29.291  0.00  0.00    -0.328 OA
ATOM     23  C   UNL d   1      59.004  -3.135  28.648  0.00  0.00     0.181 C 
ENDBRANCH  18  22
BRANCH  21  24
ATOM     24  O   UNL d   1      58.071   0.484  29.031  0.00  0.00    -0.327 OA
ATOM     25  C   UNL d   1      57.474   0.682  28.499  0.00  0.00     0.181 C 
ENDBRANCH  21  24
ENDBRANCH   2  16
TORSDOF 5
ENDMDL
MODEL 3
REMARK VINA RESULT:      -1.4      1.011      4.771
REMARK  5 active torsions:
REMARK  status: ('A' for Active; 'I' for Inactive)
REMARK    1  A    between atoms: C_2  and  C_1 
REMARK       I    between atoms: N_3  and  C_2 
REMARK    2  A    between atoms: C_6  and  N_3 
REMARK    3  A    between atoms: O_15  and  C_5 
REMARK    4  A    between atoms: O_17  and  C_11 
REMARK    5  A    between atoms: O_18  and  C_14 
ROOT
ATOM      1  C   UNL d   1      57.944  -0.356  30.724  0.00  0.00     0.281 C 
ATOM      2  N   UNL d   1      58.074  -0.487  31.543  0.00  0.00    -0.206 NA
ATOM      3  O   UNL d   1      57.205  -0.165  30.458  0.00  0.00    -0.265 OA
ENDROOT
BRANCH   1   4
ATOM      4  C   UNL d   1      58.579  -0.423  30.188  0.00  0.00     0.080 A 
ATOM      5  C   UNL d   1      59.154   0.154  30.148  0.00  0.00     0.007 A 
ATOM      6  C   UNL d   1      59.794   0.108  29.624  0.00  0.00     0.000 A 
ATOM      7  C   UNL d   1      60.353   0.678  29.591  0.00  0.00     0.000 A 
ATOM      8  C   UNL d   1      59.850  -0.562  29.114  0.00  0.00     0.002 A 
ATOM      9  C   UNL d   1      60.987   0.631  29.071  0.00  0.00     0.000 A 
ATOM     10  C   UNL d   1      61.043  -0.040  28.560  0.00  0.00     0.000 A 
ATOM     11  C   UNL d   1      60.464  -0.635  28.591  0.00  0.00     0.000 A 
ATOM     12  C   UNL d   1      59.265  -1.159  29.148  0.00  0.00     0.024 A 
ATOM     13  C   UNL d   1      58.635  -1.094  29.677  0.00  0.00     0.099 A 
BRANCH  13  14
ATOM     14  O   UNL d   1      58.056  -1.689  29.709  0.00  0.00    -0.328 OA
ATOM     15  C   UNL d   1      58.170  -2.410  29.285  0.00  0.00     0.181 C 
ENDBRANCH  13  14
ENDBRANCH   1   4
BRANCH   2  16
ATOM     16  C   UNL d   1      57.439  -0.419  32.079  0.00  0.00     0.109 A 
ATOM     17  C   UNL d   1      56.803  -0.909  31.986  0.00  0.00     0.045 A 
ATOM     18  C   UNL d   1      56.191  -0.829  32.519  0.00  0.00     0.096 A 
ATOM     19  C   UNL d   1      56.207  -0.278  33.128  0.00  0.00     0.026 A 
ATOM     20  C   UNL d   1      56.854   0.201  33.201  0.00  0.00     0.028 A 
ATOM     21  C   UNL d   1      57.474   0.149  32.694  0.00  0.00     0.112 A 
BRANCH  18  22
ATOM     22  O   UNL d   1      55.519  -1.327  32.444  0.00  0.00    -0.328 OA
ATOM     23  C   UNL d   1      55.313  -1.805  33.050  0.00  0.00     0.181 C 
ENDBRANCH  18  22
BRANCH  21  24
ATOM     24  O   UNL d   1      58.139   0.662  32.791  0.00  0.00    -0.327 OA
ATOM     25  C   UNL d   1      58.542   0.682  33.509  0.00  0.00     0.181 C 
ENDBRANCH  21  24
ENDBRANCH   2  16
TORSDOF 5
ENDMDL
