MODEL 1
REMARK VINA RESULT:      -9.0      0.000      0.000
REMARK  3 active torsions:
REMARK  status: ('A' for Active; 'I' for Inactive)
REMARK       I    between atoms: C_6  and  N_7 
REMARK    1  A    between atoms: C_9  and  C_6 
REMARK    2  A    between atoms: N_7  and  C_13 
REMARK    3  A    between atoms: C_15  and  C_14 
ROOT
ATOM      1  C   UNL d   1     -48.745  11.485  22.597  0.00  0.00     0.279 C 
ATOM      2  N   UNL d   1     -49.558  11.582  22.640  0.00  0.00    -0.208 NA
ATOM      3  O   UNL d   1     -48.433  10.740  22.450  0.00  0.00    -0.265 OA
ENDROOT
BRANCH   2   4
ATOM      4  C   UNL d   1     -49.876  12.329  22.787  0.00  0.00     0.085 A 
ATOM      5  C   UNL d   1     -50.160  12.775  22.162  0.00  0.00     0.024 A 
ATOM      6  C   UNL d   1     -50.478  13.522  22.309  0.00  0.00     0.064 A 
ATOM      7  C   UNL d   1     -50.802  14.092  21.801  0.00  0.00     0.282 A 
ATOM      8  C   UNL d   1     -50.513  13.823  23.069  0.00  0.00     0.063 A 
ATOM      9  N   UNL d   1     -51.032  14.735  22.258  0.00  0.00    -0.169 NA
ATOM     10  O   UNL d   1     -50.887  14.042  20.986  0.00  0.00    -0.265 OA
ATOM     11  C   UNL d   1     -50.854  14.568  23.040  0.00  0.00     0.282 A 
ATOM     12  O   UNL d   1     -50.989  15.059  23.687  0.00  0.00    -0.265 OA
ATOM     13  C   UNL d   1     -50.227  13.373  23.698  0.00  0.00     0.006 A 
ATOM     14  C   UNL d   1     -49.908  12.625  23.561  0.00  0.00     0.019 A 
ENDBRANCH   2   4
BRANCH   1  15
ATOM     15  C   UNL d   1     -48.246  12.121  22.698  0.00  0.00     0.058 A 
ATOM     16  C   UNL d   1     -48.006  12.347  23.449  0.00  0.00     0.005 A 
ATOM     17  C   UNL d   1     -47.499  12.994  23.544  0.00  0.00     0.003 A 
ATOM     18  C   UNL d   1     -47.235  13.414  22.884  0.00  0.00     0.039 A 
ATOM     19  C   UNL d   1     -47.478  13.185  22.130  0.00  0.00     0.003 A 
ATOM     20  C   UNL d   1     -47.984  12.538  22.035  0.00  0.00     0.005 A 
BRANCH  18  21
ATOM     21  C   UNL d   1     -46.729  14.061  22.979  0.00  0.00     0.196 C 
ATOM     22  O   UNL d   1     -46.016  13.972  23.383  0.00  0.00    -0.287 OA
ATOM     23  C   UNL d   1     -46.940  14.796  22.668  0.00  0.00     0.045 C 
ENDBRANCH  18  21
ENDBRANCH   1  15
TORSDOF 3
ENDMDL
MODEL 2
REMARK VINA RESULT:      -8.5      1.548      2.326
REMARK  3 active torsions:
REMARK  status: ('A' for Active; 'I' for Inactive)
REMARK       I    between atoms: C_6  and  N_7 
REMARK    1  A    between atoms: C_9  and  C_6 
REMARK    2  A    between atoms: N_7  and  C_13 
REMARK    3  A    between atoms: C_15  and  C_14 
ROOT
ATOM      1  C   UNL d   1     -47.585  14.874  22.443  0.00  0.00     0.279 C 
ATOM      2  N   UNL d   1     -48.400  14.959  22.395  0.00  0.00    -0.208 NA
ATOM      3  O   UNL d   1     -47.100  15.508  22.256  0.00  0.00    -0.265 OA
ENDROOT
BRANCH   2   4
ATOM      4  C   UNL d   1     -48.892  14.323  22.583  0.00  0.00     0.085 A 
ATOM      5  C   UNL d   1     -49.170  13.840  21.983  0.00  0.00     0.024 A 
ATOM      6  C   UNL d   1     -49.661  13.205  22.170  0.00  0.00     0.064 A 
ATOM      7  C   UNL d   1     -50.023  12.630  21.694  0.00  0.00     0.282 A 
ATOM      8  C   UNL d   1     -49.875  13.050  22.944  0.00  0.00     0.063 A 
ATOM      9  N   UNL d   1     -50.453  12.131  22.184  0.00  0.00    -0.169 NA
ATOM     10  O   UNL d   1     -49.972  12.555  20.877  0.00  0.00    -0.265 OA
ATOM     11  C   UNL d   1     -50.362  12.391  22.955  0.00  0.00     0.282 A 
ATOM     12  O   UNL d   1     -50.696  12.054  23.627  0.00  0.00    -0.265 OA
ATOM     13  C   UNL d   1     -49.594  13.538  23.547  0.00  0.00     0.006 A 
ATOM     14  C   UNL d   1     -49.103  14.175  23.370  0.00  0.00     0.019 A 
ENDBRANCH   2   4
BRANCH   1  15
ATOM     15  C   UNL d   1     -47.256  14.165  22.675  0.00  0.00     0.058 A 
ATOM     16  C   UNL d   1     -47.167  13.987  23.471  0.00  0.00     0.005 A 
ATOM     17  C   UNL d   1     -46.832  13.266  23.698  0.00  0.00     0.003 A 
ATOM     18  C   UNL d   1     -46.588  12.724  23.126  0.00  0.00     0.039 A 
ATOM     19  C   UNL d   1     -46.678  12.904  22.326  0.00  0.00     0.003 A 
ATOM     20  C   UNL d   1     -47.013  13.626  22.099  0.00  0.00     0.005 A 
BRANCH  18  21
ATOM     21  C   UNL d   1     -46.253  12.003  23.353  0.00  0.00     0.196 C 
ATOM     22  O   UNL d   1     -45.435  11.900  23.325  0.00  0.00    -0.287 OA
ATOM     23  C   UNL d   1     -46.739  11.386  23.607  0.00  0.00     0.045 C 
ENDBRANCH  18  21
ENDBRANCH   1  15
TORSDOF 3
ENDMDL
MODEL 3
REMARK VINA RESULT:      -7.8      1.319      3.251
REMARK  3 active torsions:
REMARK  status: ('A' for Active; 'I' for Inactive)
REMARK       I    between atoms: C_6  and  N_7 
REMARK    1  A    between atoms: C_9  and  C_6 
REMARK    2  A    between atoms: N_7  and  C_13 
REMARK    3  A    between atoms: C_15  and  C_14 
ROOT
ATOM      1  C   UNL d   1     -49.641  11.934  22.567  0.00  0.00     0.279 C 
ATOM      2  N   UNL d   1     -48.900  11.587  22.627  0.00  0.00    -0.208 NA
ATOM      3  O   UNL d   1     -50.297  11.465  22.415  0.00  0.00    -0.265 OA
ENDROOT
BRANCH   2   4
ATOM      4  C   UNL d   1     -48.238  12.056  22.779  0.00  0.00     0.085 A 
ATOM      5  C   UNL d   1     -47.766  12.298  22.156  0.00  0.00     0.024 A 
ATOM      6  C   UNL d   1     -47.104  12.766  22.308  0.00  0.00     0.064 A 
ATOM      7  C   UNL d   1     -46.532  13.091  21.803  0.00  0.00     0.282 A 
ATOM      8  C   UNL d   1     -46.913  12.991  23.071  0.00  0.00     0.063 A 
ATOM      9  N   UNL d   1     -45.998  13.511  22.265  0.00  0.00    -0.169 NA
ATOM     10  O   UNL d   1     -46.489  13.019  20.986  0.00  0.00    -0.265 OA
ATOM     11  C   UNL d   1     -46.233  13.449  23.046  0.00  0.00     0.282 A 
ATOM     12  O   UNL d   1     -45.858  13.785  23.698  0.00  0.00    -0.265 OA
ATOM     13  C   UNL d   1     -47.390  12.746  23.698  0.00  0.00     0.006 A 
ATOM     14  C   UNL d   1     -48.053  12.278  23.556  0.00  0.00     0.019 A 
ENDBRANCH   2   4
BRANCH   1  15
ATOM     15  C   UNL d   1     -49.730  12.739  22.656  0.00  0.00     0.058 A 
ATOM     16  C   UNL d   1     -49.809  13.069  23.403  0.00  0.00     0.005 A 
ATOM     17  C   UNL d   1     -49.899  13.887  23.486  0.00  0.00     0.003 A 
ATOM     18  C   UNL d   1     -49.909  14.373  22.819  0.00  0.00     0.039 A 
ATOM     19  C   UNL d   1     -49.829  14.039  22.069  0.00  0.00     0.003 A 
ATOM     20  C   UNL d   1     -49.739  13.221  21.986  0.00  0.00     0.005 A 
BRANCH  18  21
ATOM     21  C   UNL d   1     -49.998  15.191  22.902  0.00  0.00     0.196 C 
ATOM     22  O   UNL d   1     -50.009  15.674  22.234  0.00  0.00    -0.287 OA
ATOM     23  C   UNL d   1     -50.077  15.521  23.654  0.00  0.00     0.045 C 
ENDBRANCH  18  21
ENDBRANCH   1  15
TORSDOF 3
ENDMDL
MODEL 4
REMARK VINA RESULT:      -7.8      1.912      4.172
REMARK  3 active torsions:
REMARK  status: ('A' for Active; 'I' for Inactive)
REMARK       I    between atoms: C_6  and  N_7 
REMARK    1  A    between atoms: C_9  and  C_6 
REMARK    2  A    between atoms: N_7  and  C_13 
REMARK    3  A    between atoms: C_15  and  C_14 
ROOT
ATOM      1  C   UNL d   1     -48.064  14.944  22.547  0.00  0.00     0.279 C 
ATOM      2  N   UNL d   1     -47.286  14.930  22.809  0.00  0.00    -0.208 NA
ATOM      3  O   UNL d   1     -48.437  15.664  22.424  0.00  0.00    -0.265 OA
ENDROOT
BRANCH   2   4
ATOM      4  C   UNL d   1     -46.907  14.209  22.934  0.00  0.00     0.085 A 
ATOM      5  C   UNL d   1     -46.322  13.966  22.414  0.00  0.00     0.024 A 
ATOM      6  C   UNL d   1     -45.943  13.245  22.539  0.00  0.00     0.064 A 
ATOM      7  C   UNL d   1     -45.343  12.858  22.118  0.00  0.00     0.282 A 
ATOM      8  C   UNL d   1     -46.141  12.768  23.174  0.00  0.00     0.063 A 
ATOM      9  N   UNL d   1     -45.182  12.150  22.501  0.00  0.00    -0.169 NA
ATOM     10  O   UNL d   1     -44.964  13.120  21.437  0.00  0.00    -0.265 OA
ATOM     11  C   UNL d   1     -45.675  12.095  23.152  0.00  0.00     0.282 A 
ATOM     12  O   UNL d   1     -45.702  11.475  23.693  0.00  0.00    -0.265 OA
ATOM     13  C   UNL d   1     -46.731  13.014  23.697  0.00  0.00     0.006 A 
ATOM     14  C   UNL d   1     -47.115  13.733  23.580  0.00  0.00     0.019 A 
ENDBRANCH   2   4
BRANCH   1  15
ATOM     15  C   UNL d   1     -48.466  14.249  22.409  0.00  0.00     0.058 A 
ATOM     16  C   UNL d   1     -48.872  13.875  23.015  0.00  0.00     0.005 A 
ATOM     17  C   UNL d   1     -49.278  13.169  22.867  0.00  0.00     0.003 A 
ATOM     18  C   UNL d   1     -49.275  12.841  22.111  0.00  0.00     0.039 A 
ATOM     19  C   UNL d   1     -48.866  13.218  21.502  0.00  0.00     0.003 A 
ATOM     20  C   UNL d   1     -48.460  13.923  21.650  0.00  0.00     0.005 A 
BRANCH  18  21
ATOM     21  C   UNL d   1     -49.681  12.135  21.962  0.00  0.00     0.196 C 
ATOM     22  O   UNL d   1     -49.347  11.414  22.179  0.00  0.00    -0.287 OA
ATOM     23  C   UNL d   1     -50.421  12.156  21.597  0.00  0.00     0.045 C 
ENDBRANCH  18  21
ENDBRANCH   1  15
TORSDOF 3
ENDMDL
MODEL 5
REMARK VINA RESULT:      -6.5      8.939     10.553
REMARK  3 active torsions:
REMARK  status: ('A' for Active; 'I' for Inactive)
REMARK       I    between atoms: C_6  and  N_7 
REMARK    1  A    between atoms: C_9  and  C_6 
REMARK    2  A    between atoms: N_7  and  C_13 
REMARK    3  A    between atoms: C_15  and  C_14 
ROOT
ATOM      1  C   UNL d   1     -40.733  15.590  17.776  0.00  0.00     0.279 C 
ATOM      2  N   UNL d   1     -40.864  15.921  18.515  0.00  0.00    -0.208 NA
ATOM      3  O   UNL d   1     -41.166  15.856  17.131  0.00  0.00    -0.265 OA
ENDROOT
BRANCH   2   4
ATOM      4  C   UNL d   1     -40.432  15.657  19.167  0.00  0.00     0.085 A 
ATOM      5  C   UNL d   1     -40.776  15.131  19.691  0.00  0.00     0.024 A 
ATOM      6  C   UNL d   1     -40.344  14.867  20.342  0.00  0.00     0.064 A 
ATOM      7  C   UNL d   1     -40.538  14.346  20.957  0.00  0.00     0.282 A 
ATOM      8  C   UNL d   1     -39.577  15.123  20.471  0.00  0.00     0.063 A 
ATOM      9  N   UNL d   1     -39.887  14.289  21.454  0.00  0.00    -0.169 NA
ATOM     10  O   UNL d   1     -41.248  13.947  21.067  0.00  0.00    -0.265 OA
ATOM     11  C   UNL d   1     -39.295  14.769  21.154  0.00  0.00     0.282 A 
ATOM     12  O   UNL d   1     -38.546  14.880  21.477  0.00  0.00    -0.265 OA
ATOM     13  C   UNL d   1     -39.232  15.653  19.942  0.00  0.00     0.006 A 
ATOM     14  C   UNL d   1     -39.656  15.922  19.289  0.00  0.00     0.019 A 
ENDBRANCH   2   4
BRANCH   1  15
ATOM     15  C   UNL d   1     -40.179  15.001  17.679  0.00  0.00     0.058 A 
ATOM     16  C   UNL d   1     -40.391  14.212  17.754  0.00  0.00     0.005 A 
ATOM     17  C   UNL d   1     -39.822  13.620  17.654  0.00  0.00     0.003 A 
ATOM     18  C   UNL d   1     -39.041  13.821  17.478  0.00  0.00     0.039 A 
ATOM     19  C   UNL d   1     -38.830  14.615  17.403  0.00  0.00     0.003 A 
ATOM     20  C   UNL d   1     -39.399  15.207  17.503  0.00  0.00     0.005 A 
BRANCH  18  21
ATOM     21  C   UNL d   1     -38.472  13.229  17.377  0.00  0.00     0.196 C 
ATOM     22  O   UNL d   1     -38.081  13.151  16.656  0.00  0.00    -0.287 OA
ATOM     23  C   UNL d   1     -38.298  12.718  18.001  0.00  0.00     0.045 C 
ENDBRANCH  18  21
ENDBRANCH   1  15
TORSDOF 3
ENDMDL
