MODEL 1
REMARK VINA RESULT:      -6.7      0.000      0.000
REMARK  4 active torsions:
REMARK  status: ('A' for Active; 'I' for Inactive)
REMARK    1  A    between atoms: S_4  and  C_1 
REMARK    2  A    between atoms: N_7  and  C_3 
REMARK    3  A    between atoms: C_11  and  S_4 
REMARK    4  A    between atoms: C_8  and  C_6 
ROOT
ATOM      1  C   UNL d   1     -47.874  13.639  22.616  0.00  0.00     0.210 A 
ATOM      2  N   UNL d   1     -47.092  13.860  22.496  0.00  0.00    -0.205 NA
ATOM      3  C   UNL d   1     -47.913  12.815  22.603  0.00  0.00     0.199 A 
ATOM      4  O   UNL d   1     -47.151  12.532  22.476  0.00  0.00    -0.268 OA
ATOM      5  C   UNL d   1     -46.646  13.174  22.410  0.00  0.00     0.208 A 
ENDROOT
BRANCH   1   6
ATOM      6  S   UNL d   1     -48.459  14.210  22.721  0.00  0.00     0.230 S 
ATOM      7  O   UNL d   1     -48.811  14.573  22.074  0.00  0.00    -0.215 OA
ATOM      8  O   UNL d   1     -48.695  14.421  23.489  0.00  0.00    -0.215 OA
BRANCH   6   9
ATOM      9  C   UNL d   1     -49.043  14.779  22.835  0.00  0.00     0.090 A 
ATOM     10  C   UNL d   1     -49.498  15.028  22.199  0.00  0.00     0.011 A 
ATOM     11  C   UNL d   1     -50.088  15.601  22.304  0.00  0.00     0.001 A 
ATOM     12  C   UNL d   1     -50.216  15.921  23.055  0.00  0.00     0.000 A 
ATOM     13  C   UNL d   1     -49.757  15.671  23.698  0.00  0.00     0.001 A 
ATOM     14  C   UNL d   1     -49.170  15.100  23.586  0.00  0.00     0.011 A 
ENDBRANCH   6   9
ENDBRANCH   1   6
BRANCH   3  15
ATOM     15  N   UNL d   1     -48.592  12.357  22.701  0.00  0.00    -0.283 N 
ATOM     16  C   UNL d   1     -48.707  12.077  23.352  0.00  0.00     0.082 A 
ATOM     17  C   UNL d   1     -49.318  11.582  23.698  0.00  0.00     0.019 A 
ATOM     18  C   UNL d   1     -49.933  11.279  23.434  0.00  0.00     0.002 A 
ATOM     19  C   UNL d   1     -50.222  11.348  22.648  0.00  0.00     0.002 A 
ATOM     20  C   UNL d   1     -49.828  11.804  21.999  0.00  0.00     0.019 A 
ATOM     21  C   UNL d   1     -49.081  12.264  22.030  0.00  0.00     0.082 A 
ENDBRANCH   3  15
BRANCH   5  22
ATOM     22  C   UNL d   1     -45.868  13.393  22.291  0.00  0.00     0.141 A 
ATOM     23  O   UNL d   1     -45.319  13.989  22.420  0.00  0.00    -0.302 OA
ATOM     24  C   UNL d   1     -44.600  13.752  22.097  0.00  0.00     0.123 A 
ATOM     25  C   UNL d   1     -44.710  13.003  21.767  0.00  0.00     0.029 A 
ATOM     26  C   UNL d   1     -45.491  12.782  21.887  0.00  0.00     0.030 A 
ENDBRANCH   5  22
TORSDOF 4
ENDMDL
MODEL 2
REMARK VINA RESULT:      -6.3      1.655      1.981
REMARK  4 active torsions:
REMARK  status: ('A' for Active; 'I' for Inactive)
REMARK    1  A    between atoms: S_4  and  C_1 
REMARK    2  A    between atoms: N_7  and  C_3 
REMARK    3  A    between atoms: C_11  and  S_4 
REMARK    4  A    between atoms: C_8  and  C_6 
ROOT
ATOM      1  C   UNL d   1     -47.146  12.446  23.041  0.00  0.00     0.210 A 
ATOM      2  N   UNL d   1     -46.379  12.188  23.176  0.00  0.00    -0.205 NA
ATOM      3  C   UNL d   1     -47.646  11.790  23.063  0.00  0.00     0.199 A 
ATOM      4  O   UNL d   1     -47.180  11.127  23.211  0.00  0.00    -0.268 OA
ATOM      5  C   UNL d   1     -46.401  11.371  23.281  0.00  0.00     0.208 A 
ENDROOT
BRANCH   1   6
ATOM      6  S   UNL d   1     -47.303  13.245  22.915  0.00  0.00     0.230 S 
ATOM      7  O   UNL d   1     -47.343  13.547  22.153  0.00  0.00    -0.215 OA
ATOM      8  O   UNL d   1     -47.422  13.749  23.564  0.00  0.00    -0.215 OA
BRANCH   6   9
ATOM      9  C   UNL d   1     -47.461  14.045  22.797  0.00  0.00     0.090 A 
ATOM     10  C   UNL d   1     -46.879  14.531  22.481  0.00  0.00     0.011 A 
ATOM     11  C   UNL d   1     -47.028  15.337  22.359  0.00  0.00     0.001 A 
ATOM     12  C   UNL d   1     -47.768  15.650  22.558  0.00  0.00     0.000 A 
ATOM     13  C   UNL d   1     -48.355  15.159  22.877  0.00  0.00     0.001 A 
ATOM     14  C   UNL d   1     -48.200  14.357  22.996  0.00  0.00     0.011 A 
ENDBRANCH   6   9
ENDBRANCH   1   6
BRANCH   3  15
ATOM     15  N   UNL d   1     -48.464  11.795  22.956  0.00  0.00    -0.283 N 
ATOM     16  C   UNL d   1     -48.871  11.807  23.547  0.00  0.00     0.082 A 
ATOM     17  C   UNL d   1     -49.717  11.816  23.698  0.00  0.00     0.019 A 
ATOM     18  C   UNL d   1     -50.309  11.814  23.262  0.00  0.00     0.002 A 
ATOM     19  C   UNL d   1     -50.306  11.802  22.422  0.00  0.00     0.002 A 
ATOM     20  C   UNL d   1     -49.580  11.788  21.915  0.00  0.00     0.019 A 
ATOM     21  C   UNL d   1     -48.739  11.785  22.166  0.00  0.00     0.082 A 
ENDBRANCH   3  15
BRANCH   5  22
ATOM     22  C   UNL d   1     -45.637  11.114  23.414  0.00  0.00     0.141 A 
ATOM     23  O   UNL d   1     -44.854  11.353  23.457  0.00  0.00    -0.302 OA
ATOM     24  C   UNL d   1     -44.392  10.695  23.632  0.00  0.00     0.123 A 
ATOM     25  C   UNL d   1     -44.898  10.046  23.698  0.00  0.00     0.029 A 
ATOM     26  C   UNL d   1     -45.665  10.304  23.563  0.00  0.00     0.030 A 
ENDBRANCH   5  22
TORSDOF 4
ENDMDL
MODEL 3
REMARK VINA RESULT:      -6.0      0.979      2.749
REMARK  4 active torsions:
REMARK  status: ('A' for Active; 'I' for Inactive)
REMARK    1  A    between atoms: S_4  and  C_1 
REMARK    2  A    between atoms: N_7  and  C_3 
REMARK    3  A    between atoms: C_11  and  S_4 
REMARK    4  A    between atoms: C_8  and  C_6 
ROOT
ATOM      1  C   UNL d   1     -47.898  13.138  22.741  0.00  0.00     0.210 A 
ATOM      2  N   UNL d   1     -47.174  12.751  22.709  0.00  0.00    -0.205 NA
ATOM      3  C   UNL d   1     -47.757  13.950  22.711  0.00  0.00     0.199 A 
ATOM      4  O   UNL d   1     -46.942  14.060  22.660  0.00  0.00    -0.268 OA
ATOM      5  C   UNL d   1     -46.583  13.323  22.659  0.00  0.00     0.208 A 
ENDROOT
BRANCH   1   6
ATOM      6  S   UNL d   1     -48.600  12.709  22.794  0.00  0.00     0.230 S 
ATOM      7  O   UNL d   1     -49.008  12.491  22.115  0.00  0.00    -0.215 OA
ATOM      8  O   UNL d   1     -48.897  12.495  23.538  0.00  0.00    -0.215 OA
BRANCH   6   9
ATOM      9  C   UNL d   1     -49.300  12.281  22.854  0.00  0.00     0.090 A 
ATOM     10  C   UNL d   1     -49.515  11.954  23.576  0.00  0.00     0.011 A 
ATOM     11  C   UNL d   1     -50.219  11.521  23.648  0.00  0.00     0.001 A 
ATOM     12  C   UNL d   1     -50.704  11.420  22.986  0.00  0.00     0.000 A 
ATOM     13  C   UNL d   1     -50.487  11.749  22.257  0.00  0.00     0.001 A 
ATOM     14  C   UNL d   1     -49.784  12.179  22.193  0.00  0.00     0.011 A 
ENDBRANCH   6   9
ENDBRANCH   1   6
BRANCH   3  15
ATOM     15  N   UNL d   1     -48.327  14.546  22.728  0.00  0.00    -0.283 N 
ATOM     16  C   UNL d   1     -48.549  14.767  23.374  0.00  0.00     0.082 A 
ATOM     17  C   UNL d   1     -49.113  15.353  23.651  0.00  0.00     0.019 A 
ATOM     18  C   UNL d   1     -49.561  15.825  23.310  0.00  0.00     0.002 A 
ATOM     19  C   UNL d   1     -49.640  15.921  22.478  0.00  0.00     0.002 A 
ATOM     20  C   UNL d   1     -49.192  15.462  21.868  0.00  0.00     0.019 A 
ATOM     21  C   UNL d   1     -48.592  14.833  21.989  0.00  0.00     0.082 A 
ENDBRANCH   3  15
BRANCH   5  22
ATOM     22  C   UNL d   1     -45.863  12.939  22.627  0.00  0.00     0.141 A 
ATOM     23  O   UNL d   1     -45.424  12.324  22.946  0.00  0.00    -0.302 OA
ATOM     24  C   UNL d   1     -44.689  12.312  22.575  0.00  0.00     0.123 A 
ATOM     25  C   UNL d   1     -44.678  12.926  22.024  0.00  0.00     0.029 A 
ATOM     26  C   UNL d   1     -45.402  13.312  22.056  0.00  0.00     0.030 A 
ENDBRANCH   5  22
TORSDOF 4
ENDMDL
MODEL 4
REMARK VINA RESULT:      -4.7      7.412      9.625
REMARK  4 active torsions:
REMARK  status: ('A' for Active; 'I' for Inactive)
REMARK    1  A    between atoms: S_4  and  C_1 
REMARK    2  A    between atoms: N_7  and  C_3 
REMARK    3  A    between atoms: C_11  and  S_4 
REMARK    4  A    between atoms: C_8  and  C_6 
ROOT
ATOM      1  C   UNL d   1     -39.267  14.471  19.711  0.00  0.00     0.210 A 
ATOM      2  N   UNL d   1     -39.180  14.428  18.896  0.00  0.00    -0.205 NA
ATOM      3  C   UNL d   1     -38.548  14.262  20.058  0.00  0.00     0.199 A 
ATOM      4  O   UNL d   1     -38.020  14.089  19.451  0.00  0.00    -0.268 OA
ATOM      5  C   UNL d   1     -38.407  14.191  18.737  0.00  0.00     0.208 A 
ENDROOT
BRANCH   1   6
ATOM      6  S   UNL d   1     -39.987  14.696  20.044  0.00  0.00     0.230 S 
ATOM      7  O   UNL d   1     -40.166  15.489  20.156  0.00  0.00    -0.215 OA
ATOM      8  O   UNL d   1     -40.536  14.115  20.268  0.00  0.00    -0.215 OA
BRANCH   6   9
ATOM      9  C   UNL d   1     -40.708  14.912  20.377  0.00  0.00     0.090 A 
ATOM     10  C   UNL d   1     -41.208  14.333  20.674  0.00  0.00     0.011 A 
ATOM     11  C   UNL d   1     -41.937  14.540  21.011  0.00  0.00     0.001 A 
ATOM     12  C   UNL d   1     -42.157  15.337  21.047  0.00  0.00     0.000 A 
ATOM     13  C   UNL d   1     -41.652  15.922  20.747  0.00  0.00     0.001 A 
ATOM     14  C   UNL d   1     -40.928  15.708  20.412  0.00  0.00     0.011 A 
ENDBRANCH   6   9
ENDBRANCH   1   6
BRANCH   3  15
ATOM     15  N   UNL d   1     -38.387  14.230  20.867  0.00  0.00    -0.283 N 
ATOM     16  C   UNL d   1     -38.208  14.846  21.189  0.00  0.00     0.082 A 
ATOM     17  C   UNL d   1     -38.001  15.070  21.992  0.00  0.00     0.019 A 
ATOM     18  C   UNL d   1     -37.940  14.697  22.622  0.00  0.00     0.002 A 
ATOM     19  C   UNL d   1     -38.070  13.873  22.724  0.00  0.00     0.002 A 
ATOM     20  C   UNL d   1     -38.305  13.311  22.082  0.00  0.00     0.019 A 
ATOM     21  C   UNL d   1     -38.449  13.481  21.233  0.00  0.00     0.082 A 
ENDBRANCH   3  15
BRANCH   5  22
ATOM     22  C   UNL d   1     -38.320  14.148  17.926  0.00  0.00     0.141 A 
ATOM     23  O   UNL d   1     -38.382  14.573  17.227  0.00  0.00    -0.302 OA
ATOM     24  C   UNL d   1     -38.178  14.077  16.603  0.00  0.00     0.123 A 
ATOM     25  C   UNL d   1     -37.989  13.339  16.923  0.00  0.00     0.029 A 
ATOM     26  C   UNL d   1     -38.077  13.383  17.738  0.00  0.00     0.030 A 
ENDBRANCH   5  22
TORSDOF 4
ENDMDL
MODEL 5
REMARK VINA RESULT:      -4.7      1.871      3.359
REMARK  4 active torsions:
REMARK  status: ('A' for Active; 'I' for Inactive)
REMARK    1  A    between atoms: S_4  and  C_1 
REMARK    2  A    between atoms: N_7  and  C_3 
REMARK    3  A    between atoms: C_11  and  S_4 
REMARK    4  A    between atoms: C_8  and  C_6 
ROOT
ATOM      1  C   UNL d   1     -46.889  11.918  23.117  0.00  0.00     0.210 A 
ATOM      2  N   UNL d   1     -46.458  11.236  23.266  0.00  0.00    -0.205 NA
ATOM      3  C   UNL d   1     -46.361  12.549  23.063  0.00  0.00     0.199 A 
ATOM      4  O   UNL d   1     -45.603  12.251  23.181  0.00  0.00    -0.268 OA
ATOM      5  C   UNL d   1     -45.662  11.443  23.306  0.00  0.00     0.208 A 
ENDROOT
BRANCH   1   6
ATOM      6  S   UNL d   1     -47.710  11.887  23.046  0.00  0.00     0.230 S 
ATOM      7  O   UNL d   1     -48.075  12.078  22.336  0.00  0.00    -0.215 OA
ATOM      8  O   UNL d   1     -48.172  11.662  23.698  0.00  0.00    -0.215 OA
BRANCH   6   9
ATOM      9  C   UNL d   1     -48.530  11.855  22.984  0.00  0.00     0.090 A 
ATOM     10  C   UNL d   1     -48.876  11.662  22.264  0.00  0.00     0.011 A 
ATOM     11  C   UNL d   1     -49.701  11.627  22.191  0.00  0.00     0.001 A 
ATOM     12  C   UNL d   1     -50.176  11.786  22.850  0.00  0.00     0.000 A 
ATOM     13  C   UNL d   1     -49.827  11.980  23.576  0.00  0.00     0.001 A 
ATOM     14  C   UNL d   1     -49.004  12.014  23.642  0.00  0.00     0.011 A 
ENDBRANCH   6   9
ENDBRANCH   1   6
BRANCH   3  15
ATOM     15  N   UNL d   1     -46.556  13.338  22.918  0.00  0.00    -0.283 N 
ATOM     16  C   UNL d   1     -46.465  13.580  22.248  0.00  0.00     0.082 A 
ATOM     17  C   UNL d   1     -46.590  14.333  21.855  0.00  0.00     0.019 A 
ATOM     18  C   UNL d   1     -46.835  14.988  22.082  0.00  0.00     0.002 A 
ATOM     19  C   UNL d   1     -47.080  15.182  22.863  0.00  0.00     0.002 A 
ATOM     20  C   UNL d   1     -47.082  14.623  23.550  0.00  0.00     0.019 A 
ATOM     21  C   UNL d   1     -46.841  13.779  23.568  0.00  0.00     0.082 A 
ENDBRANCH   3  15
BRANCH   5  22
ATOM     22  C   UNL d   1     -45.232  10.764  23.455  0.00  0.00     0.141 A 
ATOM     23  O   UNL d   1     -45.292   9.963  23.616  0.00  0.00    -0.302 OA
ATOM     24  C   UNL d   1     -44.532   9.658  23.698  0.00  0.00     0.123 A 
ATOM     25  C   UNL d   1     -44.001  10.280  23.587  0.00  0.00     0.029 A 
ATOM     26  C   UNL d   1     -44.433  10.962  23.437  0.00  0.00     0.030 A 
ENDBRANCH   5  22
TORSDOF 4
ENDMDL
MODEL 6
REMARK VINA RESULT:      -4.6      8.707      9.899
REMARK  4 active torsions:
REMARK  status: ('A' for Active; 'I' for Inactive)
REMARK    1  A    between atoms: S_4  and  C_1 
REMARK    2  A    between atoms: N_7  and  C_3 
REMARK    3  A    between atoms: C_11  and  S_4 
REMARK    4  A    between atoms: C_8  and  C_6 
ROOT
ATOM      1  C   UNL d   1     -39.948  14.996  18.662  0.00  0.00     0.210 A 
ATOM      2  N   UNL d   1     -40.125  15.321  19.395  0.00  0.00    -0.205 NA
ATOM      3  C   UNL d   1     -39.338  14.450  18.763  0.00  0.00     0.199 A 
ATOM      4  O   UNL d   1     -39.141  14.442  19.562  0.00  0.00    -0.268 OA
ATOM      5  C   UNL d   1     -39.624  14.977  19.951  0.00  0.00     0.208 A 
ENDROOT
BRANCH   1   6
ATOM      6  S   UNL d   1     -40.361  15.233  17.989  0.00  0.00     0.230 S 
ATOM      7  O   UNL d   1     -40.155  15.922  17.593  0.00  0.00    -0.215 OA
ATOM      8  O   UNL d   1     -40.991  14.770  17.708  0.00  0.00    -0.215 OA
BRANCH   6   9
ATOM      9  C   UNL d   1     -40.778  15.462  17.317  0.00  0.00     0.090 A 
ATOM     10  C   UNL d   1     -41.599  15.480  17.335  0.00  0.00     0.011 A 
ATOM     11  C   UNL d   1     -42.028  15.710  16.664  0.00  0.00     0.001 A 
ATOM     12  C   UNL d   1     -41.623  15.921  15.974  0.00  0.00     0.000 A 
ATOM     13  C   UNL d   1     -40.795  15.902  15.956  0.00  0.00     0.001 A 
ATOM     14  C   UNL d   1     -40.374  15.673  16.628  0.00  0.00     0.011 A 
ENDBRANCH   6   9
ENDBRANCH   1   6
BRANCH   3  15
ATOM     15  N   UNL d   1     -38.988  13.995  18.171  0.00  0.00    -0.283 N 
ATOM     16  C   UNL d   1     -39.223  13.321  18.094  0.00  0.00     0.082 A 
ATOM     17  C   UNL d   1     -39.027  12.668  17.572  0.00  0.00     0.019 A 
ATOM     18  C   UNL d   1     -38.546  12.587  17.022  0.00  0.00     0.002 A 
ATOM     19  C   UNL d   1     -38.012  13.171  16.739  0.00  0.00     0.002 A 
ATOM     20  C   UNL d   1     -37.941  13.993  17.061  0.00  0.00     0.019 A 
ATOM     21  C   UNL d   1     -38.391  14.364  17.717  0.00  0.00     0.082 A 
ENDBRANCH   3  15
BRANCH   5  22
ATOM     22  C   UNL d   1     -39.799  15.300  20.681  0.00  0.00     0.141 A 
ATOM     23  O   UNL d   1     -40.405  15.449  21.213  0.00  0.00    -0.302 OA
ATOM     24  C   UNL d   1     -40.086  15.827  21.870  0.00  0.00     0.123 A 
ATOM     25  C   UNL d   1     -39.275  15.910  21.739  0.00  0.00     0.029 A 
ATOM     26  C   UNL d   1     -39.099  15.586  21.006  0.00  0.00     0.030 A 
ENDBRANCH   5  22
TORSDOF 4
ENDMDL
MODEL 7
REMARK VINA RESULT:      -4.2      5.638      8.752
REMARK  4 active torsions:
REMARK  status: ('A' for Active; 'I' for Inactive)
REMARK    1  A    between atoms: S_4  and  C_1 
REMARK    2  A    between atoms: N_7  and  C_3 
REMARK    3  A    between atoms: C_11  and  S_4 
REMARK    4  A    between atoms: C_8  and  C_6 
ROOT
ATOM      1  C   UNL d   1     -40.799  14.137  20.801  0.00  0.00     0.210 A 
ATOM      2  N   UNL d   1     -41.349  13.707  21.233  0.00  0.00    -0.205 NA
ATOM      3  C   UNL d   1     -41.040  14.142  20.012  0.00  0.00     0.199 A 
ATOM      4  O   UNL d   1     -41.741  13.713  19.963  0.00  0.00    -0.268 OA
ATOM      5  C   UNL d   1     -41.931  13.445  20.713  0.00  0.00     0.208 A 
ENDROOT
BRANCH   1   6
ATOM      6  S   UNL d   1     -40.145  14.474  21.172  0.00  0.00     0.230 S 
ATOM      7  O   UNL d   1     -39.443  14.054  21.241  0.00  0.00    -0.215 OA
ATOM      8  O   UNL d   1     -40.196  15.243  21.478  0.00  0.00    -0.215 OA
BRANCH   6   9
ATOM      9  C   UNL d   1     -39.496  14.817  21.544  0.00  0.00     0.090 A 
ATOM     10  C   UNL d   1     -39.564  15.567  21.871  0.00  0.00     0.011 A 
ATOM     11  C   UNL d   1     -38.916  15.921  22.248  0.00  0.00     0.001 A 
ATOM     12  C   UNL d   1     -38.198  15.513  22.292  0.00  0.00     0.000 A 
ATOM     13  C   UNL d   1     -38.129  14.756  21.962  0.00  0.00     0.001 A 
ATOM     14  C   UNL d   1     -38.778  14.409  21.588  0.00  0.00     0.011 A 
ENDBRANCH   6   9
ENDBRANCH   1   6
BRANCH   3  15
ATOM     15  N   UNL d   1     -40.651  14.510  19.384  0.00  0.00    -0.283 N 
ATOM     16  C   UNL d   1     -40.181  14.114  19.013  0.00  0.00     0.082 A 
ATOM     17  C   UNL d   1     -39.667  14.259  18.341  0.00  0.00     0.019 A 
ATOM     18  C   UNL d   1     -39.538  14.847  17.920  0.00  0.00     0.002 A 
ATOM     19  C   UNL d   1     -39.899  15.602  17.998  0.00  0.00     0.002 A 
ATOM     20  C   UNL d   1     -40.503  15.817  18.610  0.00  0.00     0.019 A 
ATOM     21  C   UNL d   1     -40.843  15.311  19.242  0.00  0.00     0.082 A 
ENDBRANCH   3  15
BRANCH   5  22
ATOM     22  C   UNL d   1     -42.478  13.017  21.143  0.00  0.00     0.141 A 
ATOM     23  O   UNL d   1     -42.567  12.410  21.688  0.00  0.00    -0.302 OA
ATOM     24  C   UNL d   1     -43.370  12.319  21.845  0.00  0.00     0.123 A 
ATOM     25  C   UNL d   1     -43.777  12.876  21.392  0.00  0.00     0.029 A 
ATOM     26  C   UNL d   1     -43.227  13.306  20.959  0.00  0.00     0.030 A 
ENDBRANCH   5  22
TORSDOF 4
ENDMDL
MODEL 8
REMARK VINA RESULT:      -4.0      9.005     10.399
REMARK  4 active torsions:
REMARK  status: ('A' for Active; 'I' for Inactive)
REMARK    1  A    between atoms: S_4  and  C_1 
REMARK    2  A    between atoms: N_7  and  C_3 
REMARK    3  A    between atoms: C_11  and  S_4 
REMARK    4  A    between atoms: C_8  and  C_6 
ROOT
ATOM      1  C   UNL d   1     -39.988  14.663  18.038  0.00  0.00     0.210 A 
ATOM      2  N   UNL d   1     -40.547  14.828  17.461  0.00  0.00    -0.205 NA
ATOM      3  C   UNL d   1     -40.067  15.221  18.641  0.00  0.00     0.199 A 
ATOM      4  O   UNL d   1     -40.679  15.730  18.430  0.00  0.00    -0.268 OA
ATOM      5  C   UNL d   1     -40.975  15.489  17.705  0.00  0.00     0.208 A 
ENDROOT
BRANCH   1   6
ATOM      6  S   UNL d   1     -39.471  14.026  17.951  0.00  0.00     0.230 S 
ATOM      7  O   UNL d   1     -38.691  14.150  17.727  0.00  0.00    -0.215 OA
ATOM      8  O   UNL d   1     -39.741  13.254  18.091  0.00  0.00    -0.215 OA
BRANCH   6   9
ATOM      9  C   UNL d   1     -38.962  13.386  17.866  0.00  0.00     0.090 A 
ATOM     10  C   UNL d   1     -38.964  12.787  18.428  0.00  0.00     0.011 A 
ATOM     11  C   UNL d   1     -38.454  12.138  18.351  0.00  0.00     0.001 A 
ATOM     12  C   UNL d   1     -37.942  12.096  17.703  0.00  0.00     0.000 A 
ATOM     13  C   UNL d   1     -37.940  12.700  17.135  0.00  0.00     0.001 A 
ATOM     14  C   UNL d   1     -38.450  13.344  17.218  0.00  0.00     0.011 A 
ENDBRANCH   6   9
ENDBRANCH   1   6
BRANCH   3  15
ATOM     15  N   UNL d   1     -39.616  15.263  19.330  0.00  0.00    -0.283 N 
ATOM     16  C   UNL d   1     -39.003  15.634  19.298  0.00  0.00     0.082 A 
ATOM     17  C   UNL d   1     -38.378  15.819  19.858  0.00  0.00     0.019 A 
ATOM     18  C   UNL d   1     -38.268  15.655  20.566  0.00  0.00     0.002 A 
ATOM     19  C   UNL d   1     -38.778  15.198  21.054  0.00  0.00     0.002 A 
ATOM     20  C   UNL d   1     -39.542  14.834  20.793  0.00  0.00     0.019 A 
ATOM     21  C   UNL d   1     -39.920  14.868  20.001  0.00  0.00     0.082 A 
ENDBRANCH   3  15
BRANCH   5  22
ATOM     22  C   UNL d   1     -41.532  15.654  17.130  0.00  0.00     0.141 A 
ATOM     23  O   UNL d   1     -42.333  15.757  16.993  0.00  0.00    -0.302 OA
ATOM     24  C   UNL d   1     -42.440  15.922  16.193  0.00  0.00     0.123 A 
ATOM     25  C   UNL d   1     -41.695  15.919  15.837  0.00  0.00     0.029 A 
ATOM     26  C   UNL d   1     -41.135  15.754  16.415  0.00  0.00     0.030 A 
ENDBRANCH   5  22
TORSDOF 4
ENDMDL
