MODEL 1
REMARK VINA RESULT:      45.1      0.000      0.000
REMARK  3 active torsions:
REMARK  status: ('A' for Active; 'I' for Inactive)
REMARK    1  A    between atoms: C_11  and  C_3 
REMARK    2  A    between atoms: O_13  and  C_10 
REMARK    3  A    between atoms: C_21  and  O_13 
ROOT
ATOM      1  C   UNL d   1      14.174  13.645  -2.436  0.00  0.00     0.203 A 
ATOM      2  C   UNL d   1      13.854  13.189  -3.043  0.00  0.00     0.101 A 
ATOM      3  C   UNL d   1      14.299  14.450  -2.551  0.00  0.00     0.064 A 
ATOM      4  C   UNL d   1      13.659  13.539  -3.764  0.00  0.00     0.108 A 
ATOM      5  C   UNL d   1      13.728  12.384  -2.928  0.00  0.00     0.203 A 
ATOM      6  C   UNL d   1      14.105  14.800  -3.273  0.00  0.00     0.126 A 
ATOM      7  O   UNL d   1      13.785  14.345  -3.879  0.00  0.00    -0.305 OA
ATOM      8  C   UNL d   1      13.339  13.084  -4.371  0.00  0.00     0.050 A 
ATOM      9  C   UNL d   1      13.407  11.924  -3.536  0.00  0.00     0.067 A 
ATOM     10  C   UNL d   1      13.212  12.274  -4.258  0.00  0.00     0.105 A 
ATOM     11  O   UNL d   1      14.368  13.295  -1.716  0.00  0.00    -0.286 OA
ATOM     12  O   UNL d   1      13.923  12.034  -2.207  0.00  0.00    -0.286 OA
ENDROOT
BRANCH   3  13
ATOM     13  C   UNL d   1      14.620  14.906  -1.944  0.00  0.00     0.005 A 
ATOM     14  C   UNL d   1      14.881  14.543  -1.240  0.00  0.00     0.003 A 
ATOM     15  C   UNL d   1      15.201  14.999  -0.634  0.00  0.00     0.042 A 
ATOM     16  C   UNL d   1      15.265  15.821  -0.720  0.00  0.00     0.196 A 
ATOM     17  C   UNL d   1      15.004  16.182  -1.425  0.00  0.00     0.042 A 
ATOM     18  O   UNL d   1      15.586  16.275  -0.113  0.00  0.00    -0.287 OA
ATOM     19  C   UNL d   1      14.684  15.728  -2.031  0.00  0.00     0.003 A 
ENDBRANCH   3  13
BRANCH  10  20
ATOM     20  O   UNL d   1      12.889  11.812  -4.867  0.00  0.00    -0.307 OA
BRANCH  20  21
ATOM     21  C   UNL d   1      13.239  11.794  -5.612  0.00  0.00     0.100 C 
ATOM     22  C   UNL d   1      12.770  11.783  -6.291  0.00  0.00     0.027 C 
ATOM     23  C   UNL d   1      14.061  11.788  -5.683  0.00  0.00     0.027 C 
ENDBRANCH  20  21
ENDBRANCH  10  20
TORSDOF 3
ENDMDL
