MODEL 1
REMARK VINA RESULT:     258.3      0.000      0.000
REMARK  7 active torsions:
REMARK  status: ('A' for Active; 'I' for Inactive)
REMARK    1  A    between atoms: N_2  and  S_1 
REMARK    2  A    between atoms: C_6  and  S_1 
REMARK    3  A    between atoms: C_3  and  N_2 
REMARK       I    between atoms: C_7  and  N_10 
REMARK    4  A    between atoms: C_17  and  C_7 
REMARK    5  A    between atoms: N_10  and  C_18 
REMARK    6  A    between atoms: C_19  and  C_17 
REMARK    7  A    between atoms: O_27  and  C_20 
ROOT
ATOM      1  C   UNL d   1     -55.611-101.912 -41.712  0.00  0.00     0.106 A 
ATOM      2  C   UNL d   1     -55.462-102.358 -41.025  0.00  0.00     0.015 A 
ATOM      3  C   UNL d   1     -55.673-101.098 -41.684  0.00  0.00     0.015 A 
ATOM      4  C   UNL d   1     -55.438-101.133 -40.268  0.00  0.00     0.085 A 
ATOM      5  C   UNL d   1     -55.378-101.954 -40.316  0.00  0.00     0.020 A 
ATOM      6  C   UNL d   1     -55.585-100.710 -40.957  0.00  0.00     0.020 A 
ENDROOT
BRANCH   1   7
ATOM      7  S   UNL d   1     -55.700-102.311 -42.452  0.00  0.00     0.300 S 
ATOM      8  O   UNL d   1     -55.093-101.809 -42.771  0.00  0.00    -0.198 OA
ATOM      9  O   UNL d   1     -56.292-102.790 -42.116  0.00  0.00    -0.198 OA
BRANCH   7  10
ATOM     10  N   UNL d   1     -55.771-102.688 -43.187  0.00  0.00     0.034 NA
BRANCH  10  11
ATOM     11  C   UNL d   1     -56.070-102.224 -43.846  0.00  0.00     0.760 A 
ATOM     12  N   UNL d   1     -55.553-102.033 -44.464  0.00  0.00    -0.059 NA
ATOM     13  C   UNL d   1     -55.838-101.585 -45.102  0.00  0.00     0.101 A 
ATOM     14  C   UNL d   1     -55.320-101.374 -45.756  0.00  0.00     0.021 C 
ATOM     15  C   UNL d   1     -56.618-101.341 -45.113  0.00  0.00     0.040 A 
ATOM     16  C   UNL d   1     -57.100-101.543 -44.493  0.00  0.00     0.101 A 
ATOM     17  N   UNL d   1     -56.835-101.984 -43.858  0.00  0.00    -0.059 NA
ATOM     18  C   UNL d   1     -57.903-101.279 -44.527  0.00  0.00     0.021 C 
ENDBRANCH  10  11
ENDBRANCH   7  10
ENDBRANCH   1   7
BRANCH   4  19
ATOM     19  N   UNL d   1     -55.354-100.721 -39.555  0.00  0.00    -0.208 NA
ATOM     20  C   UNL d   1     -56.012-100.339 -39.209  0.00  0.00     0.279 C 
ATOM     21  O   UNL d   1     -56.769-100.371 -39.586  0.00  0.00    -0.265 OA
BRANCH  20  22
ATOM     22  C   UNL d   1     -55.919 -99.932 -38.501  0.00  0.00     0.062 C 
BRANCH  22  23
ATOM     23  C   UNL d   1     -56.342-100.182 -37.795  0.00  0.00     0.005 A 
ATOM     24  C   UNL d   1     -56.233-100.947 -37.504  0.00  0.00     0.002 A 
ATOM     25  C   UNL d   1     -56.638-101.184 -36.830  0.00  0.00     0.024 A 
ATOM     26  C   UNL d   1     -57.152-100.674 -36.437  0.00  0.00     0.094 A 
ATOM     27  C   UNL d   1     -57.265 -99.924 -36.715  0.00  0.00     0.024 A 
ATOM     28  C   UNL d   1     -56.866 -99.673 -37.388  0.00  0.00     0.002 A 
BRANCH  26  29
ATOM     29  O   UNL d   1     -57.552-100.957 -35.743  0.00  0.00    -0.328 OA
ATOM     30  C   UNL d   1     -58.376-100.975 -35.684  0.00  0.00     0.181 C 
ENDBRANCH  26  29
ENDBRANCH  22  23
ENDBRANCH  20  22
ENDBRANCH   4  19
TORSDOF 7
ENDMDL
