MODEL 1
REMARK VINA RESULT:      -5.5      0.000      0.000
REMARK  3 active torsions:
REMARK  status: ('A' for Active; 'I' for Inactive)
REMARK       I    between atoms: N_3  and  C_1 
REMARK    1  A    between atoms: C_6  and  C_1 
REMARK    2  A    between atoms: N_2  and  C_4 
REMARK    3  A    between atoms: C_9  and  N_3 
ROOT
ATOM      1  C   UNL d   1      56.065   0.096  32.812  0.00  0.00     0.064 A 
ATOM      2  C   UNL d   1      56.300  -0.692  32.693  0.00  0.00     0.019 A 
ATOM      3  C   UNL d   1      56.248   0.682  32.250  0.00  0.00     0.019 A 
ATOM      4  C   UNL d   1      56.900  -0.293  31.446  0.00  0.00     0.085 A 
ATOM      5  C   UNL d   1      56.717  -0.879  32.007  0.00  0.00     0.021 A 
ATOM      6  C   UNL d   1      56.667   0.483  31.566  0.00  0.00     0.021 A 
ENDROOT
BRANCH   4   7
ATOM      7  N   UNL d   1      57.323  -0.498  30.757  0.00  0.00    -0.208 NA
ATOM      8  C   UNL d   1      58.066  -0.168  30.612  0.00  0.00     0.279 C 
ATOM      9  O   UNL d   1      58.395   0.371  31.154  0.00  0.00    -0.265 OA
BRANCH   8  10
ATOM     10  C   UNL d   1      58.485  -0.373  29.926  0.00  0.00     0.058 A 
ATOM     11  C   UNL d   1      58.819   0.229  29.458  0.00  0.00     0.005 A 
ATOM     12  C   UNL d   1      59.234   0.022  28.779  0.00  0.00     0.000 A 
ATOM     13  C   UNL d   1      59.316  -0.783  28.564  0.00  0.00     0.000 A 
ATOM     14  C   UNL d   1      58.981  -1.363  29.034  0.00  0.00     0.000 A 
ATOM     15  C   UNL d   1      58.565  -1.166  29.715  0.00  0.00     0.005 A 
ENDBRANCH   8  10
ENDBRANCH   4   7
BRANCH   1  16
ATOM     16  N   UNL d   1      55.641   0.294  33.506  0.00  0.00    -0.304 N 
ATOM     17  C   UNL d   1      56.040   0.377  34.217  0.00  0.00     0.080 A 
ATOM     18  C   UNL d   1      55.615   0.575  34.911  0.00  0.00     0.019 A 
ATOM     19  C   UNL d   1      54.800   0.682  34.861  0.00  0.00     0.003 A 
ATOM     20  C   UNL d   1      54.408   0.597  34.147  0.00  0.00     0.019 A 
ATOM     21  C   UNL d   1      54.823   0.404  33.468  0.00  0.00     0.080 A 
ENDBRANCH   1  16
TORSDOF 3
ENDMDL
MODEL 2
REMARK VINA RESULT:      -3.2      9.845     10.609
REMARK  3 active torsions:
REMARK  status: ('A' for Active; 'I' for Inactive)
REMARK       I    between atoms: N_3  and  C_1 
REMARK    1  A    between atoms: C_6  and  C_1 
REMARK    2  A    between atoms: N_2  and  C_4 
REMARK    3  A    between atoms: C_9  and  N_3 
ROOT
ATOM      1  C   UNL d   1      58.265  -9.816  31.462  0.00  0.00     0.064 A 
ATOM      2  C   UNL d   1      57.822  -9.817  32.165  0.00  0.00     0.019 A 
ATOM      3  C   UNL d   1      59.096  -9.815  31.485  0.00  0.00     0.019 A 
ATOM      4  C   UNL d   1      59.058  -9.817  32.906  0.00  0.00     0.085 A 
ATOM      5  C   UNL d   1      58.226  -9.818  32.883  0.00  0.00     0.021 A 
ATOM      6  C   UNL d   1      59.491  -9.815  32.211  0.00  0.00     0.021 A 
ENDROOT
BRANCH   4   7
ATOM      7  N   UNL d   1      59.452  -9.817  33.641  0.00  0.00    -0.208 NA
ATOM      8  C   UNL d   1      59.501  -9.123  34.086  0.00  0.00     0.279 C 
ATOM      9  O   UNL d   1      59.157  -8.421  33.803  0.00  0.00    -0.265 OA
BRANCH   8  10
ATOM     10  C   UNL d   1      59.894  -9.126  34.817  0.00  0.00     0.058 A 
ATOM     11  C   UNL d   1      60.677  -8.848  34.859  0.00  0.00     0.005 A 
ATOM     12  C   UNL d   1      61.064  -8.852  35.585  0.00  0.00     0.000 A 
ATOM     13  C   UNL d   1      60.671  -9.132  36.269  0.00  0.00     0.000 A 
ATOM     14  C   UNL d   1      59.901  -9.402  36.212  0.00  0.00     0.000 A 
ATOM     15  C   UNL d   1      59.507  -9.402  35.490  0.00  0.00     0.005 A 
ENDBRANCH   8  10
ENDBRANCH   4   7
BRANCH   1  16
ATOM     16  N   UNL d   1      57.861  -9.815  30.728  0.00  0.00    -0.304 N 
ATOM     17  C   UNL d   1      57.042  -9.816  30.714  0.00  0.00     0.080 A 
ATOM     18  C   UNL d   1      56.639  -9.816  29.979  0.00  0.00     0.019 A 
ATOM     19  C   UNL d   1      57.081  -9.815  29.284  0.00  0.00     0.003 A 
ATOM     20  C   UNL d   1      57.900  -9.813  29.306  0.00  0.00     0.019 A 
ATOM     21  C   UNL d   1      58.295  -9.814  30.024  0.00  0.00     0.080 A 
ENDBRANCH   1  16
TORSDOF 3
ENDMDL
