MODEL 1
REMARK VINA RESULT:      43.0      0.000      0.000
REMARK  7 active torsions:
REMARK  status: ('A' for Active; 'I' for Inactive)
REMARK    1  A    between atoms: C_6  and  C_1 
REMARK    2  A    between atoms: O_8  and  C_6 
REMARK    3  A    between atoms: C_13  and  O_8 
REMARK    4  A    between atoms: C_9  and  C_13 
REMARK    5  A    between atoms: C_15  and  C_9 
REMARK    6  A    between atoms: C_19  and  C_11 
REMARK    7  A    between atoms: C_16  and  C_19 
ROOT
ATOM      1  C   UNL d   1      13.711  12.424  -2.912  0.00  0.00     0.127 A 
ATOM      2  C   UNL d   1      14.468  12.777  -2.716  0.00  0.00     0.305 A 
ATOM      3  O   UNL d   1      14.740  12.791  -1.950  0.00  0.00    -0.273 OA
ATOM      4  C   UNL d   1      13.279  12.109  -2.328  0.00  0.00     0.013 A 
ATOM      5  C   UNL d   1      14.267  12.455  -1.361  0.00  0.00     0.103 A 
ATOM      6  C   UNL d   1      13.540  12.115  -1.549  0.00  0.00     0.023 A 
ATOM      7  O   UNL d   1      14.985  13.136  -3.310  0.00  0.00    -0.259 OA
ATOM      8  C   UNL d   1      14.539  12.468  -0.590  0.00  0.00     0.023 A 
ATOM      9  C   UNL d   1      13.078  11.786  -0.968  0.00  0.00     0.002 A 
ATOM     10  C   UNL d   1      13.313  11.783  -0.211  0.00  0.00     0.000 A 
ATOM     11  C   UNL d   1      14.069  12.135  -0.016  0.00  0.00     0.002 A 
ENDROOT
BRANCH   1  12
ATOM     12  C   UNL d   1      13.405  12.394  -3.687  0.00  0.00     0.305 C 
ATOM     13  O   UNL d   1      12.883  11.779  -3.907  0.00  0.00    -0.259 OA
BRANCH  12  14
ATOM     14  O   UNL d   1      13.622  12.992  -4.264  0.00  0.00    -0.268 OA
BRANCH  14  15
ATOM     15  C   UNL d   1      13.052  13.533  -4.454  0.00  0.00     0.168 C 
BRANCH  15  16
ATOM     16  C   UNL d   1      13.194  14.048  -5.082  0.00  0.00     0.220 C 
ATOM     17  O   UNL d   1      12.991  13.825  -5.847  0.00  0.00    -0.284 OA
BRANCH  16  18
ATOM     18  C   UNL d   1      13.541  14.799  -4.961  0.00  0.00     0.041 A 
ATOM     19  C   UNL d   1      13.587  15.107  -4.209  0.00  0.00     0.003 A 
ATOM     20  C   UNL d   1      13.931  15.849  -4.095  0.00  0.00     0.000 A 
ATOM     21  C   UNL d   1      14.236  16.290  -4.757  0.00  0.00     0.000 A 
ATOM     22  C   UNL d   1      14.180  15.959  -5.511  0.00  0.00     0.000 A 
ATOM     23  C   UNL d   1      13.831  15.211  -5.610  0.00  0.00     0.003 A 
ENDBRANCH  16  18
ENDBRANCH  15  16
ENDBRANCH  14  15
ENDBRANCH  12  14
ENDBRANCH   1  12
BRANCH   8  24
ATOM     24  C   UNL d   1      15.263  12.801  -0.376  0.00  0.00     0.002 C 
BRANCH  24  25
ATOM     25  C   UNL d   1      15.278  13.562  -0.099  0.00  0.00     0.000 C 
ATOM     26  C   UNL d   1      16.018  13.994  -0.094  0.00  0.00     0.000 C 
ENDBRANCH  24  25
ENDBRANCH   8  24
TORSDOF 7
ENDMDL
