MODEL 1
REMARK VINA RESULT:      -5.9      0.000      0.000
REMARK  3 active torsions:
REMARK  status: ('A' for Active; 'I' for Inactive)
REMARK    1  A    between atoms: C_2  and  S_1 
REMARK    2  A    between atoms: N_3  and  S_1 
REMARK    3  A    between atoms: C_4  and  N_3 
ROOT
ATOM      1  C   UNL d   1      56.712  -0.038  31.994  0.00  0.00     0.094 A 
ATOM      2  C   UNL d   1      56.173  -0.033  32.622  0.00  0.00     0.021 A 
ATOM      3  C   UNL d   1      55.908  -0.721  32.908  0.00  0.00     0.040 A 
ATOM      4  C   UNL d   1      56.166  -1.434  32.584  0.00  0.00     0.196 A 
ATOM      5  C   UNL d   1      56.968  -0.740  31.673  0.00  0.00     0.023 A 
ATOM      6  C   UNL d   1      56.706  -1.438  31.955  0.00  0.00     0.044 A 
ATOM      7  O   UNL d   1      55.864  -2.154  32.913  0.00  0.00    -0.287 OA
ATOM      8  C   UNL d   1      55.914   0.679  32.947  0.00  0.00     0.002 A 
ATOM      9  C   UNL d   1      55.346  -0.728  33.562  0.00  0.00     0.003 A 
ATOM     10  C   UNL d   1      55.089  -0.027  33.883  0.00  0.00     0.000 A 
ATOM     11  C   UNL d   1      55.370   0.682  33.579  0.00  0.00     0.000 A 
ENDROOT
BRANCH   1  12
ATOM     12  N   UNL d   1      57.000   0.675  31.682  0.00  0.00    -0.158 NA
BRANCH  12  13
ATOM     13  S   UNL d   1      57.583   0.670  31.093  0.00  0.00     0.291 S 
ATOM     14  O   UNL d   1      58.178   0.676  31.678  0.00  0.00    -0.198 OA
ATOM     15  O   UNL d   1      57.016   0.664  30.521  0.00  0.00    -0.198 OA
BRANCH  13  16
ATOM     16  C   UNL d   1      58.137   0.665  30.492  0.00  0.00     0.135 A 
ATOM     17  S   UNL d   1      57.967   0.682  29.715  0.00  0.00    -0.073 SA
ATOM     18  C   UNL d   1      58.664   0.671  29.264  0.00  0.00     0.036 A 
ATOM     19  C   UNL d   1      59.282   0.647  29.780  0.00  0.00     0.008 A 
ATOM     20  C   UNL d   1      58.980   0.643  30.554  0.00  0.00     0.020 A 
ENDBRANCH  13  16
ENDBRANCH  12  13
ENDBRANCH   1  12
TORSDOF 3
ENDMDL
MODEL 2
REMARK VINA RESULT:      -3.7      1.437      3.614
REMARK  3 active torsions:
REMARK  status: ('A' for Active; 'I' for Inactive)
REMARK    1  A    between atoms: C_2  and  S_1 
REMARK    2  A    between atoms: N_3  and  S_1 
REMARK    3  A    between atoms: C_4  and  N_3 
ROOT
ATOM      1  C   UNL d   1      57.127  -0.044  31.648  0.00  0.00     0.094 A 
ATOM      2  C   UNL d   1      57.674  -0.027  31.026  0.00  0.00     0.021 A 
ATOM      3  C   UNL d   1      57.799  -0.683  30.604  0.00  0.00     0.040 A 
ATOM      4  C   UNL d   1      57.388  -1.376  30.780  0.00  0.00     0.196 A 
ATOM      5  C   UNL d   1      56.721  -0.726  31.823  0.00  0.00     0.023 A 
ATOM      6  C   UNL d   1      56.840  -1.393  31.402  0.00  0.00     0.044 A 
ATOM      7  O   UNL d   1      57.544  -2.062  30.309  0.00  0.00    -0.287 OA
ATOM      8  C   UNL d   1      58.085   0.666  30.849  0.00  0.00     0.002 A 
ATOM      9  C   UNL d   1      58.366  -0.676  29.955  0.00  0.00     0.003 A 
ATOM     10  C   UNL d   1      58.772   0.005  29.779  0.00  0.00     0.000 A 
ATOM     11  C   UNL d   1      58.636   0.682  30.224  0.00  0.00     0.000 A 
ENDROOT
BRANCH   1  12
ATOM     12  N   UNL d   1      56.984   0.636  32.102  0.00  0.00    -0.158 NA
BRANCH  12  13
ATOM     13  S   UNL d   1      56.475   0.606  32.754  0.00  0.00     0.291 S 
ATOM     14  O   UNL d   1      57.131   0.542  33.266  0.00  0.00    -0.198 OA
ATOM     15  O   UNL d   1      55.835   0.667  32.269  0.00  0.00    -0.198 OA
BRANCH  13  16
ATOM     16  C   UNL d   1      55.950   0.578  33.381  0.00  0.00     0.135 A 
ATOM     17  S   UNL d   1      56.148   0.682  34.145  0.00  0.00    -0.073 SA
ATOM     18  C   UNL d   1      55.477   0.616  34.630  0.00  0.00     0.036 A 
ATOM     19  C   UNL d   1      54.848   0.468  34.149  0.00  0.00     0.008 A 
ATOM     20  C   UNL d   1      55.117   0.439  33.364  0.00  0.00     0.020 A 
ENDBRANCH  13  16
ENDBRANCH  12  13
ENDBRANCH   1  12
TORSDOF 3
ENDMDL
MODEL 3
REMARK VINA RESULT:      -3.6      1.563      4.177
REMARK  3 active torsions:
REMARK  status: ('A' for Active; 'I' for Inactive)
REMARK    1  A    between atoms: C_2  and  S_1 
REMARK    2  A    between atoms: N_3  and  S_1 
REMARK    3  A    between atoms: C_4  and  N_3 
ROOT
ATOM      1  C   UNL d   1      58.475  -0.254  30.053  0.00  0.00     0.094 A 
ATOM      2  C   UNL d   1      59.103  -0.155  29.522  0.00  0.00     0.021 A 
ATOM      3  C   UNL d   1      59.361  -0.778  29.110  0.00  0.00     0.040 A 
ATOM      4  C   UNL d   1      59.009  -1.517  29.208  0.00  0.00     0.196 A 
ATOM      5  C   UNL d   1      58.127  -0.982  30.151  0.00  0.00     0.023 A 
ATOM      6  C   UNL d   1      58.380  -1.616  29.739  0.00  0.00     0.044 A 
ATOM      7  O   UNL d   1      59.309  -2.165  28.751  0.00  0.00    -0.287 OA
ATOM      8  C   UNL d   1      59.456   0.584  29.424  0.00  0.00     0.002 A 
ATOM      9  C   UNL d   1      60.014  -0.687  28.555  0.00  0.00     0.003 A 
ATOM     10  C   UNL d   1      60.363   0.041  28.456  0.00  0.00     0.000 A 
ATOM     11  C   UNL d   1      60.088   0.682  28.889  0.00  0.00     0.000 A 
ENDROOT
BRANCH   1  12
ATOM     12  N   UNL d   1      58.191   0.389  30.495  0.00  0.00    -0.158 NA
BRANCH  12  13
ATOM     13  S   UNL d   1      57.648   0.270  31.108  0.00  0.00     0.291 S 
ATOM     14  O   UNL d   1      57.017   0.341  30.567  0.00  0.00    -0.198 OA
ATOM     15  O   UNL d   1      58.250   0.201  31.639  0.00  0.00    -0.198 OA
BRANCH  13  16
ATOM     16  C   UNL d   1      57.133   0.150  31.732  0.00  0.00     0.135 A 
ATOM     17  S   UNL d   1      56.988   0.678  32.309  0.00  0.00    -0.073 SA
ATOM     18  C   UNL d   1      56.436   0.372  32.851  0.00  0.00     0.036 A 
ATOM     19  C   UNL d   1      56.238  -0.367  32.598  0.00  0.00     0.008 A 
ATOM     20  C   UNL d   1      56.660  -0.529  31.900  0.00  0.00     0.020 A 
ENDBRANCH  13  16
ENDBRANCH  12  13
ENDBRANCH   1  12
TORSDOF 3
ENDMDL
