MODEL 1
REMARK VINA RESULT:      36.5      0.000      0.000
REMARK  3 active torsions:
REMARK  status: ('A' for Active; 'I' for Inactive)
REMARK    1  A    between atoms: N_3  and  S_1 
REMARK    2  A    between atoms: C_8  and  S_1 
REMARK    3  A    between atoms: C_2  and  N_3 
ROOT
ATOM      1  S   UNL d   1     -50.734  25.778  33.599  0.00  0.00     0.287 S 
ATOM      2  O   UNL d   1     -50.105  25.275  33.784  0.00  0.00    -0.198 OA
ATOM      3  O   UNL d   1     -51.358  26.290  33.417  0.00  0.00    -0.198 OA
ENDROOT
BRANCH   1   4
ATOM      4  N   UNL d   1     -51.166  25.138  33.306  0.00  0.00    -0.131 NA
BRANCH   4   5
ATOM      5  C   UNL d   1     -51.964  24.922  33.307  0.00  0.00     0.219 A 
ATOM      6  C   UNL d   1     -52.254  24.150  33.307  0.00  0.00     0.064 A 
ATOM      7  C   UNL d   1     -53.082  24.192  33.308  0.00  0.00     0.112 A 
ATOM      8  C   UNL d   1     -51.801  23.456  33.307  0.00  0.00     0.005 C 
ATOM      9  C   UNL d   1     -53.598  23.545  33.309  0.00  0.00     0.023 C 
ATOM     10  N   UNL d   1     -53.297  24.991  33.308  0.00  0.00    -0.125 NA
ATOM     11  O   UNL d   1     -52.604  25.444  33.308  0.00  0.00    -0.191 OA
ENDBRANCH   4   5
ENDBRANCH   1   4
BRANCH   1  12
ATOM     12  C   UNL d   1     -50.301  26.419  33.892  0.00  0.00     0.105 A 
ATOM     13  C   UNL d   1     -50.297  26.580  34.701  0.00  0.00     0.015 A 
ATOM     14  C   UNL d   1     -49.871  27.212  34.990  0.00  0.00     0.022 A 
ATOM     15  C   UNL d   1     -49.445  27.688  34.485  0.00  0.00     0.103 A 
ATOM     16  C   UNL d   1     -49.446  27.530  33.678  0.00  0.00     0.022 A 
ATOM     17  N   UNL d   1     -49.013  28.328  34.778  0.00  0.00    -0.148 N 
ATOM     18  C   UNL d   1     -49.875  26.895  33.388  0.00  0.00     0.015 A 
ENDBRANCH   1  12
TORSDOF 3
ENDMDL
MODEL 2
REMARK VINA RESULT:      38.7      1.510      1.824
REMARK  3 active torsions:
REMARK  status: ('A' for Active; 'I' for Inactive)
REMARK    1  A    between atoms: N_3  and  S_1 
REMARK    2  A    between atoms: C_8  and  S_1 
REMARK    3  A    between atoms: C_2  and  N_3 
ROOT
ATOM      1  S   UNL d   1     -51.738  24.749  33.324  0.00  0.00     0.287 S 
ATOM      2  O   UNL d   1     -51.153  24.166  33.335  0.00  0.00    -0.198 OA
ATOM      3  O   UNL d   1     -52.317  25.339  33.313  0.00  0.00    -0.198 OA
ENDROOT
BRANCH   1   4
ATOM      4  N   UNL d   1     -52.324  24.167  33.306  0.00  0.00    -0.131 NA
BRANCH   4   5
ATOM      5  C   UNL d   1     -52.853  23.852  33.857  0.00  0.00     0.219 A 
ATOM      6  C   UNL d   1     -52.818  23.958  34.674  0.00  0.00     0.064 A 
ATOM      7  C   UNL d   1     -53.455  23.546  35.010  0.00  0.00     0.112 A 
ATOM      8  C   UNL d   1     -52.249  24.398  35.088  0.00  0.00     0.005 C 
ATOM      9  C   UNL d   1     -53.631  23.504  35.817  0.00  0.00     0.023 C 
ATOM     10  N   UNL d   1     -53.878  23.188  34.397  0.00  0.00    -0.125 NA
ATOM     11  O   UNL d   1     -53.506  23.377  33.681  0.00  0.00    -0.191 OA
ENDBRANCH   4   5
ENDBRANCH   1   4
BRANCH   1  12
ATOM     12  C   UNL d   1     -51.152  25.331  33.343  0.00  0.00     0.105 A 
ATOM     13  C   UNL d   1     -51.361  26.129  33.339  0.00  0.00     0.015 A 
ATOM     14  C   UNL d   1     -50.783  26.703  33.357  0.00  0.00     0.022 A 
ATOM     15  C   UNL d   1     -49.997  26.496  33.379  0.00  0.00     0.103 A 
ATOM     16  C   UNL d   1     -49.784  25.702  33.382  0.00  0.00     0.022 A 
ATOM     17  N   UNL d   1     -49.411  27.078  33.397  0.00  0.00    -0.148 N 
ATOM     18  C   UNL d   1     -50.365  25.125  33.364  0.00  0.00     0.015 A 
ENDBRANCH   1  12
TORSDOF 3
ENDMDL
