MODEL 1
REMARK VINA RESULT:      42.2      0.000      0.000
REMARK  4 active torsions:
REMARK  status: ('A' for Active; 'I' for Inactive)
REMARK       I    between atoms: C_6  and  N_7 
REMARK    1  A    between atoms: C_9  and  C_6 
REMARK    2  A    between atoms: N_7  and  C_15 
REMARK    3  A    between atoms: C_15  and  C_14 
REMARK    4  A    between atoms: O_22  and  C_18 
ROOT
ATOM      1  C   UNL d   1      45.041 -17.931  39.476  0.00  0.00     0.102 C 
ENDROOT
BRANCH   1   2
ATOM      2  N   UNL d   1      45.303 -17.312  39.013  0.00  0.00    -0.206 NA
ATOM      3  C   UNL d   1      44.831 -16.997  38.421  0.00  0.00     0.279 C 
ATOM      4  O   UNL d   1      44.079 -17.310  38.290  0.00  0.00    -0.265 OA
BRANCH   3   5
ATOM      5  C   UNL d   1      45.095 -16.370  37.952  0.00  0.00     0.058 A 
ATOM      6  C   UNL d   1      44.635 -16.097  37.325  0.00  0.00     0.007 A 
ATOM      7  C   UNL d   1      44.911 -15.470  36.864  0.00  0.00     0.024 A 
ATOM      8  C   UNL d   1      45.627 -15.118  37.018  0.00  0.00     0.094 A 
ATOM      9  C   UNL d   1      46.096 -15.397  37.657  0.00  0.00     0.024 A 
ATOM     10  C   UNL d   1      45.832 -16.023  38.125  0.00  0.00     0.007 A 
BRANCH   8  11
ATOM     11  O   UNL d   1      45.908 -14.495  36.564  0.00  0.00    -0.328 OA
ATOM     12  C   UNL d   1      46.603 -14.104  36.807  0.00  0.00     0.181 C 
ENDBRANCH   8  11
ENDBRANCH   3   5
ENDBRANCH   1   2
BRANCH   1  13
ATOM     13  C   UNL d   1      45.377 -18.073  40.213  0.00  0.00     0.019 A 
ATOM     14  C   UNL d   1      45.579 -17.436  40.710  0.00  0.00     0.003 A 
ATOM     15  C   UNL d   1      45.916 -17.580  41.451  0.00  0.00     0.018 A 
ATOM     16  C   UNL d   1      46.052 -18.354  41.696  0.00  0.00     0.064 A 
ATOM     17  N   UNL d   1      46.373 -18.663  42.388  0.00  0.00    -0.304 N 
ATOM     18  C   UNL d   1      45.855 -18.990  41.211  0.00  0.00     0.018 A 
ATOM     19  C   UNL d   1      46.373 -19.482  42.330  0.00  0.00     0.064 A 
ATOM     20  C   UNL d   1      46.647 -18.221  43.030  0.00  0.00     0.099 C 
ATOM     21  C   UNL d   1      46.052 -19.682  41.600  0.00  0.00     0.019 A 
ATOM     22  C   UNL d   1      46.647 -20.013  42.900  0.00  0.00     0.019 C 
ATOM     23  C   UNL d   1      45.514 -18.849  40.462  0.00  0.00     0.003 A 
ENDBRANCH   1  13
TORSDOF 4
ENDMDL
MODEL 2
REMARK VINA RESULT:      43.2      1.738      5.393
REMARK  4 active torsions:
REMARK  status: ('A' for Active; 'I' for Inactive)
REMARK       I    between atoms: C_6  and  N_7 
REMARK    1  A    between atoms: C_9  and  C_6 
REMARK    2  A    between atoms: N_7  and  C_15 
REMARK    3  A    between atoms: C_15  and  C_14 
REMARK    4  A    between atoms: O_22  and  C_18 
ROOT
ATOM      1  C   UNL d   1      45.899 -17.993  39.245  0.00  0.00     0.102 C 
ENDROOT
BRANCH   1   2
ATOM      2  N   UNL d   1      45.930 -17.993  40.061  0.00  0.00    -0.206 NA
ATOM      3  C   UNL d   1      46.287 -18.605  40.471  0.00  0.00     0.279 C 
ATOM      4  O   UNL d   1      46.622 -19.233  40.054  0.00  0.00    -0.265 OA
BRANCH   3   5
ATOM      5  C   UNL d   1      46.319 -18.605  41.296  0.00  0.00     0.058 A 
ATOM      6  C   UNL d   1      46.621 -19.257  41.702  0.00  0.00     0.007 A 
ATOM      7  C   UNL d   1      46.646 -19.243  42.527  0.00  0.00     0.024 A 
ATOM      8  C   UNL d   1      46.379 -18.601  42.946  0.00  0.00     0.094 A 
ATOM      9  C   UNL d   1      46.072 -17.937  42.533  0.00  0.00     0.024 A 
ATOM     10  C   UNL d   1      46.040 -17.937  41.708  0.00  0.00     0.007 A 
BRANCH   8  11
ATOM     11  O   UNL d   1      46.401 -18.580  43.765  0.00  0.00    -0.328 OA
ATOM     12  C   UNL d   1      46.277 -19.288  44.189  0.00  0.00     0.181 C 
ENDBRANCH   8  11
ENDBRANCH   3   5
ENDBRANCH   1   2
BRANCH   1  13
ATOM     13  C   UNL d   1      45.479 -17.412  38.841  0.00  0.00     0.019 A 
ATOM     14  C   UNL d   1      44.650 -17.371  38.913  0.00  0.00     0.003 A 
ATOM     15  C   UNL d   1      44.228 -16.787  38.507  0.00  0.00     0.018 A 
ATOM     16  C   UNL d   1      44.629 -16.247  38.032  0.00  0.00     0.064 A 
ATOM     17  N   UNL d   1      44.365 -15.618  37.571  0.00  0.00    -0.304 N 
ATOM     18  C   UNL d   1      45.449 -16.280  37.956  0.00  0.00     0.018 A 
ATOM     19  C   UNL d   1      45.017 -15.267  37.214  0.00  0.00     0.064 A 
ATOM     20  C   UNL d   1      43.578 -15.383  37.485  0.00  0.00     0.099 C 
ATOM     21  C   UNL d   1      45.687 -15.680  37.455  0.00  0.00     0.019 A 
ATOM     22  C   UNL d   1      45.005 -14.618  36.705  0.00  0.00     0.019 C 
ATOM     23  C   UNL d   1      45.878 -16.869  38.364  0.00  0.00     0.003 A 
ENDBRANCH   1  13
TORSDOF 4
ENDMDL
MODEL 3
REMARK VINA RESULT:      43.5      1.213      1.801
REMARK  4 active torsions:
REMARK  status: ('A' for Active; 'I' for Inactive)
REMARK       I    between atoms: C_6  and  N_7 
REMARK    1  A    between atoms: C_9  and  C_6 
REMARK    2  A    between atoms: N_7  and  C_15 
REMARK    3  A    between atoms: C_15  and  C_14 
REMARK    4  A    between atoms: O_22  and  C_18 
ROOT
ATOM      1  C   UNL d   1      46.520 -17.613  39.700  0.00  0.00     0.102 C 
ENDROOT
BRANCH   1   2
ATOM      2  N   UNL d   1      45.841 -17.360  39.324  0.00  0.00    -0.206 NA
ATOM      3  C   UNL d   1      45.878 -16.896  38.649  0.00  0.00     0.279 C 
ATOM      4  O   UNL d   1      46.613 -16.680  38.344  0.00  0.00    -0.265 OA
BRANCH   3   5
ATOM      5  C   UNL d   1      45.191 -16.641  38.268  0.00  0.00     0.058 A 
ATOM      6  C   UNL d   1      45.239 -16.234  37.552  0.00  0.00     0.007 A 
ATOM      7  C   UNL d   1      44.545 -15.984  37.183  0.00  0.00     0.024 A 
ATOM      8  C   UNL d   1      43.816 -16.131  37.511  0.00  0.00     0.094 A 
ATOM      9  C   UNL d   1      43.768 -16.545  38.240  0.00  0.00     0.024 A 
ATOM     10  C   UNL d   1      44.454 -16.801  38.621  0.00  0.00     0.007 A 
BRANCH   8  11
ATOM     11  O   UNL d   1      43.122 -15.886  37.149  0.00  0.00    -0.328 OA
ATOM     12  C   UNL d   1      43.155 -15.603  36.365  0.00  0.00     0.181 C 
ENDBRANCH   8  11
ENDBRANCH   3   5
ENDBRANCH   1   2
BRANCH   1  13
ATOM     13  C   UNL d   1      46.477 -18.123  40.345  0.00  0.00     0.019 A 
ATOM     14  C   UNL d   1      46.549 -18.945  40.232  0.00  0.00     0.003 A 
ATOM     15  C   UNL d   1      46.506 -19.456  40.881  0.00  0.00     0.018 A 
ATOM     16  C   UNL d   1      46.391 -19.151  41.636  0.00  0.00     0.064 A 
ATOM     17  N   UNL d   1      46.326 -19.514  42.372  0.00  0.00    -0.304 N 
ATOM     18  C   UNL d   1      46.318 -18.339  41.756  0.00  0.00     0.018 A 
ATOM     19  C   UNL d   1      46.215 -18.931  42.940  0.00  0.00     0.064 A 
ATOM     20  C   UNL d   1      46.367 -20.327  42.512  0.00  0.00     0.099 C 
ATOM     21  C   UNL d   1      46.210 -18.204  42.555  0.00  0.00     0.019 A 
ATOM     22  C   UNL d   1      46.123 -19.050  43.752  0.00  0.00     0.019 C 
ATOM     23  C   UNL d   1      46.362 -17.819  41.104  0.00  0.00     0.003 A 
ENDBRANCH   1  13
TORSDOF 4
ENDMDL
MODEL 4
REMARK VINA RESULT:      44.7      4.206      4.908
REMARK  4 active torsions:
REMARK  status: ('A' for Active; 'I' for Inactive)
REMARK       I    between atoms: C_6  and  N_7 
REMARK    1  A    between atoms: C_9  and  C_6 
REMARK    2  A    between atoms: N_7  and  C_15 
REMARK    3  A    between atoms: C_15  and  C_14 
REMARK    4  A    between atoms: O_22  and  C_18 
ROOT
ATOM      1  C   UNL d   1      44.816 -12.232  41.055  0.00  0.00     0.102 C 
ENDROOT
BRANCH   1   2
ATOM      2  N   UNL d   1      45.082 -12.673  40.421  0.00  0.00    -0.206 NA
ATOM      3  C   UNL d   1      44.724 -12.617  39.686  0.00  0.00     0.279 C 
ATOM      4  O   UNL d   1      44.083 -12.108  39.583  0.00  0.00    -0.265 OA
BRANCH   3   5
ATOM      5  C   UNL d   1      44.993 -13.062  39.045  0.00  0.00     0.058 A 
ATOM      6  C   UNL d   1      45.801 -13.129  38.893  0.00  0.00     0.007 A 
ATOM      7  C   UNL d   1      46.056 -13.577  38.248  0.00  0.00     0.024 A 
ATOM      8  C   UNL d   1      45.526 -13.953  37.762  0.00  0.00     0.094 A 
ATOM      9  C   UNL d   1      44.703 -13.886  37.916  0.00  0.00     0.024 A 
ATOM     10  C   UNL d   1      44.434 -13.441  38.557  0.00  0.00     0.007 A 
BRANCH   8  11
ATOM     11  O   UNL d   1      45.772 -14.400  37.119  0.00  0.00    -0.328 OA
ATOM     12  C   UNL d   1      45.281 -15.017  36.847  0.00  0.00     0.181 C 
ENDBRANCH   8  11
ENDBRANCH   3   5
ENDBRANCH   1   2
BRANCH   1  13
ATOM     13  C   UNL d   1      45.034 -12.430  41.823  0.00  0.00     0.019 A 
ATOM     14  C   UNL d   1      45.707 -12.080  42.169  0.00  0.00     0.003 A 
ATOM     15  C   UNL d   1      45.925 -12.279  42.941  0.00  0.00     0.018 A 
ATOM     16  C   UNL d   1      45.477 -12.822  43.367  0.00  0.00     0.064 A 
ATOM     17  N   UNL d   1      45.556 -13.123  44.129  0.00  0.00    -0.304 N 
ATOM     18  C   UNL d   1      44.810 -13.173  43.032  0.00  0.00     0.018 A 
ATOM     19  C   UNL d   1      44.943 -13.654  44.263  0.00  0.00     0.064 A 
ATOM     20  C   UNL d   1      46.151 -12.923  44.665  0.00  0.00     0.099 C 
ATOM     21  C   UNL d   1      44.483 -13.682  43.581  0.00  0.00     0.019 A 
ATOM     22  C   UNL d   1      44.810 -14.083  44.955  0.00  0.00     0.019 C 
ATOM     23  C   UNL d   1      44.586 -12.975  42.253  0.00  0.00     0.003 A 
ENDBRANCH   1  13
TORSDOF 4
ENDMDL
