MODEL 1
REMARK VINA RESULT:      -9.5      0.000      0.000
REMARK  3 active torsions:
REMARK  status: ('A' for Active; 'I' for Inactive)
REMARK    1  A    between atoms: C_2  and  C_1 
REMARK    2  A    between atoms: C_6  and  C_2 
REMARK    3  A    between atoms: C_9  and  C_6 
ROOT
ATOM      1  C   UNL d   1      52.602  33.156  53.532  0.00  0.00     0.199 C 
ATOM      2  O   UNL d   1      51.834  32.850  53.556  0.00  0.00    -0.286 OA
ENDROOT
BRANCH   1   3
ATOM      3  C   UNL d   1      52.743  33.919  53.813  0.00  0.00     0.078 A 
ATOM      4  C   UNL d   1      52.512  34.584  53.357  0.00  0.00     0.202 A 
ATOM      5  C   UNL d   1      52.658  35.346  53.649  0.00  0.00     0.084 A 
ATOM      6  O   UNL d   1      52.144  34.468  52.628  0.00  0.00    -0.286 OA
ATOM      7  C   UNL d   1      53.024  35.460  54.375  0.00  0.00     0.199 A 
ATOM      8  C   UNL d   1      53.255  34.794  54.831  0.00  0.00     0.042 A 
ATOM      9  O   UNL d   1      53.167  36.216  54.661  0.00  0.00    -0.286 OA
ATOM     10  C   UNL d   1      53.114  34.032  54.550  0.00  0.00     0.010 A 
ENDBRANCH   1   3
BRANCH   1  11
ATOM     11  C   UNL d   1      53.219  32.702  53.228  0.00  0.00     0.042 C 
BRANCH  11  12
ATOM     12  C   UNL d   1      53.204  31.879  53.295  0.00  0.00     0.003 A 
ATOM     13  C   UNL d   1      53.711  31.513  53.822  0.00  0.00     0.001 A 
ATOM     14  C   UNL d   1      53.696  30.690  53.888  0.00  0.00     0.007 A 
ATOM     15  C   UNL d   1      53.177  30.233  53.429  0.00  0.00     0.035 A 
ATOM     16  C   UNL d   1      52.669  30.615  52.901  0.00  0.00     0.007 A 
ATOM     17 BR   UNL d   1      53.164  29.415  53.498  0.00  0.00    -0.049 Br
ATOM     18  C   UNL d   1      52.681  31.439  52.832  0.00  0.00     0.001 A 
ENDBRANCH  11  12
ENDBRANCH   1  11
TORSDOF 3
ENDMDL
MODEL 2
REMARK VINA RESULT:      -9.0      2.029      4.130
REMARK  3 active torsions:
REMARK  status: ('A' for Active; 'I' for Inactive)
REMARK    1  A    between atoms: C_2  and  C_1 
REMARK    2  A    between atoms: C_6  and  C_2 
REMARK    3  A    between atoms: C_9  and  C_6 
ROOT
ATOM      1  C   UNL d   1      53.286  32.209  53.458  0.00  0.00     0.199 C 
ATOM      2  O   UNL d   1      53.983  32.538  53.157  0.00  0.00    -0.286 OA
ENDROOT
BRANCH   1   3
ATOM      3  C   UNL d   1      53.219  31.390  53.520  0.00  0.00     0.078 A 
ATOM      4  C   UNL d   1      52.892  30.946  52.888  0.00  0.00     0.202 A 
ATOM      5  C   UNL d   1      52.829  30.123  52.961  0.00  0.00     0.084 A 
ATOM      6  O   UNL d   1      52.641  31.336  52.207  0.00  0.00    -0.286 OA
ATOM      7  C   UNL d   1      53.080  29.736  53.640  0.00  0.00     0.199 A 
ATOM      8  C   UNL d   1      53.406  30.180  54.273  0.00  0.00     0.042 A 
ATOM      9  O   UNL d   1      53.016  28.920  53.708  0.00  0.00    -0.286 OA
ATOM     10  C   UNL d   1      53.474  30.999  54.210  0.00  0.00     0.010 A 
ENDBRANCH   1   3
BRANCH   1  11
ATOM     11  C   UNL d   1      52.666  32.700  53.692  0.00  0.00     0.042 C 
BRANCH  11  12
ATOM     12  C   UNL d   1      52.808  33.489  53.887  0.00  0.00     0.003 A 
ATOM     13  C   UNL d   1      52.564  34.077  53.372  0.00  0.00     0.001 A 
ATOM     14  C   UNL d   1      52.706  34.865  53.567  0.00  0.00     0.007 A 
ATOM     15  C   UNL d   1      53.090  35.070  54.274  0.00  0.00     0.035 A 
ATOM     16  C   UNL d   1      53.331  34.468  54.786  0.00  0.00     0.007 A 
ATOM     17 BR   UNL d   1      53.229  35.856  54.466  0.00  0.00    -0.049 Br
ATOM     18  C   UNL d   1      53.191  33.675  54.594  0.00  0.00     0.001 A 
ENDBRANCH  11  12
ENDBRANCH   1  11
TORSDOF 3
ENDMDL
MODEL 3
REMARK VINA RESULT:      -8.9      2.322      3.287
REMARK  3 active torsions:
REMARK  status: ('A' for Active; 'I' for Inactive)
REMARK    1  A    between atoms: C_2  and  C_1 
REMARK    2  A    between atoms: C_6  and  C_2 
REMARK    3  A    between atoms: C_9  and  C_6 
ROOT
ATOM      1  C   UNL d   1      52.691  33.600  53.566  0.00  0.00     0.199 C 
ATOM      2  O   UNL d   1      52.281  32.888  53.477  0.00  0.00    -0.286 OA
ENDROOT
BRANCH   1   3
ATOM      3  C   UNL d   1      53.361  33.625  54.047  0.00  0.00     0.078 A 
ATOM      4  C   UNL d   1      54.015  33.125  53.882  0.00  0.00     0.202 A 
ATOM      5  C   UNL d   1      54.683  33.158  54.371  0.00  0.00     0.084 A 
ATOM      6  O   UNL d   1      53.980  32.612  53.238  0.00  0.00    -0.286 OA
ATOM      7  C   UNL d   1      54.715  33.670  55.013  0.00  0.00     0.199 A 
ATOM      8  C   UNL d   1      54.062  34.170  55.177  0.00  0.00     0.042 A 
ATOM      9  O   UNL d   1      55.379  33.699  55.495  0.00  0.00    -0.286 OA
ATOM     10  C   UNL d   1      53.392  34.145  54.696  0.00  0.00     0.010 A 
ENDBRANCH   1   3
BRANCH   1  11
ATOM     11  C   UNL d   1      52.430  34.279  53.176  0.00  0.00     0.042 C 
BRANCH  11  12
ATOM     12  C   UNL d   1      51.683  34.298  52.826  0.00  0.00     0.003 A 
ATOM     13  C   UNL d   1      51.618  34.189  52.018  0.00  0.00     0.001 A 
ATOM     14  C   UNL d   1      50.872  34.209  51.668  0.00  0.00     0.007 A 
ATOM     15  C   UNL d   1      50.189  34.338  52.123  0.00  0.00     0.035 A 
ATOM     16  C   UNL d   1      50.267  34.447  52.938  0.00  0.00     0.007 A 
ATOM     17 BR   UNL d   1      49.447  34.357  51.772  0.00  0.00    -0.049 Br
ATOM     18  C   UNL d   1      51.015  34.428  53.293  0.00  0.00     0.001 A 
ENDBRANCH  11  12
ENDBRANCH   1  11
TORSDOF 3
ENDMDL
MODEL 4
REMARK VINA RESULT:      -8.3      2.057      3.126
REMARK  3 active torsions:
REMARK  status: ('A' for Active; 'I' for Inactive)
REMARK    1  A    between atoms: C_2  and  C_1 
REMARK    2  A    between atoms: C_6  and  C_2 
REMARK    3  A    between atoms: C_9  and  C_6 
ROOT
ATOM      1  C   UNL d   1      52.025  34.239  53.066  0.00  0.00     0.199 C 
ATOM      2  O   UNL d   1      52.607  34.794  52.871  0.00  0.00    -0.286 OA
ENDROOT
BRANCH   1   3
ATOM      3  C   UNL d   1      51.272  34.310  52.736  0.00  0.00     0.078 A 
ATOM      4  C   UNL d   1      51.168  34.240  51.906  0.00  0.00     0.202 A 
ATOM      5  C   UNL d   1      50.407  34.312  51.586  0.00  0.00     0.084 A 
ATOM      6  O   UNL d   1      51.824  34.101  51.427  0.00  0.00    -0.286 OA
ATOM      7  C   UNL d   1      49.755  34.450  52.065  0.00  0.00     0.199 A 
ATOM      8  C   UNL d   1      49.859  34.520  52.895  0.00  0.00     0.042 A 
ATOM      9  O   UNL d   1      49.003  34.521  51.744  0.00  0.00    -0.286 OA
ATOM     10  C   UNL d   1      50.612  34.450  53.224  0.00  0.00     0.010 A 
ENDBRANCH   1   3
BRANCH   1  11
ATOM     11  C   UNL d   1      52.199  33.623  53.584  0.00  0.00     0.042 C 
BRANCH  11  12
ATOM     12  C   UNL d   1      52.918  33.607  53.988  0.00  0.00     0.003 A 
ATOM     13  C   UNL d   1      53.488  33.062  53.768  0.00  0.00     0.001 A 
ATOM     14  C   UNL d   1      54.206  33.046  54.173  0.00  0.00     0.007 A 
ATOM     15  C   UNL d   1      54.359  33.573  54.796  0.00  0.00     0.035 A 
ATOM     16  C   UNL d   1      53.776  34.118  55.009  0.00  0.00     0.007 A 
ATOM     17 BR   UNL d   1      55.075  33.555  55.197  0.00  0.00    -0.049 Br
ATOM     18  C   UNL d   1      53.054  34.137  54.606  0.00  0.00     0.001 A 
ENDBRANCH  11  12
ENDBRANCH   1  11
TORSDOF 3
ENDMDL
