MODEL 1
REMARK VINA RESULT:      31.3      0.000      0.000
REMARK  2 active torsions:
REMARK  status: ('A' for Active; 'I' for Inactive)
REMARK    1  A    between atoms: C_7  and  C_1 
REMARK    2  A    between atoms: C_11  and  C_7 
ROOT
ATOM      1  C   UNL d   1     -51.210  25.196  33.337  0.00  0.00     0.116 A 
ATOM      2  N   UNL d   1     -50.070  26.049  33.398  0.00  0.00    -0.152 NA
ATOM      3  N   UNL d   1     -49.899  24.635  33.369  0.00  0.00    -0.152 NA
ATOM      4  C   UNL d   1     -50.718  24.532  33.338  0.00  0.00     0.288 A 
ATOM      5  C   UNL d   1     -50.889  25.950  33.367  0.00  0.00     0.288 A 
ATOM      6  C   UNL d   1     -49.577  25.389  33.399  0.00  0.00     0.374 A 
ATOM      7  O   UNL d   1     -51.386  26.633  33.367  0.00  0.00    -0.265 OA
ATOM      8  O   UNL d   1     -51.040  23.776  33.308  0.00  0.00    -0.265 OA
ATOM      9  O   UNL d   1     -48.754  25.508  33.430  0.00  0.00    -0.242 OA
ENDROOT
BRANCH   1  10
ATOM     10  C   UNL d   1     -52.041  25.098  33.306  0.00  0.00     0.010 C 
BRANCH  10  11
ATOM     11  C   UNL d   1     -52.421  24.625  33.867  0.00  0.00     0.001 A 
ATOM     12  C   UNL d   1     -52.412  24.834  34.660  0.00  0.00     0.003 A 
ATOM     13  C   UNL d   1     -52.792  24.359  35.217  0.00  0.00     0.042 A 
ATOM     14  C   UNL d   1     -53.176  23.680  34.975  0.00  0.00     0.196 A 
ATOM     15  C   UNL d   1     -53.185  23.470  34.182  0.00  0.00     0.042 A 
ATOM     16  O   UNL d   1     -53.566  23.189  35.536  0.00  0.00    -0.287 OA
ATOM     17  C   UNL d   1     -52.810  23.937  33.622  0.00  0.00     0.003 A 
ENDBRANCH  10  11
ENDBRANCH   1  10
TORSDOF 2
ENDMDL
