MODEL 1
REMARK VINA RESULT:       1.0      0.000      0.000
REMARK  3 active torsions:
REMARK  status: ('A' for Active; 'I' for Inactive)
REMARK    1  A    between atoms: C_2  and  N_1 
REMARK    2  A    between atoms: C_5  and  C_8 
REMARK       I    between atoms: N_6  and  C_5 
REMARK    3  A    between atoms: C_13  and  N_6 
ROOT
ATOM      1  C   UNL d   1      32.589  22.429 -21.479  0.00  0.00     0.070 A 
ATOM      2  C   UNL d   1      32.697  21.692 -21.844  0.00  0.00     0.022 A 
ATOM      3  C   UNL d   1      32.858  21.652 -22.648  0.00  0.00     0.059 A 
ATOM      4  C   UNL d   1      32.644  23.136 -21.929  0.00  0.00     0.018 A 
ATOM      5  C   UNL d   1      32.913  22.336 -23.095  0.00  0.00     0.005 A 
ATOM      6  C   UNL d   1      32.806  23.084 -22.735  0.00  0.00     0.002 A 
ENDROOT
BRANCH   3   7
ATOM      7  C   UNL d   1      32.965  20.920 -23.014  0.00  0.00     0.279 C 
ATOM      8  N   UNL d   1      32.796  20.225 -22.604  0.00  0.00    -0.208 NA
ATOM      9  O   UNL d   1      33.240  20.882 -23.787  0.00  0.00    -0.265 OA
BRANCH   8  10
ATOM     10  C   UNL d   1      32.905  19.482 -22.976  0.00  0.00     0.085 A 
ATOM     11  C   UNL d   1      32.961  18.798 -22.524  0.00  0.00     0.020 A 
ATOM     12  C   UNL d   1      33.069  18.054 -22.873  0.00  0.00     0.008 A 
ATOM     13  C   UNL d   1      33.143  17.283 -22.566  0.00  0.00     0.007 A 
ATOM     14  C   UNL d   1      33.121  18.003 -23.696  0.00  0.00     0.030 A 
ATOM     15  C   UNL d   1      33.238  16.781 -23.201  0.00  0.00     0.035 A 
ATOM     16  S   UNL d   1      33.228  17.198 -23.897  0.00  0.00    -0.086 SA
ATOM     17  C   UNL d   1      33.065  18.700 -24.165  0.00  0.00     0.008 A 
ATOM     18  C   UNL d   1      32.957  19.435 -23.798  0.00  0.00     0.020 A 
ENDBRANCH   8  10
ENDBRANCH   3   7
BRANCH   1  19
ATOM     19  N   UNL d   1      32.428  22.476 -20.671  0.00  0.00    -0.242 N 
ATOM     20  C   UNL d   1      32.704  23.024 -20.127  0.00  0.00     0.267 A 
ATOM     21  C   UNL d   1      32.405  22.865 -19.389  0.00  0.00     0.066 A 
ATOM     22  O   UNL d   1      33.241  23.685 -20.306  0.00  0.00    -0.267 OA
ATOM     23  C   UNL d   1      31.935  22.210 -19.464  0.00  0.00     0.066 A 
ATOM     24  C   UNL d   1      31.951  21.983 -20.223  0.00  0.00     0.267 A 
ATOM     25  O   UNL d   1      31.506  21.287 -20.527  0.00  0.00    -0.267 OA
ENDBRANCH   1  19
TORSDOF 3
ENDMDL
