MODEL 1
REMARK VINA RESULT:      -7.2      0.000      0.000
REMARK  5 active torsions:
REMARK  status: ('A' for Active; 'I' for Inactive)
REMARK    1  A    between atoms: C_12  and  C_4 
REMARK    2  A    between atoms: S_10  and  C_5 
REMARK    3  A    between atoms: C_15  and  S_10 
REMARK    4  A    between atoms: C_11  and  C_15 
REMARK       I    between atoms: N_13  and  C_11 
REMARK    5  A    between atoms: C_16  and  N_13 
ROOT
ATOM      1  N   UNL d   1     -48.307  13.259  23.058  0.00  0.00    -0.206 N 
ATOM      2  C   UNL d   1     -49.007  13.698  23.066  0.00  0.00     0.166 A 
ATOM      3  N   UNL d   1     -47.592  14.415  22.700  0.00  0.00    -0.163 NA
ATOM      4  C   UNL d   1     -48.999  14.489  22.893  0.00  0.00     0.055 A 
ATOM      5  C   UNL d   1     -48.336  12.473  23.234  0.00  0.00     0.116 A 
ATOM      6  C   UNL d   1     -48.280  14.847  22.708  0.00  0.00     0.104 A 
ATOM      7  N   UNL d   1     -49.716  13.338  23.250  0.00  0.00    -0.227 NA
ATOM      8  C   UNL d   1     -49.036  12.098  23.420  0.00  0.00     0.045 A 
ATOM      9  C   UNL d   1     -49.732  12.534  23.428  0.00  0.00     0.085 A 
ATOM     10  C   UNL d   1     -48.276  15.634  22.535  0.00  0.00     0.023 C 
ATOM     11  C   UNL d   1     -50.473  12.159  23.620  0.00  0.00     0.021 C 
ENDROOT
BRANCH   5  12
ATOM     12  S   UNL d   1     -47.615  12.021  23.226  0.00  0.00    -0.062 SA
BRANCH  12  13
ATOM     13  C   UNL d   1     -47.204  11.406  23.622  0.00  0.00     0.099 C 
BRANCH  13  14
ATOM     14  C   UNL d   1     -46.368  11.345  23.549  0.00  0.00     0.286 C 
ATOM     15  N   UNL d   1     -45.990  10.585  23.550  0.00  0.00    -0.208 NA
ATOM     16  O   UNL d   1     -45.896  12.042  23.474  0.00  0.00    -0.265 OA
BRANCH  15  17
ATOM     17  C   UNL d   1     -45.152  10.528  23.477  0.00  0.00     0.085 A 
ATOM     18  C   UNL d   1     -44.714  11.185  23.182  0.00  0.00     0.022 A 
ATOM     19  C   UNL d   1     -43.864  11.122  23.110  0.00  0.00     0.044 A 
ATOM     20  C   UNL d   1     -43.475  10.412  23.331  0.00  0.00     0.196 A 
ATOM     21  C   UNL d   1     -43.914   9.755  23.625  0.00  0.00     0.044 A 
ATOM     22  O   UNL d   1     -42.638  10.355  23.258  0.00  0.00    -0.287 OA
ATOM     23  C   UNL d   1     -44.756   9.815  23.698  0.00  0.00     0.022 A 
ENDBRANCH  15  17
ENDBRANCH  13  14
ENDBRANCH  12  13
ENDBRANCH   5  12
BRANCH   4  24
ATOM     24  C   UNL d   1     -49.688  14.920  22.901  0.00  0.00     0.004 A 
ATOM     25  C   UNL d   1     -49.892  15.344  23.554  0.00  0.00     0.000 A 
ATOM     26  C   UNL d   1     -50.580  15.776  23.562  0.00  0.00     0.000 A 
ATOM     27  C   UNL d   1     -51.064  15.784  22.916  0.00  0.00     0.000 A 
ATOM     28  C   UNL d   1     -50.849  15.347  22.250  0.00  0.00     0.000 A 
ATOM     29  C   UNL d   1     -50.169  14.926  22.254  0.00  0.00     0.000 A 
ENDBRANCH   4  24
TORSDOF 5
ENDMDL
MODEL 2
REMARK VINA RESULT:      -6.6      1.953      2.436
REMARK  5 active torsions:
REMARK  status: ('A' for Active; 'I' for Inactive)
REMARK    1  A    between atoms: C_12  and  C_4 
REMARK    2  A    between atoms: S_10  and  C_5 
REMARK    3  A    between atoms: C_15  and  S_10 
REMARK    4  A    between atoms: C_11  and  C_15 
REMARK       I    between atoms: N_13  and  C_11 
REMARK    5  A    between atoms: C_16  and  N_13 
ROOT
ATOM      1  N   UNL d   1     -47.386  13.573  22.695  0.00  0.00    -0.206 N 
ATOM      2  C   UNL d   1     -48.200  13.547  22.832  0.00  0.00     0.166 A 
ATOM      3  N   UNL d   1     -47.502  14.914  22.288  0.00  0.00    -0.163 NA
ATOM      4  C   UNL d   1     -48.661  14.199  22.698  0.00  0.00     0.055 A 
ATOM      5  C   UNL d   1     -46.944  12.913  22.836  0.00  0.00     0.116 A 
ATOM      6  C   UNL d   1     -48.302  14.888  22.422  0.00  0.00     0.104 A 
ATOM      7  N   UNL d   1     -48.550  12.862  23.105  0.00  0.00    -0.227 NA
ATOM      8  C   UNL d   1     -47.278  12.221  23.108  0.00  0.00     0.045 A 
ATOM      9  C   UNL d   1     -48.088  12.195  23.244  0.00  0.00     0.085 A 
ATOM     10  C   UNL d   1     -48.764  15.535  22.289  0.00  0.00     0.023 C 
ATOM     11  C   UNL d   1     -48.453  11.479  23.529  0.00  0.00     0.021 C 
ENDROOT
BRANCH   5  12
ATOM     12  S   UNL d   1     -46.106  12.940  22.695  0.00  0.00    -0.062 SA
BRANCH  12  13
ATOM     13  C   UNL d   1     -45.435  12.460  22.544  0.00  0.00     0.099 C 
BRANCH  13  14
ATOM     14  C   UNL d   1     -44.734  12.803  22.228  0.00  0.00     0.286 C 
ATOM     15  N   UNL d   1     -44.096  12.311  21.963  0.00  0.00    -0.208 NA
ATOM     16  O   UNL d   1     -44.660  13.643  22.173  0.00  0.00    -0.265 OA
BRANCH  15  17
ATOM     17  C   UNL d   1     -43.395  12.659  21.647  0.00  0.00     0.085 A 
ATOM     18  C   UNL d   1     -42.670  12.592  22.071  0.00  0.00     0.022 A 
ATOM     19  C   UNL d   1     -41.963  12.947  21.746  0.00  0.00     0.044 A 
ATOM     20  C   UNL d   1     -41.995  13.356  21.014  0.00  0.00     0.196 A 
ATOM     21  C   UNL d   1     -42.722  13.423  20.591  0.00  0.00     0.044 A 
ATOM     22  O   UNL d   1     -41.295  13.704  20.699  0.00  0.00    -0.287 OA
ATOM     23  C   UNL d   1     -43.424  13.072  20.910  0.00  0.00     0.022 A 
ENDBRANCH  15  17
ENDBRANCH  13  14
ENDBRANCH  12  13
ENDBRANCH   5  12
BRANCH   4  24
ATOM     24  C   UNL d   1     -49.463  14.173  22.832  0.00  0.00     0.004 A 
ATOM     25  C   UNL d   1     -49.964  13.943  22.246  0.00  0.00     0.000 A 
ATOM     26  C   UNL d   1     -50.765  13.917  22.380  0.00  0.00     0.000 A 
ATOM     27  C   UNL d   1     -51.064  14.122  23.101  0.00  0.00     0.000 A 
ATOM     28  C   UNL d   1     -50.545  14.356  23.698  0.00  0.00     0.000 A 
ATOM     29  C   UNL d   1     -49.758  14.378  23.553  0.00  0.00     0.000 A 
ENDBRANCH   4  24
TORSDOF 5
ENDMDL
MODEL 3
REMARK VINA RESULT:      -5.6      5.768      8.524
REMARK  5 active torsions:
REMARK  status: ('A' for Active; 'I' for Inactive)
REMARK    1  A    between atoms: C_12  and  C_4 
REMARK    2  A    between atoms: S_10  and  C_5 
REMARK    3  A    between atoms: C_15  and  S_10 
REMARK    4  A    between atoms: C_11  and  C_15 
REMARK       I    between atoms: N_13  and  C_11 
REMARK    5  A    between atoms: C_16  and  N_13 
ROOT
ATOM      1  N   UNL d   1     -41.049  14.187  19.870  0.00  0.00    -0.206 N 
ATOM      2  C   UNL d   1     -40.306  14.463  19.639  0.00  0.00     0.166 A 
ATOM      3  N   UNL d   1     -41.448  14.148  18.522  0.00  0.00    -0.163 NA
ATOM      4  C   UNL d   1     -40.135  14.580  18.856  0.00  0.00     0.055 A 
ATOM      5  C   UNL d   1     -41.199  14.078  20.655  0.00  0.00     0.116 A 
ATOM      6  C   UNL d   1     -40.717  14.419  18.295  0.00  0.00     0.104 A 
ATOM      7  N   UNL d   1     -39.733  14.621  20.198  0.00  0.00    -0.227 NA
ATOM      8  C   UNL d   1     -40.638  14.231  21.226  0.00  0.00     0.045 A 
ATOM      9  C   UNL d   1     -39.899  14.505  20.997  0.00  0.00     0.085 A 
ATOM     10  C   UNL d   1     -40.544  14.536  17.517  0.00  0.00     0.023 C 
ATOM     11  C   UNL d   1     -39.301  14.670  21.581  0.00  0.00     0.021 C 
ENDROOT
BRANCH   5  12
ATOM     12  S   UNL d   1     -41.965  13.794  20.893  0.00  0.00    -0.062 SA
BRANCH  12  13
ATOM     13  C   UNL d   1     -42.384  13.104  21.121  0.00  0.00     0.099 C 
BRANCH  13  14
ATOM     14  C   UNL d   1     -43.133  13.173  21.498  0.00  0.00     0.286 C 
ATOM     15  N   UNL d   1     -43.658  12.507  21.537  0.00  0.00    -0.208 NA
ATOM     16  O   UNL d   1     -43.370  13.907  21.843  0.00  0.00    -0.265 OA
BRANCH  15  17
ATOM     17  C   UNL d   1     -44.408  12.580  21.916  0.00  0.00     0.085 A 
ATOM     18  C   UNL d   1     -44.577  12.116  22.598  0.00  0.00     0.022 A 
ATOM     19  C   UNL d   1     -45.339  12.194  22.979  0.00  0.00     0.044 A 
ATOM     20  C   UNL d   1     -45.909  12.727  22.672  0.00  0.00     0.196 A 
ATOM     21  C   UNL d   1     -45.739  13.192  21.989  0.00  0.00     0.044 A 
ATOM     22  O   UNL d   1     -46.658  12.800  23.051  0.00  0.00    -0.287 OA
ATOM     23  C   UNL d   1     -44.986  13.117  21.611  0.00  0.00     0.022 A 
ENDBRANCH  15  17
ENDBRANCH  13  14
ENDBRANCH  12  13
ENDBRANCH   5  12
BRANCH   4  24
ATOM     24  C   UNL d   1     -39.403  14.851  18.628  0.00  0.00     0.004 A 
ATOM     25  C   UNL d   1     -38.814  14.330  18.459  0.00  0.00     0.000 A 
ATOM     26  C   UNL d   1     -38.082  14.601  18.232  0.00  0.00     0.000 A 
ATOM     27  C   UNL d   1     -37.940  15.393  18.173  0.00  0.00     0.000 A 
ATOM     28  C   UNL d   1     -38.549  15.922  18.348  0.00  0.00     0.000 A 
ATOM     29  C   UNL d   1     -39.265  15.643  18.571  0.00  0.00     0.000 A 
ENDBRANCH   4  24
TORSDOF 5
ENDMDL
MODEL 4
REMARK VINA RESULT:      -5.2      0.668      1.778
REMARK  5 active torsions:
REMARK  status: ('A' for Active; 'I' for Inactive)
REMARK    1  A    between atoms: C_12  and  C_4 
REMARK    2  A    between atoms: S_10  and  C_5 
REMARK    3  A    between atoms: C_15  and  S_10 
REMARK    4  A    between atoms: C_11  and  C_15 
REMARK       I    between atoms: N_13  and  C_11 
REMARK    5  A    between atoms: C_16  and  N_13 
ROOT
ATOM      1  N   UNL d   1     -48.368  12.961  23.099  0.00  0.00    -0.206 N 
ATOM      2  C   UNL d   1     -48.847  13.631  23.033  0.00  0.00     0.166 A 
ATOM      3  N   UNL d   1     -49.509  12.176  23.343  0.00  0.00    -0.163 NA
ATOM      4  C   UNL d   1     -49.650  13.574  23.122  0.00  0.00     0.055 A 
ATOM      5  C   UNL d   1     -47.571  13.040  23.006  0.00  0.00     0.116 A 
ATOM      6  C   UNL d   1     -49.979  12.835  23.279  0.00  0.00     0.104 A 
ATOM      7  N   UNL d   1     -48.515  14.361  22.878  0.00  0.00    -0.227 NA
ATOM      8  C   UNL d   1     -47.224  13.761  22.851  0.00  0.00     0.045 A 
ATOM      9  C   UNL d   1     -47.700  14.427  22.786  0.00  0.00     0.085 A 
ATOM     10  C   UNL d   1     -50.779  12.781  23.367  0.00  0.00     0.023 C 
ATOM     11  C   UNL d   1     -47.353  15.189  22.624  0.00  0.00     0.021 C 
ENDROOT
BRANCH   5  12
ATOM     12  S   UNL d   1     -47.078  12.349  23.074  0.00  0.00    -0.062 SA
BRANCH  12  13
ATOM     13  C   UNL d   1     -46.739  11.818  23.627  0.00  0.00     0.099 C 
BRANCH  13  14
ATOM     14  C   UNL d   1     -45.947  11.551  23.523  0.00  0.00     0.286 C 
ATOM     15  N   UNL d   1     -45.741  10.745  23.687  0.00  0.00    -0.208 NA
ATOM     16  O   UNL d   1     -45.351  12.085  23.253  0.00  0.00    -0.265 OA
BRANCH  15  17
ATOM     17  C   UNL d   1     -44.946  10.481  23.581  0.00  0.00     0.085 A 
ATOM     18  C   UNL d   1     -44.759   9.668  23.698  0.00  0.00     0.022 A 
ATOM     19  C   UNL d   1     -43.952   9.406  23.589  0.00  0.00     0.044 A 
ATOM     20  C   UNL d   1     -43.358   9.955  23.370  0.00  0.00     0.196 A 
ATOM     21  C   UNL d   1     -43.546  10.768  23.253  0.00  0.00     0.044 A 
ATOM     22  O   UNL d   1     -42.564   9.691  23.264  0.00  0.00    -0.287 OA
ATOM     23  C   UNL d   1     -44.344  11.031  23.360  0.00  0.00     0.022 A 
ENDBRANCH  15  17
ENDBRANCH  13  14
ENDBRANCH  12  13
ENDBRANCH   5  12
BRANCH   4  24
ATOM     24  C   UNL d   1     -50.121  14.233  23.058  0.00  0.00     0.004 A 
ATOM     25  C   UNL d   1     -50.471  14.413  22.356  0.00  0.00     0.000 A 
ATOM     26  C   UNL d   1     -50.942  15.073  22.292  0.00  0.00     0.000 A 
ATOM     27  C   UNL d   1     -51.063  15.551  22.930  0.00  0.00     0.000 A 
ATOM     28  C   UNL d   1     -50.701  15.361  23.647  0.00  0.00     0.000 A 
ATOM     29  C   UNL d   1     -50.240  14.709  23.697  0.00  0.00     0.000 A 
ENDBRANCH   4  24
TORSDOF 5
ENDMDL
MODEL 5
REMARK VINA RESULT:      -4.6      6.756      9.280
REMARK  5 active torsions:
REMARK  status: ('A' for Active; 'I' for Inactive)
REMARK    1  A    between atoms: C_12  and  C_4 
REMARK    2  A    between atoms: S_10  and  C_5 
REMARK    3  A    between atoms: C_15  and  S_10 
REMARK    4  A    between atoms: C_11  and  C_15 
REMARK       I    between atoms: N_13  and  C_11 
REMARK    5  A    between atoms: C_16  and  N_13 
ROOT
ATOM      1  N   UNL d   1     -40.391  14.494  18.890  0.00  0.00    -0.206 N 
ATOM      2  C   UNL d   1     -39.799  14.632  18.330  0.00  0.00     0.166 A 
ATOM      3  N   UNL d   1     -41.360  14.915  17.962  0.00  0.00    -0.163 NA
ATOM      4  C   UNL d   1     -39.987  14.909  17.592  0.00  0.00     0.055 A 
ATOM      5  C   UNL d   1     -40.183  14.219  19.618  0.00  0.00     0.116 A 
ATOM      6  C   UNL d   1     -40.779  15.050  17.411  0.00  0.00     0.104 A 
ATOM      7  N   UNL d   1     -39.017  14.490  18.514  0.00  0.00    -0.227 NA
ATOM      8  C   UNL d   1     -39.406  14.072  19.819  0.00  0.00     0.045 A 
ATOM      9  C   UNL d   1     -38.818  14.209  19.262  0.00  0.00     0.085 A 
ATOM     10  C   UNL d   1     -40.961  15.325  16.676  0.00  0.00     0.023 C 
ATOM     11  C   UNL d   1     -38.001  14.061  19.455  0.00  0.00     0.021 C 
ENDROOT
BRANCH   5  12
ATOM     12  S   UNL d   1     -40.793  14.077  20.195  0.00  0.00    -0.062 SA
BRANCH  12  13
ATOM     13  C   UNL d   1     -40.962  13.663  20.905  0.00  0.00     0.099 C 
BRANCH  13  14
ATOM     14  C   UNL d   1     -41.756  13.598  21.174  0.00  0.00     0.286 C 
ATOM     15  N   UNL d   1     -42.151  12.847  21.173  0.00  0.00    -0.208 NA
ATOM     16  O   UNL d   1     -42.169  14.283  21.449  0.00  0.00    -0.265 OA
BRANCH  15  17
ATOM     17  C   UNL d   1     -42.947  12.786  21.445  0.00  0.00     0.085 A 
ATOM     18  C   UNL d   1     -43.544  13.268  21.095  0.00  0.00     0.022 A 
ATOM     19  C   UNL d   1     -44.350  13.202  21.375  0.00  0.00     0.044 A 
ATOM     20  C   UNL d   1     -44.539  12.663  21.988  0.00  0.00     0.196 A 
ATOM     21  C   UNL d   1     -43.942  12.181  22.337  0.00  0.00     0.044 A 
ATOM     22  O   UNL d   1     -45.335  12.602  22.259  0.00  0.00    -0.287 OA
ATOM     23  C   UNL d   1     -43.143  12.244  22.063  0.00  0.00     0.022 A 
ENDBRANCH  15  17
ENDBRANCH  13  14
ENDBRANCH  12  13
ENDBRANCH   5  12
BRANCH   4  24
ATOM     24  C   UNL d   1     -39.404  15.044  17.041  0.00  0.00     0.004 A 
ATOM     25  C   UNL d   1     -39.063  15.771  16.985  0.00  0.00     0.000 A 
ATOM     26  C   UNL d   1     -38.480  15.906  16.434  0.00  0.00     0.000 A 
ATOM     27  C   UNL d   1     -38.241  15.315  15.940  0.00  0.00     0.000 A 
ATOM     28  C   UNL d   1     -38.596  14.573  16.003  0.00  0.00     0.000 A 
ATOM     29  C   UNL d   1     -39.168  14.452  16.549  0.00  0.00     0.000 A 
ENDBRANCH   4  24
TORSDOF 5
ENDMDL
