MODEL 1
REMARK VINA RESULT:      64.5      0.000      0.000
REMARK  4 active torsions:
REMARK  status: ('A' for Active; 'I' for Inactive)
REMARK    1  A    between atoms: C_2  and  C_1 
REMARK    2  A    between atoms: C_11  and  N_5 
REMARK    3  A    between atoms: C_14  and  C_11 
REMARK    4  A    between atoms: C_17  and  C_14 
ROOT
ATOM      1  C   UNL d   1      60.864  48.523  50.634  0.00  0.00     0.112 A 
ATOM      2  C   UNL d   1      60.061  48.519  50.784  0.00  0.00     0.176 A 
ATOM      3  N   UNL d   1      59.857  49.261  51.100  0.00  0.00    -0.285 N 
ATOM      4  C   UNL d   1      61.163  49.258  50.852  0.00  0.00     0.219 A 
ATOM      5  C   UNL d   1      60.535  49.706  51.138  0.00  0.00     0.124 A 
ATOM      6  O   UNL d   1      61.944  49.508  50.797  0.00  0.00    -0.285 OA
ATOM      7  N   UNL d   1      59.533  47.886  50.649  0.00  0.00    -0.128 N 
ENDROOT
BRANCH   1   8
ATOM      8  C   UNL d   1      61.273  47.875  50.315  0.00  0.00     0.169 A 
ATOM      9  N   UNL d   1      61.947  47.829  49.848  0.00  0.00    -0.225 NA
ATOM     10  C   UNL d   1      62.097  47.033  49.700  0.00  0.00     0.101 A 
ATOM     11  C   UNL d   1      62.688  46.654  49.271  0.00  0.00     0.021 A 
ATOM     12  C   UNL d   1      61.511  46.589  50.077  0.00  0.00     0.101 A 
ATOM     13  C   UNL d   1      62.697  45.829  49.217  0.00  0.00     0.002 A 
ATOM     14  C   UNL d   1      62.111  45.386  49.595  0.00  0.00     0.002 A 
ATOM     15  C   UNL d   1      61.517  45.768  50.026  0.00  0.00     0.021 A 
ATOM     16  N   UNL d   1      61.004  47.115  50.456  0.00  0.00    -0.225 NA
ENDBRANCH   1   8
BRANCH   3  17
ATOM     17  C   UNL d   1      59.102  49.502  51.333  0.00  0.00     0.082 C 
BRANCH  17  18
ATOM     18  C   UNL d   1      58.539  49.705  50.766  0.00  0.00     0.019 C 
BRANCH  18  19
ATOM     19  C   UNL d   1      57.737  49.654  50.941  0.00  0.00     0.002 C 
ATOM     20  C   UNL d   1      57.481  49.646  51.726  0.00  0.00     0.000 C 
ATOM     21  C   UNL d   1      57.183  49.611  50.327  0.00  0.00     0.000 C 
ENDBRANCH  18  19
ENDBRANCH  17  18
ENDBRANCH   3  17
TORSDOF 4
ENDMDL
