MODEL 1
REMARK VINA RESULT:      51.2      0.000      0.000
REMARK  3 active torsions:
REMARK  status: ('A' for Active; 'I' for Inactive)
REMARK    1  A    between atoms: C_4  and  C_1 
REMARK    2  A    between atoms: C_5  and  C_6 
REMARK       I    between atoms: C_6  and  N_7 
REMARK    3  A    between atoms: N_7  and  C_8 
ROOT
ATOM      1  C   UNL d   1      59.435  49.688  51.499  0.00  0.00     0.042 A 
ATOM      2  C   UNL d   1      60.172  49.693  51.136  0.00  0.00     0.087 A 
ATOM      3  C   UNL d   1      59.376  49.683  52.327  0.00  0.00     0.004 A 
ATOM      4  C   UNL d   1      60.855  49.695  51.593  0.00  0.00     0.019 A 
ATOM      5  C   UNL d   1      60.066  49.684  52.779  0.00  0.00     0.000 A 
ATOM      6  C   UNL d   1      60.804  49.690  52.410  0.00  0.00     0.002 A 
ENDROOT
BRANCH   1   7
ATOM      7  C   UNL d   1      58.745  49.687  51.046  0.00  0.00     0.112 A 
ATOM      8  N   UNL d   1      58.640  49.699  50.238  0.00  0.00    -0.238 NA
ATOM      9  C   UNL d   1      57.827  49.691  50.091  0.00  0.00     0.088 A 
ATOM     10  C   UNL d   1      57.390  49.697  49.384  0.00  0.00     0.020 A 
ATOM     11  C   UNL d   1      57.439  49.674  50.814  0.00  0.00     0.049 A 
ATOM     12  C   UNL d   1      56.569  49.686  49.409  0.00  0.00     0.002 A 
ATOM     13  C   UNL d   1      56.175  49.669  50.136  0.00  0.00     0.001 A 
ATOM     14  C   UNL d   1      56.612  49.663  50.842  0.00  0.00     0.008 A 
ATOM     15  S   UNL d   1      58.009  49.671  51.404  0.00  0.00    -0.066 SA
ENDBRANCH   1   7
BRANCH   2  16
ATOM     16  N   UNL d   1      60.222  49.698  50.309  0.00  0.00    -0.206 NA
ATOM     17  C   UNL d   1      60.579  49.056  49.912  0.00  0.00     0.304 C 
ATOM     18  O   UNL d   1      60.628  49.061  49.090  0.00  0.00    -0.263 OA
BRANCH  17  19
ATOM     19  C   UNL d   1      60.882  48.418  50.337  0.00  0.00     0.182 A 
ATOM     20  O   UNL d   1      60.562  47.663  50.239  0.00  0.00    -0.296 OA
ATOM     21  C   UNL d   1      60.866  47.025  50.665  0.00  0.00     0.150 A 
ATOM     22  C   UNL d   1      61.490  47.141  51.188  0.00  0.00     0.149 A 
ATOM     23  O   UNL d   1      61.810  47.897  51.287  0.00  0.00    -0.299 OA
ATOM     24  C   UNL d   1      61.506  48.534  50.861  0.00  0.00     0.152 A 
ENDBRANCH  17  19
ENDBRANCH   2  16
TORSDOF 3
ENDMDL
