MODEL 1
REMARK VINA RESULT:      43.9      0.000      0.000
REMARK  3 active torsions:
REMARK  status: ('A' for Active; 'I' for Inactive)
REMARK    1  A    between atoms: C_9  and  C_4 
REMARK    2  A    between atoms: C_10  and  C_7 
REMARK    3  A    between atoms: C_17  and  C_10 
ROOT
ATOM      1  C   UNL d   1      13.288  13.256  -3.942  0.00  0.00     0.179 A 
ATOM      2  N   UNL d   1      13.745  13.666  -3.382  0.00  0.00    -0.282 N 
ATOM      3  N   UNL d   1      13.153  13.760  -4.582  0.00  0.00    -0.221 NA
ATOM      4  C   UNL d   1      13.527  14.486  -4.420  0.00  0.00     0.101 A 
ATOM      5  S   UNL d   1      13.141  12.500  -3.648  0.00  0.00    -0.048 SA
ATOM      6  C   UNL d   1      13.887  14.420  -3.685  0.00  0.00     0.101 A 
ATOM      7  C   UNL d   1      13.508  12.446  -2.908  0.00  0.00     0.050 A 
ATOM      8  C   UNL d   1      13.873  13.156  -2.751  0.00  0.00     0.089 A 
ENDROOT
BRANCH   4   9
ATOM      9  C   UNL d   1      13.529  15.137  -4.911  0.00  0.00     0.019 A 
ATOM     10  C   UNL d   1      14.246  15.430  -5.196  0.00  0.00     0.004 A 
ATOM     11  C   UNL d   1      14.261  16.089  -5.694  0.00  0.00     0.030 A 
ATOM     12  C   UNL d   1      13.549  16.453  -5.904  0.00  0.00     0.140 A 
ATOM     13  C   UNL d   1      12.834  16.165  -5.624  0.00  0.00     0.030 A 
ATOM     14  F   UNL d   1      13.386  17.110  -6.385  0.00  0.00    -0.204 F 
ATOM     15  C   UNL d   1      12.819  15.509  -5.128  0.00  0.00     0.004 A 
ENDBRANCH   4   9
BRANCH   7  16
ATOM     16  C   UNL d   1      13.497  11.779  -2.423  0.00  0.00     0.008 C 
BRANCH  16  17
ATOM     17  C   UNL d   1      13.867  11.786  -1.687  0.00  0.00     0.001 A 
ATOM     18  C   UNL d   1      14.686  11.784  -1.628  0.00  0.00     0.000 A 
ATOM     19  C   UNL d   1      15.056  11.791  -0.884  0.00  0.00     0.000 A 
ATOM     20  C   UNL d   1      14.595  11.800  -0.199  0.00  0.00     0.000 A 
ATOM     21  C   UNL d   1      13.773  11.801  -0.253  0.00  0.00     0.000 A 
ATOM     22  C   UNL d   1      13.403  11.795  -0.995  0.00  0.00     0.000 A 
ENDBRANCH  16  17
ENDBRANCH   7  16
TORSDOF 3
ENDMDL
