MODEL 1
REMARK VINA RESULT:      41.9      0.000      0.000
REMARK  6 active torsions:
REMARK  status: ('A' for Active; 'I' for Inactive)
REMARK    1  A    between atoms: C_3  and  C_1 
REMARK    2  A    between atoms: C_4  and  N_2 
REMARK       I    between atoms: N_14  and  C_3 
REMARK    3  A    between atoms: N_5  and  C_19 
REMARK    4  A    between atoms: O_18  and  C_13 
REMARK    5  A    between atoms: C_17  and  N_14 
REMARK    6  A    between atoms: C_19  and  C_17 
ROOT
ATOM      1  N   UNL d   1     -51.518  25.384  33.411  0.00  0.00    -0.300 N 
ATOM      2  N   UNL d   1     -50.546  26.715  33.479  0.00  0.00    -0.299 N 
ATOM      3  C   UNL d   1     -50.699  25.292  33.323  0.00  0.00     0.100 A 
ATOM      4  C   UNL d   1     -51.852  26.132  33.532  0.00  0.00     0.100 A 
ATOM      5  C   UNL d   1     -50.213  25.967  33.358  0.00  0.00     0.100 A 
ATOM      6  C   UNL d   1     -51.364  26.790  33.565  0.00  0.00     0.100 A 
ENDROOT
BRANCH   2   7
ATOM      7  C   UNL d   1     -50.058  27.373  33.512  0.00  0.00     0.101 C 
BRANCH   7   8
ATOM      8  C   UNL d   1     -49.376  27.371  33.963  0.00  0.00     0.121 C 
BRANCH   8   9
ATOM      9  N   UNL d   1     -49.084  28.056  34.286  0.00  0.00    -0.205 NA
ATOM     10  C   UNL d   1     -48.382  28.038  34.721  0.00  0.00     0.280 C 
ATOM     11  O   UNL d   1     -47.982  27.332  34.827  0.00  0.00    -0.265 OA
BRANCH  10  12
ATOM     12  C   UNL d   1     -48.085  28.734  35.049  0.00  0.00     0.065 A 
ATOM     13  C   UNL d   1     -47.410  29.141  34.794  0.00  0.00     0.040 A 
ATOM     14  S   UNL d   1     -47.323  29.803  35.280  0.00  0.00    -0.086 SA
ATOM     15  C   UNL d   1     -47.925  29.806  35.818  0.00  0.00     0.036 A 
ATOM     16  C   UNL d   1     -48.403  29.142  35.679  0.00  0.00     0.012 A 
ENDBRANCH  10  12
ENDBRANCH   8   9
ENDBRANCH   7   8
ENDBRANCH   2   7
BRANCH   1  17
ATOM     17  C   UNL d   1     -51.999  24.715  33.376  0.00  0.00     0.086 A 
ATOM     18  C   UNL d   1     -51.665  23.957  33.344  0.00  0.00     0.110 A 
ATOM     19  C   UNL d   1     -52.153  23.299  33.310  0.00  0.00     0.026 A 
ATOM     20  C   UNL d   1     -52.974  23.382  33.306  0.00  0.00     0.002 A 
ATOM     21  C   UNL d   1     -53.309  24.140  33.337  0.00  0.00     0.002 A 
ATOM     22  C   UNL d   1     -52.830  24.805  33.372  0.00  0.00     0.019 A 
BRANCH  18  23
ATOM     23  O   UNL d   1     -50.851  23.864  33.348  0.00  0.00    -0.327 OA
ATOM     24  C   UNL d   1     -50.508  23.189  33.685  0.00  0.00     0.181 C 
ENDBRANCH  18  23
ENDBRANCH   1  17
TORSDOF 6
ENDMDL
