MODEL 1
REMARK VINA RESULT:      -3.4      0.000      0.000
REMARK  5 active torsions:
REMARK  status: ('A' for Active; 'I' for Inactive)
REMARK    1  A    between atoms: C_6  and  S_1 
REMARK    2  A    between atoms: N_7  and  S_1 
REMARK    3  A    between atoms: C_15  and  N_7 
REMARK    4  A    between atoms: O_21  and  C_16 
REMARK    5  A    between atoms: C_22  and  O_21 
ROOT
ATOM      1  S   UNL d   1      32.961  20.114 -22.178  0.00  0.00     0.327 S 
ATOM      2  O   UNL d   1      32.855  19.938 -21.382  0.00  0.00    -0.186 OA
ATOM      3  O   UNL d   1      32.992  20.896 -22.425  0.00  0.00    -0.186 OA
ENDROOT
BRANCH   1   4
ATOM      4  C   UNL d   1      33.036  19.508 -22.726  0.00  0.00     0.118 A 
ATOM      5  C   UNL d   1      32.986  18.727 -22.481  0.00  0.00     0.035 A 
ATOM      6  C   UNL d   1      33.062  18.113 -23.032  0.00  0.00     0.105 A 
ATOM      7  N   UNL d   1      33.037  17.292 -22.956  0.00  0.00    -0.189 NA
ATOM      8  C   UNL d   1      33.188  18.291 -23.834  0.00  0.00     0.104 A 
ATOM      9  C   UNL d   1      33.148  16.957 -23.710  0.00  0.00     0.369 A 
ATOM     10  O   UNL d   1      33.163  16.154 -23.886  0.00  0.00    -0.242 OA
ATOM     11  N   UNL d   1      33.241  17.578 -24.246  0.00  0.00    -0.189 NA
ATOM     12  C   UNL d   1      33.238  19.081 -24.076  0.00  0.00     0.022 A 
ATOM     13  C   UNL d   1      33.162  19.685 -23.520  0.00  0.00     0.016 A 
ENDBRANCH   1   4
BRANCH   1  14
ATOM     14  N   UNL d   1      32.887  20.726 -21.636  0.00  0.00    -0.317 NA
BRANCH  14  15
ATOM     15  C   UNL d   1      32.812  21.351 -21.082  0.00  0.00     0.146 A 
ATOM     16  C   UNL d   1      33.238  21.318 -20.370  0.00  0.00     0.035 A 
ATOM     17  C   UNL d   1      33.162  21.936 -19.825  0.00  0.00     0.027 A 
ATOM     18  C   UNL d   1      32.666  22.577 -19.993  0.00  0.00     0.100 A 
ATOM     19  C   UNL d   1      32.249  22.599 -20.701  0.00  0.00     0.027 A 
ATOM     20  C   UNL d   1      32.324  21.984 -21.244  0.00  0.00     0.035 A 
BRANCH  18  21
ATOM     21  O   UNL d   1      32.588  23.195 -19.451  0.00  0.00    -0.305 OA
BRANCH  21  22
ATOM     22  C   UNL d   1      32.969  23.164 -18.735  0.00  0.00     0.123 C 
ATOM     23  C   UNL d   1      32.772  23.699 -18.140  0.00  0.00     0.029 C 
ENDBRANCH  21  22
ENDBRANCH  18  21
ENDBRANCH  14  15
ENDBRANCH   1  14
TORSDOF 5
ENDMDL
MODEL 2
REMARK VINA RESULT:      -3.3      1.123      5.418
REMARK  5 active torsions:
REMARK  status: ('A' for Active; 'I' for Inactive)
REMARK    1  A    between atoms: C_6  and  S_1 
REMARK    2  A    between atoms: N_7  and  S_1 
REMARK    3  A    between atoms: C_15  and  N_7 
REMARK    4  A    between atoms: O_21  and  C_16 
REMARK    5  A    between atoms: C_22  and  O_21 
ROOT
ATOM      1  S   UNL d   1      32.990  20.614 -21.934  0.00  0.00     0.327 S 
ATOM      2  O   UNL d   1      33.190  20.595 -22.732  0.00  0.00    -0.186 OA
ATOM      3  O   UNL d   1      32.757  19.925 -21.553  0.00  0.00    -0.186 OA
ENDROOT
BRANCH   1   4
ATOM      4  C   UNL d   1      33.023  21.321 -21.519  0.00  0.00     0.118 A 
ATOM      5  C   UNL d   1      33.081  21.311 -20.701  0.00  0.00     0.035 A 
ATOM      6  C   UNL d   1      33.115  22.022 -20.277  0.00  0.00     0.105 A 
ATOM      7  N   UNL d   1      33.173  22.187 -19.471  0.00  0.00    -0.189 NA
ATOM      8  C   UNL d   1      33.090  22.746 -20.685  0.00  0.00     0.104 A 
ATOM      9  C   UNL d   1      33.184  23.014 -19.375  0.00  0.00     0.369 A 
ATOM     10  O   UNL d   1      33.237  23.418 -18.660  0.00  0.00    -0.242 OA
ATOM     11  N   UNL d   1      33.133  23.353 -20.127  0.00  0.00    -0.189 NA
ATOM     12  C   UNL d   1      33.032  22.751 -21.511  0.00  0.00     0.022 A 
ATOM     13  C   UNL d   1      32.999  22.038 -21.922  0.00  0.00     0.016 A 
ENDBRANCH   1   4
BRANCH   1  14
ATOM     14  N   UNL d   1      32.954  19.903 -22.342  0.00  0.00    -0.317 NA
BRANCH  14  15
ATOM     15  C   UNL d   1      32.918  19.176 -22.759  0.00  0.00     0.146 A 
ATOM     16  C   UNL d   1      33.241  18.492 -22.415  0.00  0.00     0.035 A 
ATOM     17  C   UNL d   1      33.204  17.776 -22.829  0.00  0.00     0.027 A 
ATOM     18  C   UNL d   1      32.848  17.748 -23.575  0.00  0.00     0.100 A 
ATOM     19  C   UNL d   1      32.532  18.430 -23.906  0.00  0.00     0.027 A 
ATOM     20  C   UNL d   1      32.568  19.144 -23.495  0.00  0.00     0.035 A 
BRANCH  18  21
ATOM     21  O   UNL d   1      32.810  17.035 -23.991  0.00  0.00    -0.305 OA
BRANCH  21  22
ATOM     22  C   UNL d   1      32.409  16.401 -23.681  0.00  0.00     0.123 C 
ATOM     23  C   UNL d   1      32.317  15.714 -24.127  0.00  0.00     0.029 C 
ENDBRANCH  21  22
ENDBRANCH  18  21
ENDBRANCH  14  15
ENDBRANCH   1  14
TORSDOF 5
ENDMDL
MODEL 3
REMARK VINA RESULT:      -2.4      2.056      5.797
REMARK  5 active torsions:
REMARK  status: ('A' for Active; 'I' for Inactive)
REMARK    1  A    between atoms: C_6  and  S_1 
REMARK    2  A    between atoms: N_7  and  S_1 
REMARK    3  A    between atoms: C_15  and  N_7 
REMARK    4  A    between atoms: O_21  and  C_16 
REMARK    5  A    between atoms: C_22  and  O_21 
ROOT
ATOM      1  S   UNL d   1      32.884  22.051 -20.105  0.00  0.00     0.327 S 
ATOM      2  O   UNL d   1      32.836  22.417 -20.840  0.00  0.00    -0.186 OA
ATOM      3  O   UNL d   1      33.002  21.239 -20.058  0.00  0.00    -0.186 OA
ENDROOT
BRANCH   1   4
ATOM      4  C   UNL d   1      32.815  22.495 -19.419  0.00  0.00     0.118 A 
ATOM      5  C   UNL d   1      33.090  22.193 -18.708  0.00  0.00     0.035 A 
ATOM      6  C   UNL d   1      33.022  22.638 -18.013  0.00  0.00     0.105 A 
ATOM      7  N   UNL d   1      33.241  22.487 -17.232  0.00  0.00    -0.189 NA
ATOM      8  C   UNL d   1      32.675  23.393 -18.039  0.00  0.00     0.104 A 
ATOM      9  C   UNL d   1      33.031  23.148 -16.771  0.00  0.00     0.369 A 
ATOM     10  O   UNL d   1      33.150  23.230 -15.960  0.00  0.00    -0.242 OA
ATOM     11  N   UNL d   1      32.682  23.702 -17.274  0.00  0.00    -0.189 NA
ATOM     12  C   UNL d   1      32.400  23.694 -18.759  0.00  0.00     0.022 A 
ATOM     13  C   UNL d   1      32.472  23.242 -19.445  0.00  0.00     0.016 A 
ENDBRANCH   1   4
BRANCH   1  14
ATOM     14  N   UNL d   1      32.954  21.598 -20.787  0.00  0.00    -0.317 NA
BRANCH  14  15
ATOM     15  C   UNL d   1      33.027  21.136 -21.483  0.00  0.00     0.146 A 
ATOM     16  C   UNL d   1      33.166  21.514 -22.210  0.00  0.00     0.035 A 
ATOM     17  C   UNL d   1      33.237  21.055 -22.895  0.00  0.00     0.027 A 
ATOM     18  C   UNL d   1      33.170  20.232 -22.851  0.00  0.00     0.100 A 
ATOM     19  C   UNL d   1      33.032  19.869 -22.126  0.00  0.00     0.027 A 
ATOM     20  C   UNL d   1      32.961  20.324 -21.443  0.00  0.00     0.035 A 
BRANCH  18  21
ATOM     21  O   UNL d   1      33.240  19.772 -23.533  0.00  0.00    -0.305 OA
BRANCH  21  22
ATOM     22  C   UNL d   1      32.791  19.101 -23.624  0.00  0.00     0.123 C 
ATOM     23  C   UNL d   1      32.874  18.638 -24.301  0.00  0.00     0.029 C 
ENDBRANCH  21  22
ENDBRANCH  18  21
ENDBRANCH  14  15
ENDBRANCH   1  14
TORSDOF 5
ENDMDL
