MODEL 1
REMARK VINA RESULT:      10.3      0.000      0.000
REMARK  3 active torsions:
REMARK  status: ('A' for Active; 'I' for Inactive)
REMARK    1  A    between atoms: S_8  and  C_1 
REMARK    2  A    between atoms: C_7  and  C_12 
REMARK    3  A    between atoms: C_12  and  S_8 
ROOT
ATOM      1  C   UNL d   1      46.168 -17.552  44.272  0.00  0.00     0.141 A 
ATOM      2  N   UNL d   1      46.255 -17.661  43.468  0.00  0.00    -0.232 NA
ATOM      3  S   UNL d   1      46.248 -18.263  44.649  0.00  0.00    -0.060 SA
ATOM      4  C   UNL d   1      46.391 -18.454  43.358  0.00  0.00     0.088 A 
ATOM      5  C   UNL d   1      46.386 -18.827  44.088  0.00  0.00     0.049 A 
ATOM      6  C   UNL d   1      46.520 -18.891  42.662  0.00  0.00     0.020 A 
ATOM      7  C   UNL d   1      46.511 -19.639  44.128  0.00  0.00     0.008 A 
ATOM      8  C   UNL d   1      46.646 -19.715  42.716  0.00  0.00     0.002 A 
ATOM      9  C   UNL d   1      46.641 -20.088  43.446  0.00  0.00     0.001 A 
ENDROOT
BRANCH   1  10
ATOM     10  S   UNL d   1      46.021 -16.827  44.640  0.00  0.00    -0.060 SA
BRANCH  10  11
ATOM     11  C   UNL d   1      45.523 -16.277  44.301  0.00  0.00     0.044 C 
BRANCH  11  12
ATOM     12  C   UNL d   1      45.520 -15.481  44.561  0.00  0.00     0.036 A 
ATOM     13  S   UNL d   1      44.798 -15.108  44.712  0.00  0.00    -0.086 SA
ATOM     14  C   UNL d   1      44.969 -14.344  44.955  0.00  0.00     0.035 A 
ATOM     15  C   UNL d   1      45.791 -14.248  44.954  0.00  0.00     0.007 A 
ATOM     16  C   UNL d   1      46.129 -14.959  44.707  0.00  0.00     0.007 A 
ENDBRANCH  11  12
ENDBRANCH  10  11
ENDBRANCH   1  10
TORSDOF 3
ENDMDL
MODEL 2
REMARK VINA RESULT:      10.8      0.889      4.265
REMARK  3 active torsions:
REMARK  status: ('A' for Active; 'I' for Inactive)
REMARK    1  A    between atoms: S_8  and  C_1 
REMARK    2  A    between atoms: C_7  and  C_12 
REMARK    3  A    between atoms: C_12  and  S_8 
ROOT
ATOM      1  C   UNL d   1      45.757 -16.250  44.764  0.00  0.00     0.141 A 
ATOM      2  N   UNL d   1      46.311 -15.690  44.551  0.00  0.00    -0.232 NA
ATOM      3  S   UNL d   1      45.061 -15.881  44.948  0.00  0.00    -0.060 SA
ATOM      4  C   UNL d   1      45.942 -14.969  44.608  0.00  0.00     0.088 A 
ATOM      5  C   UNL d   1      45.168 -15.087  44.854  0.00  0.00     0.049 A 
ATOM      6  C   UNL d   1      46.225 -14.200  44.462  0.00  0.00     0.020 A 
ATOM      7  C   UNL d   1      44.673 -14.437  44.955  0.00  0.00     0.008 A 
ATOM      8  C   UNL d   1      45.712 -13.550  44.568  0.00  0.00     0.002 A 
ATOM      9  C   UNL d   1      44.939 -13.668  44.814  0.00  0.00     0.001 A 
ENDROOT
BRANCH   1  10
ATOM     10  S   UNL d   1      45.889 -17.065  44.787  0.00  0.00    -0.060 SA
BRANCH  10  11
ATOM     11  C   UNL d   1      46.147 -17.466  44.125  0.00  0.00     0.044 C 
BRANCH  11  12
ATOM     12  C   UNL d   1      46.341 -18.281  44.165  0.00  0.00     0.036 A 
ATOM     13  S   UNL d   1      46.447 -18.705  43.463  0.00  0.00    -0.086 SA
ATOM     14  C   UNL d   1      46.629 -19.476  43.676  0.00  0.00     0.035 A 
ATOM     15  C   UNL d   1      46.635 -19.525  44.502  0.00  0.00     0.007 A 
ATOM     16  C   UNL d   1      46.455 -18.777  44.801  0.00  0.00     0.007 A 
ENDBRANCH  11  12
ENDBRANCH  10  11
ENDBRANCH   1  10
TORSDOF 3
ENDMDL
