MODEL 1
REMARK VINA RESULT:      47.2      0.000      0.000
REMARK  6 active torsions:
REMARK  status: ('A' for Active; 'I' for Inactive)
REMARK    1  A    between atoms: C_12  and  N_1 
REMARK    2  A    between atoms: N_8  and  C_2 
REMARK    3  A    between atoms: C_6  and  C_5 
REMARK    4  A    between atoms: C_7  and  C_6 
REMARK       I    between atoms: N_9  and  C_7 
REMARK    5  A    between atoms: C_19  and  N_8 
REMARK    6  A    between atoms: C_13  and  N_9 
ROOT
ATOM      1  N   UNL d   1     -51.386  24.392  33.310  0.00  0.00    -0.252 N 
ATOM      2  C   UNL d   1     -52.164  24.683  33.308  0.00  0.00     0.182 A 
ATOM      3  C   UNL d   1     -50.871  25.044  33.310  0.00  0.00     0.272 A 
ATOM      4  S   UNL d   1     -52.132  25.511  33.307  0.00  0.00    -0.045 SA
ATOM      5  C   UNL d   1     -51.331  25.731  33.308  0.00  0.00     0.093 A 
ATOM      6  O   UNL d   1     -50.037  25.009  33.311  0.00  0.00    -0.266 OA
ENDROOT
BRANCH   5   7
ATOM      7  C   UNL d   1     -51.301  26.549  33.307  0.00  0.00     0.074 C 
BRANCH   7   8
ATOM      8  C   UNL d   1     -50.834  27.115  33.681  0.00  0.00     0.280 C 
ATOM      9  N   UNL d   1     -50.015  27.070  33.630  0.00  0.00    -0.208 NA
ATOM     10  O   UNL d   1     -51.189  27.726  34.108  0.00  0.00    -0.265 OA
BRANCH   9  11
ATOM     11  C   UNL d   1     -49.554  27.645  34.012  0.00  0.00     0.085 A 
ATOM     12  C   UNL d   1     -48.978  27.405  34.548  0.00  0.00     0.019 A 
ATOM     13  C   UNL d   1     -48.514  27.961  34.933  0.00  0.00     0.002 A 
ATOM     14  C   UNL d   1     -48.627  28.759  34.781  0.00  0.00     0.000 A 
ATOM     15  C   UNL d   1     -49.207  28.998  34.241  0.00  0.00     0.002 A 
ATOM     16  C   UNL d   1     -48.166  29.326  35.163  0.00  0.00     0.000 C 
ATOM     17  C   UNL d   1     -49.666  28.435  33.860  0.00  0.00     0.019 A 
ENDBRANCH   9  11
ENDBRANCH   7   8
ENDBRANCH   5   7
BRANCH   1  18
ATOM     18  C   UNL d   1     -51.195  23.582  33.311  0.00  0.00     0.085 C 
ATOM     19  C   UNL d   1     -50.483  23.315  33.632  0.00  0.00     0.021 C 
ENDBRANCH   1  18
BRANCH   2  20
ATOM     20  N   UNL d   1     -52.899  24.295  33.307  0.00  0.00    -0.221 NA
BRANCH  20  21
ATOM     21  C   UNL d   1     -53.545  24.275  33.820  0.00  0.00     0.101 C 
ATOM     22  C   UNL d   1     -54.177  23.766  33.667  0.00  0.00     0.022 C 
ENDBRANCH  20  21
ENDBRANCH   2  20
TORSDOF 6
ENDMDL
