MODEL 1
REMARK VINA RESULT:      -4.7      0.000      0.000
REMARK  4 active torsions:
REMARK  status: ('A' for Active; 'I' for Inactive)
REMARK       I    between atoms: C_4  and  N_10 
REMARK    1  A    between atoms: C_7  and  C_4 
REMARK    2  A    between atoms: C_11  and  C_5 
REMARK    3  A    between atoms: N_10  and  C_13 
REMARK    4  A    between atoms: C_13  and  C_11 
ROOT
ATOM      1  C   UNL d   1      56.718  -0.383  32.207  0.00  0.00     0.279 C 
ATOM      2  O   UNL d   1      56.621  -1.192  32.082  0.00  0.00    -0.265 OA
ATOM      3  N   UNL d   1      57.131   0.078  31.655  0.00  0.00    -0.206 NA
ENDROOT
BRANCH   1   4
ATOM      4  C   UNL d   1      56.398  -0.021  32.896  0.00  0.00     0.058 A 
ATOM      5  C   UNL d   1      55.581   0.002  33.008  0.00  0.00     0.005 A 
ATOM      6  C   UNL d   1      55.266   0.351  33.673  0.00  0.00     0.000 A 
ATOM      7  C   UNL d   1      54.447   0.368  33.774  0.00  0.00     0.000 C 
ATOM      8  C   UNL d   1      55.766   0.682  34.236  0.00  0.00     0.000 A 
ATOM      9  C   UNL d   1      56.581   0.664  34.135  0.00  0.00     0.000 A 
ATOM     10  C   UNL d   1      56.906   0.315  33.468  0.00  0.00     0.005 A 
ENDBRANCH   1   4
BRANCH   3  11
ATOM     11  C   UNL d   1      57.440  -0.268  30.991  0.00  0.00     0.104 C 
BRANCH  11  12
ATOM     12  C   UNL d   1      57.753   0.205  30.386  0.00  0.00     0.040 C 
BRANCH  12  13
ATOM     13  C   UNL d   1      58.329  -0.088  29.896  0.00  0.00     0.090 A 
ATOM     14  N   UNL d   1      58.981   0.379  29.686  0.00  0.00    -0.238 NA
ATOM     15  C   UNL d   1      59.464  -0.059  29.192  0.00  0.00     0.111 A 
ATOM     16  S   UNL d   1      59.125  -0.797  29.088  0.00  0.00    -0.066 SA
ATOM     17  C   UNL d   1      60.185   0.191  28.845  0.00  0.00     0.028 C 
ATOM     18  C   UNL d   1      58.422  -0.821  29.522  0.00  0.00     0.056 A 
ENDBRANCH  12  13
ENDBRANCH  11  12
ENDBRANCH   3  11
TORSDOF 4
ENDMDL
MODEL 2
REMARK VINA RESULT:      -4.6      1.716      4.849
REMARK  4 active torsions:
REMARK  status: ('A' for Active; 'I' for Inactive)
REMARK       I    between atoms: C_4  and  N_10 
REMARK    1  A    between atoms: C_7  and  C_4 
REMARK    2  A    between atoms: C_11  and  C_5 
REMARK    3  A    between atoms: N_10  and  C_13 
REMARK    4  A    between atoms: C_13  and  C_11 
ROOT
ATOM      1  C   UNL d   1      57.870  -0.156  30.240  0.00  0.00     0.279 C 
ATOM      2  O   UNL d   1      57.474   0.513  29.965  0.00  0.00    -0.265 OA
ATOM      3  N   UNL d   1      57.672  -0.485  30.975  0.00  0.00    -0.206 NA
ENDROOT
BRANCH   1   4
ATOM      4  C   UNL d   1      58.476  -0.508  29.775  0.00  0.00     0.058 A 
ATOM      5  C   UNL d   1      58.409  -1.295  29.536  0.00  0.00     0.005 A 
ATOM      6  C   UNL d   1      58.993  -1.641  29.086  0.00  0.00     0.000 A 
ATOM      7  C   UNL d   1      58.914  -2.429  28.853  0.00  0.00     0.000 C 
ATOM      8  C   UNL d   1      59.654  -1.202  28.869  0.00  0.00     0.000 A 
ATOM      9  C   UNL d   1      59.731  -0.418  29.101  0.00  0.00     0.000 A 
ATOM     10  C   UNL d   1      59.147  -0.063  29.555  0.00  0.00     0.005 A 
ENDBRANCH   1   4
BRANCH   3  11
ATOM     11  C   UNL d   1      57.088  -0.147  31.425  0.00  0.00     0.104 C 
BRANCH  11  12
ATOM     12  C   UNL d   1      56.772  -0.561  32.069  0.00  0.00     0.040 C 
BRANCH  12  13
ATOM     13  C   UNL d   1      56.451  -0.158  32.695  0.00  0.00     0.090 A 
ATOM     14  N   UNL d   1      55.634  -0.178  32.836  0.00  0.00    -0.238 NA
ATOM     15  C   UNL d   1      55.475   0.276  33.498  0.00  0.00     0.111 A 
ATOM     16  S   UNL d   1      56.182   0.582  33.777  0.00  0.00    -0.066 SA
ATOM     17  C   UNL d   1      54.723   0.412  33.843  0.00  0.00     0.028 C 
ATOM     18  C   UNL d   1      56.790   0.317  33.284  0.00  0.00     0.056 A 
ENDBRANCH  12  13
ENDBRANCH  11  12
ENDBRANCH   3  11
TORSDOF 4
ENDMDL
MODEL 3
REMARK VINA RESULT:      -2.8      9.462      9.949
REMARK  4 active torsions:
REMARK  status: ('A' for Active; 'I' for Inactive)
REMARK       I    between atoms: C_4  and  N_10 
REMARK    1  A    between atoms: C_7  and  C_4 
REMARK    2  A    between atoms: C_11  and  C_5 
REMARK    3  A    between atoms: N_10  and  C_13 
REMARK    4  A    between atoms: C_13  and  C_11 
ROOT
ATOM      1  C   UNL d   1      59.724  -9.282  33.843  0.00  0.00     0.279 C 
ATOM      2  O   UNL d   1      60.373  -9.243  33.335  0.00  0.00    -0.265 OA
ATOM      3  N   UNL d   1      58.972  -9.466  33.546  0.00  0.00    -0.206 NA
ENDROOT
BRANCH   1   4
ATOM      4  C   UNL d   1      59.823  -9.134  34.665  0.00  0.00     0.058 A 
ATOM      5  C   UNL d   1      59.439  -8.495  35.019  0.00  0.00     0.005 A 
ATOM      6  C   UNL d   1      59.531  -8.347  35.814  0.00  0.00     0.000 A 
ATOM      7  C   UNL d   1      59.142  -7.705  36.156  0.00  0.00     0.000 C 
ATOM      8  C   UNL d   1      60.010  -8.838  36.267  0.00  0.00     0.000 A 
ATOM      9  C   UNL d   1      60.397  -9.478  35.926  0.00  0.00     0.000 A 
ATOM     10  C   UNL d   1      60.309  -9.633  35.125  0.00  0.00     0.005 A 
ENDBRANCH   1   4
BRANCH   3  11
ATOM     11  C   UNL d   1      58.875  -9.609  32.754  0.00  0.00     0.104 C 
BRANCH  11  12
ATOM     12  C   UNL d   1      58.121  -9.778  32.455  0.00  0.00     0.040 C 
BRANCH  12  13
ATOM     13  C   UNL d   1      57.993  -9.788  31.654  0.00  0.00     0.090 A 
ATOM     14  N   UNL d   1      57.221  -9.798  31.350  0.00  0.00    -0.238 NA
ATOM     15  C   UNL d   1      57.266  -9.806  30.533  0.00  0.00     0.111 A 
ATOM     16  S   UNL d   1      58.056  -9.802  30.318  0.00  0.00    -0.066 SA
ATOM     17  C   UNL d   1      56.622  -9.818  29.996  0.00  0.00     0.028 C 
ATOM     18  C   UNL d   1      58.511  -9.790  31.007  0.00  0.00     0.056 A 
ENDBRANCH  12  13
ENDBRANCH  11  12
ENDBRANCH   3  11
TORSDOF 4
ENDMDL
MODEL 4
REMARK VINA RESULT:      -2.6      2.084      4.890
REMARK  4 active torsions:
REMARK  status: ('A' for Active; 'I' for Inactive)
REMARK       I    between atoms: C_4  and  N_10 
REMARK    1  A    between atoms: C_7  and  C_4 
REMARK    2  A    between atoms: C_11  and  C_5 
REMARK    3  A    between atoms: N_10  and  C_13 
REMARK    4  A    between atoms: C_13  and  C_11 
ROOT
ATOM      1  C   UNL d   1      56.868  -0.644  31.742  0.00  0.00     0.279 C 
ATOM      2  O   UNL d   1      56.596  -1.397  31.940  0.00  0.00    -0.265 OA
ATOM      3  N   UNL d   1      56.639   0.013  32.191  0.00  0.00    -0.206 NA
ENDROOT
BRANCH   1   4
ATOM      4  C   UNL d   1      57.379  -0.541  31.082  0.00  0.00     0.058 A 
ATOM      5  C   UNL d   1      57.734  -1.196  30.727  0.00  0.00     0.005 A 
ATOM      6  C   UNL d   1      58.230  -1.101  30.089  0.00  0.00     0.000 A 
ATOM      7  C   UNL d   1      58.579  -1.765  29.743  0.00  0.00     0.000 C 
ATOM      8  C   UNL d   1      58.378  -0.348  29.795  0.00  0.00     0.000 A 
ATOM      9  C   UNL d   1      58.030   0.312  30.140  0.00  0.00     0.000 A 
ATOM     10  C   UNL d   1      57.530   0.225  30.784  0.00  0.00     0.005 A 
ENDBRANCH   1   4
BRANCH   3  11
ATOM     11  C   UNL d   1      56.146  -0.084  32.828  0.00  0.00     0.104 C 
BRANCH  11  12
ATOM     12  C   UNL d   1      56.286   0.338  33.527  0.00  0.00     0.040 C 
BRANCH  12  13
ATOM     13  C   UNL d   1      55.684   0.463  34.055  0.00  0.00     0.090 A 
ATOM     14  N   UNL d   1      54.896   0.482  33.799  0.00  0.00    -0.238 NA
ATOM     15  C   UNL d   1      54.417   0.616  34.449  0.00  0.00     0.111 A 
ATOM     16  S   UNL d   1      54.893   0.682  35.112  0.00  0.00    -0.066 SA
ATOM     17  C   UNL d   1      53.580   0.678  34.451  0.00  0.00     0.028 C 
ATOM     18  C   UNL d   1      55.679   0.588  34.874  0.00  0.00     0.056 A 
ENDBRANCH  12  13
ENDBRANCH  11  12
ENDBRANCH   3  11
TORSDOF 4
ENDMDL
