MODEL 1
REMARK VINA RESULT:      -7.1      0.000      0.000
REMARK  3 active torsions:
REMARK  status: ('A' for Active; 'I' for Inactive)
REMARK    1  A    between atoms: N_4  and  C_1 
REMARK    2  A    between atoms: C_5  and  C_3 
REMARK       I    between atoms: C_8  and  N_4 
REMARK    3  A    between atoms: C_9  and  C_8 
ROOT
ATOM      1  C   UNL d   1     -41.620-122.635 -51.017  0.00  0.00     0.204 A 
ATOM      2  S   UNL d   1     -41.698-122.983 -51.677  0.00  0.00    -0.031 SA
ATOM      3  C   UNL d   1     -41.486-122.413 -52.329  0.00  0.00     0.119 A 
ATOM      4  N   UNL d   1     -41.354-121.816 -51.141  0.00  0.00    -0.123 NA
ATOM      5  N   UNL d   1     -41.283-121.710 -51.917  0.00  0.00    -0.143 NA
ENDROOT
BRANCH   3   6
ATOM      6  C   UNL d   1     -41.495-122.559 -53.100  0.00  0.00     0.081 A 
ATOM      7  C   UNL d   1     -42.080-121.732 -53.408  0.00  0.00     0.023 A 
ATOM      8  C   UNL d   1     -42.217-121.692 -54.221  0.00  0.00     0.045 A 
ATOM      9  C   UNL d   1     -41.872-122.320 -54.714  0.00  0.00    -0.022 A 
ATOM     10  C   UNL d   1     -41.934-122.327 -55.202  0.00  0.00    -0.022 A 
ATOM     11  C   UNL d   1     -41.429-122.952 -54.504  0.00  0.00    -0.008 A 
ATOM     12  C   UNL d   1     -41.153-123.170 -53.530  0.00  0.00    -0.017 A 
ATOM     13  C   UNL d   1     -41.124-123.515 -54.971  0.00  0.00    -0.001 A 
ATOM     14  C   UNL d   1     -41.524-122.852 -54.719  0.00  0.00    -0.008 A 
ATOM     15  C   UNL d   1     -41.387-122.892 -53.906  0.00  0.00    -0.017 A 
ENDBRANCH   3   6
BRANCH   1  16
ATOM     16  N   UNL d   1     -41.733-122.874 -50.241  0.00  0.00    -0.248 N 
ATOM     17  C   UNL d   1     -42.441-122.780 -49.830  0.00  0.00     0.289 C 
ATOM     18  O   UNL d   1     -43.089-122.419 -50.222  0.00  0.00    -0.264 OA
ATOM     19  C   UNL d   1     -41.132-123.214 -49.860  0.00  0.00     0.104 C 
BRANCH  17  20
ATOM     20  C   UNL d   1     -42.521-123.033 -49.045  0.00  0.00     0.156 A 
ATOM     21  O   UNL d   1     -42.208-122.750 -48.331  0.00  0.00    -0.300 OA
ATOM     22  C   UNL d   1     -42.503-123.261 -47.711  0.00  0.00     0.123 A 
ATOM     23  C   UNL d   1     -42.965-123.817 -48.032  0.00  0.00     0.029 A 
ATOM     24  C   UNL d   1     -42.989-123.697 -48.843  0.00  0.00     0.032 A 
ENDBRANCH  17  20
ENDBRANCH   1  16
TORSDOF 3
ENDMDL
MODEL 2
REMARK VINA RESULT:      -6.5      1.439      4.865
REMARK  3 active torsions:
REMARK  status: ('A' for Active; 'I' for Inactive)
REMARK    1  A    between atoms: N_4  and  C_1 
REMARK    2  A    between atoms: C_5  and  C_3 
REMARK       I    between atoms: C_8  and  N_4 
REMARK    3  A    between atoms: C_9  and  C_8 
ROOT
ATOM      1  C   UNL d   1     -41.472-122.391 -52.383  0.00  0.00     0.204 A 
ATOM      2  S   UNL d   1     -41.686-122.844 -51.825  0.00  0.00    -0.031 SA
ATOM      3  C   UNL d   1     -41.494-122.453 -51.047  0.00  0.00     0.119 A 
ATOM      4  N   UNL d   1     -41.123-121.663 -52.060  0.00  0.00    -0.123 NA
ATOM      5  N   UNL d   1     -41.147-121.723 -51.276  0.00  0.00    -0.143 NA
ENDROOT
BRANCH   3   6
ATOM      6  C   UNL d   1     -41.629-122.743 -50.331  0.00  0.00     0.081 A 
ATOM      7  C   UNL d   1     -42.627-122.407 -50.213  0.00  0.00     0.023 A 
ATOM      8  C   UNL d   1     -42.976-122.614 -49.494  0.00  0.00     0.045 A 
ATOM      9  C   UNL d   1     -42.493-123.074 -48.935  0.00  0.00    -0.022 A 
ATOM     10  C   UNL d   1     -42.670-123.214 -48.498  0.00  0.00    -0.022 A 
ATOM     11  C   UNL d   1     -41.742-123.337 -49.003  0.00  0.00    -0.008 A 
ATOM     12  C   UNL d   1     -41.142-123.176 -49.831  0.00  0.00    -0.017 A 
ATOM     13  C   UNL d   1     -41.318-123.756 -48.479  0.00  0.00    -0.001 A 
ATOM     14  C   UNL d   1     -41.929-123.347 -48.830  0.00  0.00    -0.008 A 
ATOM     15  C   UNL d   1     -41.580-123.139 -49.548  0.00  0.00    -0.017 A 
ENDBRANCH   3   6
BRANCH   1  16
ATOM     16  N   UNL d   1     -41.506-122.453 -53.200  0.00  0.00    -0.248 N 
ATOM     17  C   UNL d   1     -41.912-121.924 -53.685  0.00  0.00     0.289 C 
ATOM     18  O   UNL d   1     -42.317-121.281 -53.329  0.00  0.00    -0.264 OA
ATOM     19  C   UNL d   1     -41.131-123.052 -53.548  0.00  0.00     0.104 C 
BRANCH  17  20
ATOM     20  C   UNL d   1     -41.926-122.017 -54.508  0.00  0.00     0.156 A 
ATOM     21  O   UNL d   1     -41.366-122.305 -55.048  0.00  0.00    -0.300 OA
ATOM     22  C   UNL d   1     -41.723-122.256 -55.824  0.00  0.00     0.123 A 
ATOM     23  C   UNL d   1     -42.452-121.957 -55.756  0.00  0.00     0.029 A 
ATOM     24  C   UNL d   1     -42.596-121.804 -54.963  0.00  0.00     0.032 A 
ENDBRANCH  17  20
ENDBRANCH   1  16
TORSDOF 3
ENDMDL
