MODEL 1
REMARK VINA RESULT:      -5.5      0.000      0.000
REMARK  5 active torsions:
REMARK  status: ('A' for Active; 'I' for Inactive)
REMARK    1  A    between atoms: N_4  and  C_1 
REMARK    2  A    between atoms: S_3  and  C_9 
REMARK       I    between atoms: C_6  and  N_4 
REMARK    3  A    between atoms: C_11  and  C_5 
REMARK    4  A    between atoms: C_10  and  C_6 
REMARK    5  A    between atoms: O_25  and  C_22 
ROOT
ATOM      1  C   UNL d   1     -46.355  13.140  22.919  0.00  0.00     0.197 A 
ATOM      2  N   UNL d   1     -45.683  13.364  22.492  0.00  0.00    -0.221 NA
ATOM      3  C   UNL d   1     -45.177  12.723  22.451  0.00  0.00     0.090 A 
ATOM      4  S   UNL d   1     -46.253  12.360  23.137  0.00  0.00    -0.046 SA
ATOM      5  C   UNL d   1     -45.519  12.107  22.843  0.00  0.00     0.058 A 
ENDROOT
BRANCH   1   6
ATOM      6  N   UNL d   1     -47.039  13.546  23.134  0.00  0.00    -0.183 NA
ATOM      7  C   UNL d   1     -47.642  13.662  22.582  0.00  0.00     0.281 C 
ATOM      8  O   UNL d   1     -47.555  13.372  21.822  0.00  0.00    -0.265 OA
BRANCH   7   9
ATOM      9  C   UNL d   1     -48.326  14.067  22.797  0.00  0.00     0.058 A 
ATOM     10  C   UNL d   1     -48.988  13.654  23.053  0.00  0.00     0.005 A 
ATOM     11  C   UNL d   1     -49.672  14.059  23.268  0.00  0.00     0.011 A 
ATOM     12  C   UNL d   1     -49.695  14.879  23.227  0.00  0.00     0.084 A 
ATOM     13  C   UNL d   1     -49.032  15.296  22.971  0.00  0.00     0.011 A 
ATOM     14  C   UNL d   1     -48.348  14.891  22.755  0.00  0.00     0.005 A 
BRANCH  12  15
ATOM     15  S   UNL d   1     -50.380  15.285  23.443  0.00  0.00     0.191 S 
ATOM     16  O   UNL d   1     -50.838  14.648  23.188  0.00  0.00    -0.222 OA
ATOM     17  O   UNL d   1     -49.922  15.922  23.698  0.00  0.00    -0.222 OA
ATOM     18  C   UNL d   1     -51.064  15.690  23.658  0.00  0.00     0.145 C 
ENDBRANCH  12  15
ENDBRANCH   7   9
ENDBRANCH   1   6
BRANCH   3  19
ATOM     19  C   UNL d   1     -44.448  12.744  22.064  0.00  0.00     0.018 A 
ATOM     20  C   UNL d   1     -43.886  12.147  22.226  0.00  0.00     0.004 A 
ATOM     21  C   UNL d   1     -43.156  12.169  21.838  0.00  0.00     0.024 A 
ATOM     22  C   UNL d   1     -42.976  12.773  21.293  0.00  0.00     0.094 A 
ATOM     23  C   UNL d   1     -43.537  13.358  21.139  0.00  0.00     0.024 A 
ATOM     24  C   UNL d   1     -44.272  13.338  21.529  0.00  0.00     0.004 A 
BRANCH  22  25
ATOM     25  O   UNL d   1     -42.237  12.790  20.905  0.00  0.00    -0.328 OA
ATOM     26  C   UNL d   1     -41.771  13.478  20.921  0.00  0.00     0.181 C 
ENDBRANCH  22  25
ENDBRANCH   3  19
TORSDOF 5
ENDMDL
MODEL 2
REMARK VINA RESULT:      -4.3      1.842      2.950
REMARK  5 active torsions:
REMARK  status: ('A' for Active; 'I' for Inactive)
REMARK    1  A    between atoms: N_4  and  C_1 
REMARK    2  A    between atoms: S_3  and  C_9 
REMARK       I    between atoms: C_6  and  N_4 
REMARK    3  A    between atoms: C_11  and  C_5 
REMARK    4  A    between atoms: C_10  and  C_6 
REMARK    5  A    between atoms: O_25  and  C_22 
ROOT
ATOM      1  C   UNL d   1     -43.899  12.763  21.725  0.00  0.00     0.197 A 
ATOM      2  N   UNL d   1     -43.487  13.368  21.340  0.00  0.00    -0.221 NA
ATOM      3  C   UNL d   1     -42.695  13.163  21.310  0.00  0.00     0.090 A 
ATOM      4  S   UNL d   1     -43.353  12.192  21.929  0.00  0.00    -0.046 SA
ATOM      5  C   UNL d   1     -42.607  12.446  21.668  0.00  0.00     0.058 A 
ENDROOT
BRANCH   1   6
ATOM      6  N   UNL d   1     -44.695  12.664  21.914  0.00  0.00    -0.183 NA
ATOM      7  C   UNL d   1     -45.131  13.299  22.211  0.00  0.00     0.281 C 
ATOM      8  O   UNL d   1     -44.769  14.024  22.316  0.00  0.00    -0.265 OA
BRANCH   7   9
ATOM      9  C   UNL d   1     -45.927  13.200  22.400  0.00  0.00     0.058 A 
ATOM     10  C   UNL d   1     -46.509  13.408  21.859  0.00  0.00     0.005 A 
ATOM     11  C   UNL d   1     -47.305  13.309  22.047  0.00  0.00     0.011 A 
ATOM     12  C   UNL d   1     -47.520  13.001  22.777  0.00  0.00     0.084 A 
ATOM     13  C   UNL d   1     -46.938  12.792  23.322  0.00  0.00     0.011 A 
ATOM     14  C   UNL d   1     -46.142  12.891  23.134  0.00  0.00     0.005 A 
BRANCH  12  15
ATOM     15  S   UNL d   1     -48.317  12.902  22.966  0.00  0.00     0.191 S 
ATOM     16  O   UNL d   1     -48.261  12.101  22.780  0.00  0.00    -0.222 OA
ATOM     17  O   UNL d   1     -48.373  13.704  23.152  0.00  0.00    -0.222 OA
ATOM     18  C   UNL d   1     -49.113  12.803  23.155  0.00  0.00     0.145 C 
ENDBRANCH  12  15
ENDBRANCH   7   9
ENDBRANCH   1   6
BRANCH   3  19
ATOM     19  C   UNL d   1     -42.116  13.638  20.963  0.00  0.00     0.018 A 
ATOM     20  C   UNL d   1     -41.617  14.093  21.454  0.00  0.00     0.004 A 
ATOM     21  C   UNL d   1     -41.037  14.569  21.106  0.00  0.00     0.024 A 
ATOM     22  C   UNL d   1     -40.946  14.599  20.278  0.00  0.00     0.094 A 
ATOM     23  C   UNL d   1     -41.443  14.147  19.800  0.00  0.00     0.024 A 
ATOM     24  C   UNL d   1     -42.028  13.667  20.149  0.00  0.00     0.004 A 
BRANCH  22  25
ATOM     25  O   UNL d   1     -40.359  15.082  19.932  0.00  0.00    -0.328 OA
ATOM     26  C   UNL d   1     -40.469  15.905  19.884  0.00  0.00     0.181 C 
ENDBRANCH  22  25
ENDBRANCH   3  19
TORSDOF 5
ENDMDL
MODEL 3
REMARK VINA RESULT:      -3.9      1.199      6.054
REMARK  5 active torsions:
REMARK  status: ('A' for Active; 'I' for Inactive)
REMARK    1  A    between atoms: N_4  and  C_1 
REMARK    2  A    between atoms: S_3  and  C_9 
REMARK       I    between atoms: C_6  and  N_4 
REMARK    3  A    between atoms: C_11  and  C_5 
REMARK    4  A    between atoms: C_10  and  C_6 
REMARK    5  A    between atoms: O_25  and  C_22 
ROOT
ATOM      1  C   UNL d   1     -47.191  12.856  22.545  0.00  0.00     0.197 A 
ATOM      2  N   UNL d   1     -47.737  13.475  22.590  0.00  0.00    -0.221 NA
ATOM      3  C   UNL d   1     -48.395  13.211  22.999  0.00  0.00     0.090 A 
ATOM      4  S   UNL d   1     -47.521  12.215  22.929  0.00  0.00    -0.046 SA
ATOM      5  C   UNL d   1     -48.269  12.442  23.208  0.00  0.00     0.058 A 
ENDROOT
BRANCH   1   6
ATOM      6  N   UNL d   1     -46.442  12.797  22.206  0.00  0.00    -0.183 NA
ATOM      7  C   UNL d   1     -45.795  13.162  22.567  0.00  0.00     0.281 C 
ATOM      8  O   UNL d   1     -45.903  13.580  23.261  0.00  0.00    -0.265 OA
BRANCH   7   9
ATOM      9  C   UNL d   1     -45.047  13.103  22.228  0.00  0.00     0.058 A 
ATOM     10  C   UNL d   1     -44.732  13.735  21.809  0.00  0.00     0.005 A 
ATOM     11  C   UNL d   1     -43.983  13.676  21.471  0.00  0.00     0.011 A 
ATOM     12  C   UNL d   1     -43.548  12.984  21.550  0.00  0.00     0.084 A 
ATOM     13  C   UNL d   1     -43.862  12.348  21.970  0.00  0.00     0.011 A 
ATOM     14  C   UNL d   1     -44.610  12.407  22.309  0.00  0.00     0.005 A 
BRANCH  12  15
ATOM     15  S   UNL d   1     -42.798  12.925  21.211  0.00  0.00     0.191 S 
ATOM     16  O   UNL d   1     -42.467  13.263  21.885  0.00  0.00    -0.222 OA
ATOM     17  O   UNL d   1     -43.131  12.587  20.536  0.00  0.00    -0.222 OA
ATOM     18  C   UNL d   1     -42.050  12.866  20.872  0.00  0.00     0.145 C 
ENDBRANCH  12  15
ENDBRANCH   7   9
ENDBRANCH   1   6
BRANCH   3  19
ATOM     19  C   UNL d   1     -49.055  13.683  23.150  0.00  0.00     0.018 A 
ATOM     20  C   UNL d   1     -49.807  13.323  23.202  0.00  0.00     0.004 A 
ATOM     21  C   UNL d   1     -50.468  13.796  23.354  0.00  0.00     0.024 A 
ATOM     22  C   UNL d   1     -50.393  14.620  23.454  0.00  0.00     0.094 A 
ATOM     23  C   UNL d   1     -49.647  14.967  23.401  0.00  0.00     0.024 A 
ATOM     24  C   UNL d   1     -48.980  14.493  23.249  0.00  0.00     0.004 A 
BRANCH  22  25
ATOM     25  O   UNL d   1     -51.064  15.092  23.607  0.00  0.00    -0.328 OA
ATOM     26  C   UNL d   1     -50.985  15.916  23.691  0.00  0.00     0.181 C 
ENDBRANCH  22  25
ENDBRANCH   3  19
TORSDOF 5
ENDMDL
MODEL 4
REMARK VINA RESULT:      -3.9      2.718      4.851
REMARK  5 active torsions:
REMARK  status: ('A' for Active; 'I' for Inactive)
REMARK    1  A    between atoms: N_4  and  C_1 
REMARK    2  A    between atoms: S_3  and  C_9 
REMARK       I    between atoms: C_6  and  N_4 
REMARK    3  A    between atoms: C_11  and  C_5 
REMARK    4  A    between atoms: C_10  and  C_6 
REMARK    5  A    between atoms: O_25  and  C_22 
ROOT
ATOM      1  C   UNL d   1     -42.154  13.840  21.180  0.00  0.00     0.197 A 
ATOM      2  N   UNL d   1     -41.969  14.243  20.482  0.00  0.00    -0.221 NA
ATOM      3  C   UNL d   1     -41.162  14.188  20.358  0.00  0.00     0.090 A 
ATOM      4  S   UNL d   1     -41.456  13.540  21.478  0.00  0.00    -0.046 SA
ATOM      5  C   UNL d   1     -40.843  13.760  20.962  0.00  0.00     0.058 A 
ENDROOT
BRANCH   1   6
ATOM      6  N   UNL d   1     -42.865  13.710  21.576  0.00  0.00    -0.183 NA
ATOM      7  C   UNL d   1     -43.347  13.074  21.363  0.00  0.00     0.281 C 
ATOM      8  O   UNL d   1     -43.115  12.577  20.757  0.00  0.00    -0.265 OA
BRANCH   7   9
ATOM      9  C   UNL d   1     -44.058  12.944  21.759  0.00  0.00     0.058 A 
ATOM     10  C   UNL d   1     -44.655  13.507  21.731  0.00  0.00     0.005 A 
ATOM     11  C   UNL d   1     -45.366  13.377  22.128  0.00  0.00     0.011 A 
ATOM     12  C   UNL d   1     -45.479  12.685  22.553  0.00  0.00     0.084 A 
ATOM     13  C   UNL d   1     -44.881  12.118  22.583  0.00  0.00     0.011 A 
ATOM     14  C   UNL d   1     -44.171  12.248  22.186  0.00  0.00     0.005 A 
BRANCH  12  15
ATOM     15  S   UNL d   1     -46.191  12.555  22.950  0.00  0.00     0.191 S 
ATOM     16  O   UNL d   1     -45.775  12.271  23.602  0.00  0.00    -0.222 OA
ATOM     17  O   UNL d   1     -46.607  12.839  22.297  0.00  0.00    -0.222 OA
ATOM     18  C   UNL d   1     -46.901  12.425  23.347  0.00  0.00     0.145 C 
ENDBRANCH  12  15
ENDBRANCH   7   9
ENDBRANCH   1   6
BRANCH   3  19
ATOM     19  C   UNL d   1     -40.779  14.527  19.710  0.00  0.00     0.018 A 
ATOM     20  C   UNL d   1     -40.544  15.328  19.752  0.00  0.00     0.004 A 
ATOM     21  C   UNL d   1     -40.160  15.667  19.104  0.00  0.00     0.024 A 
ATOM     22  C   UNL d   1     -40.005  15.224  18.415  0.00  0.00     0.094 A 
ATOM     23  C   UNL d   1     -40.240  14.433  18.382  0.00  0.00     0.024 A 
ATOM     24  C   UNL d   1     -40.627  14.090  19.034  0.00  0.00     0.004 A 
BRANCH  22  25
ATOM     25  O   UNL d   1     -39.617  15.572  17.763  0.00  0.00    -0.328 OA
ATOM     26  C   UNL d   1     -40.028  15.704  17.053  0.00  0.00     0.181 C 
ENDBRANCH  22  25
ENDBRANCH   3  19
TORSDOF 5
ENDMDL
MODEL 5
REMARK VINA RESULT:      -3.7      1.741      6.192
REMARK  5 active torsions:
REMARK  status: ('A' for Active; 'I' for Inactive)
REMARK    1  A    between atoms: N_4  and  C_1 
REMARK    2  A    between atoms: S_3  and  C_9 
REMARK       I    between atoms: C_6  and  N_4 
REMARK    3  A    between atoms: C_11  and  C_5 
REMARK    4  A    between atoms: C_10  and  C_6 
REMARK    5  A    between atoms: O_25  and  C_22 
ROOT
ATOM      1  C   UNL d   1     -45.561  13.271  22.350  0.00  0.00     0.197 A 
ATOM      2  N   UNL d   1     -46.255  13.496  21.961  0.00  0.00    -0.221 NA
ATOM      3  C   UNL d   1     -46.891  13.154  22.346  0.00  0.00     0.090 A 
ATOM      4  S   UNL d   1     -45.780  12.791  22.973  0.00  0.00    -0.046 SA
ATOM      5  C   UNL d   1     -46.607  12.723  22.965  0.00  0.00     0.058 A 
ENDROOT
BRANCH   1   6
ATOM      6  N   UNL d   1     -44.766  13.442  22.215  0.00  0.00    -0.183 NA
ATOM      7  C   UNL d   1     -44.369  13.087  21.585  0.00  0.00     0.281 C 
ATOM      8  O   UNL d   1     -44.768  12.567  21.097  0.00  0.00    -0.265 OA
BRANCH   7   9
ATOM      9  C   UNL d   1     -43.574  13.258  21.450  0.00  0.00     0.058 A 
ATOM     10  C   UNL d   1     -43.019  12.653  21.433  0.00  0.00     0.005 A 
ATOM     11  C   UNL d   1     -42.224  12.823  21.299  0.00  0.00     0.011 A 
ATOM     12  C   UNL d   1     -41.983  13.599  21.181  0.00  0.00     0.084 A 
ATOM     13  C   UNL d   1     -42.539  14.208  21.197  0.00  0.00     0.011 A 
ATOM     14  C   UNL d   1     -43.334  14.038  21.332  0.00  0.00     0.005 A 
BRANCH  12  15
ATOM     15  S   UNL d   1     -41.188  13.770  21.046  0.00  0.00     0.191 S 
ATOM     16  O   UNL d   1     -41.002  13.503  21.803  0.00  0.00    -0.222 OA
ATOM     17  O   UNL d   1     -41.374  14.038  20.288  0.00  0.00    -0.222 OA
ATOM     18  C   UNL d   1     -40.393  13.941  20.911  0.00  0.00     0.145 C 
ENDBRANCH  12  15
ENDBRANCH   7   9
ENDBRANCH   1   6
BRANCH   3  19
ATOM     19  C   UNL d   1     -47.675  13.258  22.109  0.00  0.00     0.018 A 
ATOM     20  C   UNL d   1     -48.094  13.929  22.379  0.00  0.00     0.004 A 
ATOM     21  C   UNL d   1     -48.879  14.033  22.142  0.00  0.00     0.024 A 
ATOM     22  C   UNL d   1     -49.253  13.482  21.641  0.00  0.00     0.094 A 
ATOM     23  C   UNL d   1     -48.833  12.822  21.380  0.00  0.00     0.024 A 
ATOM     24  C   UNL d   1     -48.042  12.716  21.618  0.00  0.00     0.004 A 
BRANCH  22  25
ATOM     25  O   UNL d   1     -50.047  13.592  21.405  0.00  0.00    -0.328 OA
ATOM     26  C   UNL d   1     -50.668  13.303  21.877  0.00  0.00     0.181 C 
ENDBRANCH  22  25
ENDBRANCH   3  19
TORSDOF 5
ENDMDL
MODEL 6
REMARK VINA RESULT:      -3.6      1.503      2.138
REMARK  5 active torsions:
REMARK  status: ('A' for Active; 'I' for Inactive)
REMARK    1  A    between atoms: N_4  and  C_1 
REMARK    2  A    between atoms: S_3  and  C_9 
REMARK       I    between atoms: C_6  and  N_4 
REMARK    3  A    between atoms: C_11  and  C_5 
REMARK    4  A    between atoms: C_10  and  C_6 
REMARK    5  A    between atoms: O_25  and  C_22 
ROOT
ATOM      1  C   UNL d   1     -46.473  12.932  22.550  0.00  0.00     0.197 A 
ATOM      2  N   UNL d   1     -46.173  12.244  22.899  0.00  0.00    -0.221 NA
ATOM      3  C   UNL d   1     -45.384  12.174  22.697  0.00  0.00     0.090 A 
ATOM      4  S   UNL d   1     -45.860  13.277  22.135  0.00  0.00    -0.046 SA
ATOM      5  C   UNL d   1     -45.187  12.802  22.230  0.00  0.00     0.058 A 
ENDROOT
BRANCH   1   6
ATOM      6  N   UNL d   1     -47.219  13.281  22.559  0.00  0.00    -0.183 NA
ATOM      7  C   UNL d   1     -47.332  14.003  22.945  0.00  0.00     0.281 C 
ATOM      8  O   UNL d   1     -46.701  14.366  23.316  0.00  0.00    -0.265 OA
BRANCH   7   9
ATOM      9  C   UNL d   1     -48.078  14.352  22.953  0.00  0.00     0.058 A 
ATOM     10  C   UNL d   1     -48.160  15.156  22.802  0.00  0.00     0.005 A 
ATOM     11  C   UNL d   1     -48.906  15.505  22.811  0.00  0.00     0.011 A 
ATOM     12  C   UNL d   1     -49.571  15.052  22.971  0.00  0.00     0.084 A 
ATOM     13  C   UNL d   1     -49.492  14.246  23.124  0.00  0.00     0.011 A 
ATOM     14  C   UNL d   1     -48.746  13.896  23.115  0.00  0.00     0.005 A 
BRANCH  12  15
ATOM     15  S   UNL d   1     -50.318  15.403  22.980  0.00  0.00     0.191 S 
ATOM     16  O   UNL d   1     -50.144  15.792  22.275  0.00  0.00    -0.222 OA
ATOM     17  O   UNL d   1     -50.492  15.013  23.686  0.00  0.00    -0.222 OA
ATOM     18  C   UNL d   1     -51.064  15.752  22.989  0.00  0.00     0.145 C 
ENDBRANCH  12  15
ENDBRANCH   7   9
ENDBRANCH   1   6
BRANCH   3  19
ATOM     19  C   UNL d   1     -44.904  11.551  22.948  0.00  0.00     0.018 A 
ATOM     20  C   UNL d   1     -44.095  11.552  22.740  0.00  0.00     0.004 A 
ATOM     21  C   UNL d   1     -43.615  10.928  22.992  0.00  0.00     0.024 A 
ATOM     22  C   UNL d   1     -43.927  10.303  23.446  0.00  0.00     0.094 A 
ATOM     23  C   UNL d   1     -44.727  10.309  23.648  0.00  0.00     0.024 A 
ATOM     24  C   UNL d   1     -45.212  10.937  23.395  0.00  0.00     0.004 A 
BRANCH  22  25
ATOM     25  O   UNL d   1     -43.437   9.675  23.698  0.00  0.00    -0.328 OA
ATOM     26  C   UNL d   1     -43.676   8.886  23.584  0.00  0.00     0.181 C 
ENDBRANCH  22  25
ENDBRANCH   3  19
TORSDOF 5
ENDMDL
MODEL 7
REMARK VINA RESULT:      -3.5      4.613      8.844
REMARK  5 active torsions:
REMARK  status: ('A' for Active; 'I' for Inactive)
REMARK    1  A    between atoms: N_4  and  C_1 
REMARK    2  A    between atoms: S_3  and  C_9 
REMARK       I    between atoms: C_6  and  N_4 
REMARK    3  A    between atoms: C_11  and  C_5 
REMARK    4  A    between atoms: C_10  and  C_6 
REMARK    5  A    between atoms: O_25  and  C_22 
ROOT
ATOM      1  C   UNL d   1     -40.528  14.490  19.842  0.00  0.00     0.197 A 
ATOM      2  N   UNL d   1     -41.232  14.066  19.932  0.00  0.00    -0.221 NA
ATOM      3  C   UNL d   1     -41.407  14.023  20.731  0.00  0.00     0.090 A 
ATOM      4  S   UNL d   1     -40.278  14.705  20.589  0.00  0.00    -0.046 SA
ATOM      5  C   UNL d   1     -40.829  14.412  21.136  0.00  0.00     0.058 A 
ENDROOT
BRANCH   1   6
ATOM      6  N   UNL d   1     -40.089  14.705  19.178  0.00  0.00    -0.183 NA
ATOM      7  C   UNL d   1     -40.196  14.305  18.464  0.00  0.00     0.281 C 
ATOM      8  O   UNL d   1     -40.739  13.695  18.420  0.00  0.00    -0.265 OA
BRANCH   7   9
ATOM      9  C   UNL d   1     -39.757  14.520  17.801  0.00  0.00     0.058 A 
ATOM     10  C   UNL d   1     -40.093  14.990  17.218  0.00  0.00     0.005 A 
ATOM     11  C   UNL d   1     -39.654  15.205  16.554  0.00  0.00     0.011 A 
ATOM     12  C   UNL d   1     -38.878  14.950  16.474  0.00  0.00     0.084 A 
ATOM     13  C   UNL d   1     -38.538  14.478  17.058  0.00  0.00     0.011 A 
ATOM     14  C   UNL d   1     -38.977  14.263  17.721  0.00  0.00     0.005 A 
BRANCH  12  15
ATOM     15  S   UNL d   1     -38.438  15.166  15.810  0.00  0.00     0.191 S 
ATOM     16  O   UNL d   1     -38.109  14.410  15.783  0.00  0.00    -0.222 OA
ATOM     17  O   UNL d   1     -38.767  15.922  15.837  0.00  0.00    -0.222 OA
ATOM     18  C   UNL d   1     -37.999  15.381  15.147  0.00  0.00     0.145 C 
ENDBRANCH  12  15
ENDBRANCH   7   9
ENDBRANCH   1   6
BRANCH   3  19
ATOM     19  C   UNL d   1     -42.074  13.639  21.029  0.00  0.00     0.018 A 
ATOM     20  C   UNL d   1     -42.784  14.070  21.122  0.00  0.00     0.004 A 
ATOM     21  C   UNL d   1     -43.451  13.685  21.421  0.00  0.00     0.024 A 
ATOM     22  C   UNL d   1     -43.424  12.879  21.628  0.00  0.00     0.094 A 
ATOM     23  C   UNL d   1     -42.720  12.459  21.534  0.00  0.00     0.024 A 
ATOM     24  C   UNL d   1     -42.047  12.846  21.233  0.00  0.00     0.004 A 
BRANCH  22  25
ATOM     25  O   UNL d   1     -44.102  12.494  21.930  0.00  0.00    -0.328 OA
ATOM     26  C   UNL d   1     -44.854  12.835  21.832  0.00  0.00     0.181 C 
ENDBRANCH  22  25
ENDBRANCH   3  19
TORSDOF 5
ENDMDL
MODEL 8
REMARK VINA RESULT:      -3.5      2.491      7.002
REMARK  5 active torsions:
REMARK  status: ('A' for Active; 'I' for Inactive)
REMARK    1  A    between atoms: N_4  and  C_1 
REMARK    2  A    between atoms: S_3  and  C_9 
REMARK       I    between atoms: C_6  and  N_4 
REMARK    3  A    between atoms: C_11  and  C_5 
REMARK    4  A    between atoms: C_10  and  C_6 
REMARK    5  A    between atoms: O_25  and  C_22 
ROOT
ATOM      1  C   UNL d   1     -43.217  12.929  21.347  0.00  0.00     0.197 A 
ATOM      2  N   UNL d   1     -43.937  13.298  21.517  0.00  0.00    -0.221 NA
ATOM      3  C   UNL d   1     -44.363  12.815  22.021  0.00  0.00     0.090 A 
ATOM      4  S   UNL d   1     -43.209  12.219  21.750  0.00  0.00    -0.046 SA
ATOM      5  C   UNL d   1     -43.924  12.154  22.167  0.00  0.00     0.058 A 
ENDROOT
BRANCH   1   6
ATOM      6  N   UNL d   1     -42.575  13.149  20.879  0.00  0.00    -0.183 NA
ATOM      7  C   UNL d   1     -42.118  13.805  21.087  0.00  0.00     0.281 C 
ATOM      8  O   UNL d   1     -42.307  14.233  21.757  0.00  0.00    -0.265 OA
BRANCH   7   9
ATOM      9  C   UNL d   1     -41.476  14.025  20.620  0.00  0.00     0.058 A 
ATOM     10  C   UNL d   1     -41.555  14.068  19.803  0.00  0.00     0.005 A 
ATOM     11  C   UNL d   1     -40.913  14.288  19.336  0.00  0.00     0.011 A 
ATOM     12  C   UNL d   1     -40.192  14.465  19.684  0.00  0.00     0.084 A 
ATOM     13  C   UNL d   1     -40.110  14.423  20.504  0.00  0.00     0.011 A 
ATOM     14  C   UNL d   1     -40.752  14.203  20.971  0.00  0.00     0.005 A 
BRANCH  12  15
ATOM     15  S   UNL d   1     -39.549  14.685  19.217  0.00  0.00     0.191 S 
ATOM     16  O   UNL d   1     -39.270  13.910  19.235  0.00  0.00    -0.222 OA
ATOM     17  O   UNL d   1     -39.828  15.461  19.198  0.00  0.00    -0.222 OA
ATOM     18  C   UNL d   1     -38.907  14.905  18.749  0.00  0.00     0.145 C 
ENDBRANCH  12  15
ENDBRANCH   7   9
ENDBRANCH   1   6
BRANCH   3  19
ATOM     19  C   UNL d   1     -45.112  13.007  22.309  0.00  0.00     0.018 A 
ATOM     20  C   UNL d   1     -45.550  12.426  22.721  0.00  0.00     0.004 A 
ATOM     21  C   UNL d   1     -46.300  12.619  23.010  0.00  0.00     0.024 A 
ATOM     22  C   UNL d   1     -46.622  13.379  22.895  0.00  0.00     0.094 A 
ATOM     23  C   UNL d   1     -46.184  13.947  22.487  0.00  0.00     0.024 A 
ATOM     24  C   UNL d   1     -45.428  13.754  22.196  0.00  0.00     0.004 A 
BRANCH  22  25
ATOM     25  O   UNL d   1     -47.381  13.568  23.188  0.00  0.00    -0.328 OA
ATOM     26  C   UNL d   1     -47.929  13.965  22.705  0.00  0.00     0.181 C 
ENDBRANCH  22  25
ENDBRANCH   3  19
TORSDOF 5
ENDMDL
