MODEL 1
REMARK VINA RESULT:      27.4      0.000      0.000
REMARK  4 active torsions:
REMARK  status: ('A' for Active; 'I' for Inactive)
REMARK    1  A    between atoms: C_2  and  C_1 
REMARK       I    between atoms: N_3  and  C_1 
REMARK       I    between atoms: N_4  and  C_2 
REMARK    2  A    between atoms: C_8  and  N_3 
REMARK    3  A    between atoms: C_9  and  N_4 
REMARK    4  A    between atoms: C_10  and  C_9 
ROOT
ATOM      1  C   UNL d   1     -55.549 -99.301 -45.102  0.00  0.00     0.337 C 
ATOM      2  N   UNL d   1     -55.241-100.046 -45.279  0.00  0.00    -0.204 NA
ATOM      3  O   UNL d   1     -55.681 -98.756 -45.707  0.00  0.00    -0.260 OA
ENDROOT
BRANCH   1   4
ATOM      4  C   UNL d   1     -55.723 -99.103 -44.324  0.00  0.00     0.337 C 
ATOM      5  N   UNL d   1     -56.494 -98.881 -44.115  0.00  0.00    -0.201 NA
ATOM      6  O   UNL d   1     -55.132 -99.125 -43.749  0.00  0.00    -0.260 OA
BRANCH   5   7
ATOM      7  C   UNL d   1     -57.085 -98.860 -44.690  0.00  0.00     0.121 C 
BRANCH   7   8
ATOM      8  C   UNL d   1     -57.870 -98.852 -44.475  0.00  0.00     0.101 A 
ATOM      9  N   UNL d   1     -58.450 -98.766 -45.057  0.00  0.00    -0.242 NA
ATOM     10  C   UNL d   1     -59.248 -98.757 -44.846  0.00  0.00     0.099 A 
ATOM     11  C   UNL d   1     -59.465 -98.835 -44.059  0.00  0.00     0.021 A 
ATOM     12  C   UNL d   1     -58.885 -98.921 -43.477  0.00  0.00     0.003 A 
ATOM     13  C   UNL d   1     -58.087 -98.930 -43.688  0.00  0.00     0.021 A 
ENDBRANCH   7   8
ENDBRANCH   5   7
ENDBRANCH   1   4
BRANCH   2  14
ATOM     14  C   UNL d   1     -55.109-100.591 -44.674  0.00  0.00     0.085 A 
ATOM     15  C   UNL d   1     -55.079-100.338 -43.889  0.00  0.00     0.019 A 
ATOM     16  C   UNL d   1     -54.948-100.883 -43.284  0.00  0.00     0.002 A 
ATOM     17  C   UNL d   1     -54.845-101.681 -43.464  0.00  0.00     0.000 A 
ATOM     18  C   UNL d   1     -54.875-101.929 -44.242  0.00  0.00     0.002 A 
ATOM     19  C   UNL d   1     -54.713-102.227 -42.859  0.00  0.00     0.000 C 
ATOM     20  C   UNL d   1     -55.007-101.384 -44.847  0.00  0.00     0.019 A 
ENDBRANCH   2  14
TORSDOF 4
ENDMDL
MODEL 2
REMARK VINA RESULT:      30.3      0.822      4.086
REMARK  4 active torsions:
REMARK  status: ('A' for Active; 'I' for Inactive)
REMARK    1  A    between atoms: C_2  and  C_1 
REMARK       I    between atoms: N_3  and  C_1 
REMARK       I    between atoms: N_4  and  C_2 
REMARK    2  A    between atoms: C_8  and  N_3 
REMARK    3  A    between atoms: C_9  and  N_4 
REMARK    4  A    between atoms: C_10  and  C_9 
ROOT
ATOM      1  C   UNL d   1     -56.425 -98.924 -43.724  0.00  0.00     0.337 C 
ATOM      2  N   UNL d   1     -57.171 -98.762 -43.410  0.00  0.00    -0.204 NA
ATOM      3  O   UNL d   1     -55.756 -98.875 -43.243  0.00  0.00    -0.260 OA
ENDROOT
BRANCH   1   4
ATOM      4  C   UNL d   1     -56.348 -99.133 -44.515  0.00  0.00     0.337 C 
ATOM      5  N   UNL d   1     -55.804 -99.716 -44.740  0.00  0.00    -0.201 NA
ATOM      6  O   UNL d   1     -56.814 -98.764 -45.087  0.00  0.00    -0.260 OA
BRANCH   5   7
ATOM      7  C   UNL d   1     -55.338-100.085 -44.167  0.00  0.00     0.121 C 
BRANCH   7   8
ATOM      8  C   UNL d   1     -55.154-100.875 -44.231  0.00  0.00     0.101 A 
ATOM      9  N   UNL d   1     -55.228-101.364 -43.570  0.00  0.00    -0.242 NA
ATOM     10  C   UNL d   1     -55.042-102.167 -43.628  0.00  0.00     0.099 A 
ATOM     11  C   UNL d   1     -54.785-102.478 -44.342  0.00  0.00     0.021 A 
ATOM     12  C   UNL d   1     -54.712-101.989 -45.003  0.00  0.00     0.003 A 
ATOM     13  C   UNL d   1     -54.897-101.186 -44.945  0.00  0.00     0.021 A 
ENDBRANCH   7   8
ENDBRANCH   5   7
ENDBRANCH   1   4
BRANCH   2  14
ATOM     14  C   UNL d   1     -57.839 -98.811 -43.892  0.00  0.00     0.085 A 
ATOM     15  C   UNL d   1     -57.762 -98.755 -44.712  0.00  0.00     0.019 A 
ATOM     16  C   UNL d   1     -58.430 -98.804 -45.193  0.00  0.00     0.002 A 
ATOM     17  C   UNL d   1     -59.176 -98.909 -44.854  0.00  0.00     0.000 A 
ATOM     18  C   UNL d   1     -59.248 -98.964 -44.042  0.00  0.00     0.002 A 
ATOM     19  C   UNL d   1     -59.844 -98.958 -45.335  0.00  0.00     0.000 C 
ATOM     20  C   UNL d   1     -58.580 -98.915 -43.561  0.00  0.00     0.019 A 
ENDBRANCH   2  14
TORSDOF 4
ENDMDL
