MODEL 1
REMARK VINA RESULT:      17.0      0.000      0.000
REMARK  4 active torsions:
REMARK  status: ('A' for Active; 'I' for Inactive)
REMARK    1  A    between atoms: C_10  and  N_1 
REMARK       I    between atoms: C_3  and  N_9 
REMARK    2  A    between atoms: C_6  and  C_3 
REMARK    3  A    between atoms: N_9  and  C_11 
REMARK    4  A    between atoms: C_11  and  C_10 
ROOT
ATOM      1  N   UNL d   1      13.146  12.444  -3.381  0.00  0.00    -0.303 N 
ATOM      2  C   UNL d   1      13.161  11.781  -3.877  0.00  0.00     0.080 A 
ATOM      3  C   UNL d   1      13.130  13.119  -3.865  0.00  0.00     0.064 A 
ATOM      4  C   UNL d   1      13.154  12.043  -4.657  0.00  0.00     0.021 A 
ATOM      5  C   UNL d   1      13.135  12.868  -4.653  0.00  0.00     0.018 A 
ATOM      6  C   UNL d   1      13.111  13.918  -3.678  0.00  0.00     0.018 A 
ATOM      7  C   UNL d   1      13.121  13.431  -5.254  0.00  0.00     0.002 A 
ATOM      8  C   UNL d   1      13.097  14.481  -4.278  0.00  0.00     0.002 A 
ATOM      9  C   UNL d   1      13.102  14.244  -5.079  0.00  0.00     0.000 A 
ENDROOT
BRANCH   1  10
ATOM     10  C   UNL d   1      13.147  12.431  -2.556  0.00  0.00     0.101 C 
BRANCH  10  11
ATOM     11  C   UNL d   1      13.788  12.110  -2.150  0.00  0.00     0.121 C 
BRANCH  11  12
ATOM     12  N   UNL d   1      13.690  11.834  -1.379  0.00  0.00    -0.209 NA
ATOM     13  C   UNL d   1      14.213  12.063  -0.786  0.00  0.00     0.255 C 
ATOM     14  O   UNL d   1      14.116  11.787  -0.014  0.00  0.00    -0.270 OA
BRANCH  13  15
ATOM     15  C   UNL d   1      14.842  12.574  -0.966  0.00  0.00     0.073 C 
ATOM     16  C   UNL d   1      15.086  12.061  -1.571  0.00  0.00     0.009 C 
ATOM     17  C   UNL d   1      15.463  13.084  -1.141  0.00  0.00     0.009 C 
ATOM     18  C   UNL d   1      14.592  13.077  -0.364  0.00  0.00     0.009 C 
ENDBRANCH  13  15
ENDBRANCH  11  12
ENDBRANCH  10  11
ENDBRANCH   1  10
TORSDOF 4
ENDMDL
