MODEL 1
REMARK VINA RESULT:      17.8      0.000      0.000
REMARK  2 active torsions:
REMARK  status: ('A' for Active; 'I' for Inactive)
REMARK    1  A    between atoms: C_6  and  C_1 
REMARK    2  A    between atoms: O_10  and  C_6 
ROOT
ATOM      1  C   UNL d   1     -57.012 -98.843 -44.615  0.00  0.00     0.096 A 
ATOM      2  S   UNL d   1     -57.510 -98.814 -45.284  0.00  0.00    -0.040 SA
ATOM      3  C   UNL d   1     -58.333 -98.785 -45.184  0.00  0.00     0.226 A 
ATOM      4  C   UNL d   1     -57.343 -98.843 -43.855  0.00  0.00     0.012 A 
ATOM      5  C   UNL d   1     -58.160 -98.814 -43.759  0.00  0.00     0.004 A 
ATOM      6  C   UNL d   1     -58.653 -98.786 -44.420  0.00  0.00     0.045 A 
ATOM      7  O   UNL d   1     -58.825 -98.757 -45.845  0.00  0.00    -0.279 OA
ATOM      8  C   UNL d   1     -58.485 -98.814 -43.003  0.00  0.00     0.000 A 
ATOM      9  C   UNL d   1     -59.475 -98.757 -44.332  0.00  0.00     0.004 A 
ATOM     10  C   UNL d   1     -59.303 -98.785 -42.907  0.00  0.00     0.000 A 
ATOM     11  C   UNL d   1     -59.800 -98.756 -43.576  0.00  0.00     0.000 A 
ENDROOT
BRANCH   1  12
ATOM     12  C   UNL d   1     -56.196 -98.872 -44.720  0.00  0.00     0.302 C 
ATOM     13  O   UNL d   1     -55.887 -98.927 -45.483  0.00  0.00    -0.259 OA
BRANCH  12  14
ATOM     14  O   UNL d   1     -55.686 -98.846 -44.079  0.00  0.00    -0.295 OA
ATOM     15  C   UNL d   1     -54.863 -98.881 -44.207  0.00  0.00     0.185 C 
ENDBRANCH  12  14
ENDBRANCH   1  12
TORSDOF 2
ENDMDL
MODEL 2
REMARK VINA RESULT:      20.8      1.115      2.960
REMARK  2 active torsions:
REMARK  status: ('A' for Active; 'I' for Inactive)
REMARK    1  A    between atoms: C_6  and  C_1 
REMARK    2  A    between atoms: O_10  and  C_6 
ROOT
ATOM      1  C   UNL d   1     -58.325 -98.769 -44.282  0.00  0.00     0.096 A 
ATOM      2  S   UNL d   1     -58.259 -98.764 -45.114  0.00  0.00    -0.040 SA
ATOM      3  C   UNL d   1     -57.509 -98.760 -45.467  0.00  0.00     0.226 A 
ATOM      4  C   UNL d   1     -57.640 -98.769 -43.814  0.00  0.00     0.012 A 
ATOM      5  C   UNL d   1     -56.897 -98.764 -44.169  0.00  0.00     0.004 A 
ATOM      6  C   UNL d   1     -56.832 -98.760 -44.991  0.00  0.00     0.045 A 
ATOM      7  O   UNL d   1     -57.444 -98.756 -46.290  0.00  0.00    -0.279 OA
ATOM      8  C   UNL d   1     -56.220 -98.764 -43.701  0.00  0.00     0.000 A 
ATOM      9  C   UNL d   1     -56.088 -98.756 -45.354  0.00  0.00     0.004 A 
ATOM     10  C   UNL d   1     -55.476 -98.760 -44.056  0.00  0.00     0.000 A 
ATOM     11  C   UNL d   1     -55.410 -98.755 -44.887  0.00  0.00     0.000 A 
ENDROOT
BRANCH   1  12
ATOM     12  C   UNL d   1     -59.072 -98.773 -43.936  0.00  0.00     0.302 C 
ATOM     13  O   UNL d   1     -59.742 -98.795 -44.418  0.00  0.00    -0.259 OA
BRANCH  12  14
ATOM     14  O   UNL d   1     -59.161 -98.756 -43.122  0.00  0.00    -0.295 OA
ATOM     15  C   UNL d   1     -59.927 -98.757 -42.792  0.00  0.00     0.185 C 
ENDBRANCH  12  14
ENDBRANCH   1  12
TORSDOF 2
ENDMDL
