MODEL 1
REMARK VINA RESULT:      10.2      0.000      0.000
REMARK  7 active torsions:
REMARK  status: ('A' for Active; 'I' for Inactive)
REMARK    1  A    between atoms: C_7  and  C_1 
REMARK    2  A    between atoms: C_8  and  C_2 
REMARK    3  A    between atoms: C_10  and  C_3 
REMARK    4  A    between atoms: O_14  and  C_7 
REMARK    5  A    between atoms: O_15  and  C_8 
REMARK    6  A    between atoms: C_19  and  O_14 
REMARK    7  A    between atoms: C_20  and  O_15 
ROOT
ATOM      1  C   UNL d   1     -42.381-123.137 -49.730  0.00  0.00     0.100 A 
ATOM      2  C   UNL d   1     -42.278-122.618 -51.056  0.00  0.00     0.103 A 
ATOM      3  C   UNL d   1     -42.704-122.704 -50.350  0.00  0.00     0.016 A 
ATOM      4  C   UNL d   1     -41.630-123.489 -49.810  0.00  0.00     0.171 A 
ATOM      5  C   UNL d   1     -41.527-122.969 -51.136  0.00  0.00     0.204 A 
ATOM      6  C   UNL d   1     -41.205-123.406 -50.509  0.00  0.00     0.081 A 
ATOM      7  O   UNL d   1     -41.123-122.936 -51.696  0.00  0.00    -0.286 OA
ATOM      8  O   UNL d   1     -41.851-123.634 -49.211  0.00  0.00    -0.289 OA
ATOM      9  C   UNL d   1     -41.124-123.817 -49.651  0.00  0.00     0.042 C 
ENDROOT
BRANCH   3  10
ATOM     10  C   UNL d   1     -43.441-122.358 -50.272  0.00  0.00     0.001 A 
ATOM     11  C   UNL d   1     -43.512-121.568 -50.049  0.00  0.00     0.000 A 
ATOM     12  C   UNL d   1     -44.256-121.219 -49.970  0.00  0.00     0.000 A 
ATOM     13  C   UNL d   1     -44.934-121.659 -50.113  0.00  0.00     0.000 A 
ATOM     14  C   UNL d   1     -44.873-122.454 -50.337  0.00  0.00     0.000 A 
ATOM     15  C   UNL d   1     -44.129-122.802 -50.416  0.00  0.00     0.000 A 
ENDBRANCH   3  10
BRANCH   2  16
ATOM     16  C   UNL d   1     -42.601-122.183 -51.679  0.00  0.00     0.303 C 
ATOM     17  O   UNL d   1     -42.815-121.388 -51.578  0.00  0.00    -0.259 OA
BRANCH  16  18
ATOM     18  O   UNL d   1     -42.723-122.518 -52.419  0.00  0.00    -0.271 OA
BRANCH  18  19
ATOM     19  C   UNL d   1     -42.347-122.201 -53.089  0.00  0.00     0.126 C 
ATOM     20  C   UNL d   1     -42.756-122.144 -53.808  0.00  0.00     0.029 C 
ENDBRANCH  18  19
ENDBRANCH  16  18
ENDBRANCH   2  16
BRANCH   1  21
ATOM     21  C   UNL d   1     -42.806-123.222 -49.026  0.00  0.00     0.303 C 
ATOM     22  O   UNL d   1     -43.424-123.743 -48.992  0.00  0.00    -0.259 OA
BRANCH  21  23
ATOM     23  O   UNL d   1     -42.619-122.786 -48.346  0.00  0.00    -0.271 OA
BRANCH  23  24
ATOM     24  C   UNL d   1     -42.760-123.104 -47.600  0.00  0.00     0.126 C 
ATOM     25  C   UNL d   1     -42.551-122.674 -46.923  0.00  0.00     0.029 C 
ENDBRANCH  23  24
ENDBRANCH  21  23
ENDBRANCH   1  21
TORSDOF 7
ENDMDL
MODEL 2
REMARK VINA RESULT:      10.6      1.864      3.481
REMARK  7 active torsions:
REMARK  status: ('A' for Active; 'I' for Inactive)
REMARK    1  A    between atoms: C_7  and  C_1 
REMARK    2  A    between atoms: C_8  and  C_2 
REMARK    3  A    between atoms: C_10  and  C_3 
REMARK    4  A    between atoms: O_14  and  C_7 
REMARK    5  A    between atoms: O_15  and  C_8 
REMARK    6  A    between atoms: C_19  and  O_14 
REMARK    7  A    between atoms: C_20  and  O_15 
ROOT
ATOM      1  C   UNL d   1     -41.569-122.491 -52.660  0.00  0.00     0.100 A 
ATOM      2  C   UNL d   1     -41.669-122.598 -54.081  0.00  0.00     0.103 A 
ATOM      3  C   UNL d   1     -41.745-122.149 -53.388  0.00  0.00     0.016 A 
ATOM      4  C   UNL d   1     -41.316-123.283 -52.618  0.00  0.00     0.171 A 
ATOM      5  C   UNL d   1     -41.416-123.391 -54.039  0.00  0.00     0.204 A 
ATOM      6  C   UNL d   1     -41.240-123.732 -53.304  0.00  0.00     0.081 A 
ATOM      7  O   UNL d   1     -41.333-123.817 -54.577  0.00  0.00    -0.286 OA
ATOM      8  O   UNL d   1     -41.332-123.051 -52.007  0.00  0.00    -0.289 OA
ATOM      9  C   UNL d   1     -41.124-123.817 -52.360  0.00  0.00     0.042 C 
ENDROOT
BRANCH   3  10
ATOM     10  C   UNL d   1     -41.993-121.371 -53.429  0.00  0.00     0.001 A 
ATOM     11  C   UNL d   1     -42.786-121.191 -53.567  0.00  0.00     0.000 A 
ATOM     12  C   UNL d   1     -43.037-120.406 -53.609  0.00  0.00     0.000 A 
ATOM     13  C   UNL d   1     -42.496-119.796 -53.512  0.00  0.00     0.000 A 
ATOM     14  C   UNL d   1     -41.699-119.966 -53.373  0.00  0.00     0.000 A 
ATOM     15  C   UNL d   1     -41.448-120.751 -53.331  0.00  0.00     0.000 A 
ENDBRANCH   3  10
BRANCH   2  16
ATOM     16  C   UNL d   1     -41.845-122.257 -54.811  0.00  0.00     0.303 C 
ATOM     17  O   UNL d   1     -42.631-122.147 -55.053  0.00  0.00    -0.259 OA
BRANCH  16  18
ATOM     18  O   UNL d   1     -41.252-122.013 -55.326  0.00  0.00    -0.271 OA
BRANCH  18  19
ATOM     19  C   UNL d   1     -41.369-122.055 -56.147  0.00  0.00     0.126 C 
ATOM     20  C   UNL d   1     -41.133-121.426 -56.634  0.00  0.00     0.029 C 
ENDBRANCH  18  19
ENDBRANCH  16  18
ENDBRANCH   2  16
BRANCH   1  21
ATOM     21  C   UNL d   1     -41.645-122.042 -51.970  0.00  0.00     0.303 C 
ATOM     22  O   UNL d   1     -41.124-121.441 -51.823  0.00  0.00    -0.259 OA
BRANCH  21  23
ATOM     23  O   UNL d   1     -42.245-122.189 -51.416  0.00  0.00    -0.271 OA
BRANCH  23  24
ATOM     24  C   UNL d   1     -42.181-121.894 -50.651  0.00  0.00     0.126 C 
ATOM     25  C   UNL d   1     -42.319-122.393 -50.004  0.00  0.00     0.029 C 
ENDBRANCH  23  24
ENDBRANCH  21  23
ENDBRANCH   1  21
TORSDOF 7
ENDMDL
MODEL 3
REMARK VINA RESULT:      10.6      1.647      4.205
REMARK  7 active torsions:
REMARK  status: ('A' for Active; 'I' for Inactive)
REMARK    1  A    between atoms: C_7  and  C_1 
REMARK    2  A    between atoms: C_8  and  C_2 
REMARK    3  A    between atoms: C_10  and  C_3 
REMARK    4  A    between atoms: O_14  and  C_7 
REMARK    5  A    between atoms: O_15  and  C_8 
REMARK    6  A    between atoms: C_19  and  O_14 
REMARK    7  A    between atoms: C_20  and  O_15 
ROOT
ATOM      1  C   UNL d   1     -41.758-122.417 -53.216  0.00  0.00     0.100 A 
ATOM      2  C   UNL d   1     -41.746-122.537 -51.793  0.00  0.00     0.103 A 
ATOM      3  C   UNL d   1     -41.749-122.063 -52.473  0.00  0.00     0.016 A 
ATOM      4  C   UNL d   1     -41.765-123.247 -53.286  0.00  0.00     0.171 A 
ATOM      5  C   UNL d   1     -41.753-123.367 -51.863  0.00  0.00     0.204 A 
ATOM      6  C   UNL d   1     -41.762-123.720 -52.613  0.00  0.00     0.081 A 
ATOM      7  O   UNL d   1     -41.751-123.817 -51.338  0.00  0.00    -0.286 OA
ATOM      8  O   UNL d   1     -41.769-123.000 -53.892  0.00  0.00    -0.289 OA
ATOM      9  C   UNL d   1     -41.772-123.805 -53.565  0.00  0.00     0.042 C 
ENDROOT
BRANCH   3  10
ATOM     10  C   UNL d   1     -41.742-121.248 -52.404  0.00  0.00     0.001 A 
ATOM     11  C   UNL d   1     -41.130-120.866 -52.006  0.00  0.00     0.000 A 
ATOM     12  C   UNL d   1     -41.123-120.044 -51.936  0.00  0.00     0.000 A 
ATOM     13  C   UNL d   1     -41.729-119.598 -52.265  0.00  0.00     0.000 A 
ATOM     14  C   UNL d   1     -42.348-119.973 -52.667  0.00  0.00     0.000 A 
ATOM     15  C   UNL d   1     -42.355-120.795 -52.736  0.00  0.00     0.000 A 
ENDBRANCH   3  10
BRANCH   2  16
ATOM     16  C   UNL d   1     -41.736-122.184 -51.047  0.00  0.00     0.303 C 
ATOM     17  O   UNL d   1     -41.144-121.643 -50.840  0.00  0.00    -0.259 OA
BRANCH  16  18
ATOM     18  O   UNL d   1     -42.310-122.353 -50.484  0.00  0.00    -0.271 OA
BRANCH  18  19
ATOM     19  C   UNL d   1     -42.193-122.137 -49.690  0.00  0.00     0.126 C 
ATOM     20  C   UNL d   1     -42.804-122.231 -49.138  0.00  0.00     0.029 C 
ENDBRANCH  18  19
ENDBRANCH  16  18
ENDBRANCH   2  16
BRANCH   1  21
ATOM     21  C   UNL d   1     -41.761-121.943 -53.893  0.00  0.00     0.303 C 
ATOM     22  O   UNL d   1     -41.133-121.458 -54.045  0.00  0.00    -0.259 OA
BRANCH  21  23
ATOM     23  O   UNL d   1     -42.395-121.949 -54.429  0.00  0.00    -0.271 OA
BRANCH  23  24
ATOM     24  C   UNL d   1     -42.288-121.672 -55.196  0.00  0.00     0.126 C 
ATOM     25  C   UNL d   1     -42.477-122.159 -55.840  0.00  0.00     0.029 C 
ENDBRANCH  23  24
ENDBRANCH  21  23
ENDBRANCH   1  21
TORSDOF 7
ENDMDL
MODEL 4
REMARK VINA RESULT:      12.3      0.614      3.220
REMARK  7 active torsions:
REMARK  status: ('A' for Active; 'I' for Inactive)
REMARK    1  A    between atoms: C_7  and  C_1 
REMARK    2  A    between atoms: C_8  and  C_2 
REMARK    3  A    between atoms: C_10  and  C_3 
REMARK    4  A    between atoms: O_14  and  C_7 
REMARK    5  A    between atoms: O_15  and  C_8 
REMARK    6  A    between atoms: C_19  and  O_14 
REMARK    7  A    between atoms: C_20  and  O_15 
ROOT
ATOM      1  C   UNL d   1     -42.217-122.903 -51.250  0.00  0.00     0.100 A 
ATOM      2  C   UNL d   1     -42.129-123.016 -49.829  0.00  0.00     0.103 A 
ATOM      3  C   UNL d   1     -42.499-122.705 -50.503  0.00  0.00     0.016 A 
ATOM      4  C   UNL d   1     -41.563-123.413 -51.331  0.00  0.00     0.171 A 
ATOM      5  C   UNL d   1     -41.475-123.526 -49.910  0.00  0.00     0.204 A 
ATOM      6  C   UNL d   1     -41.193-123.723 -50.665  0.00  0.00     0.081 A 
ATOM      7  O   UNL d   1     -41.123-123.817 -49.391  0.00  0.00    -0.286 OA
ATOM      8  O   UNL d   1     -41.754-123.244 -51.934  0.00  0.00    -0.289 OA
ATOM      9  C   UNL d   1     -41.123-123.749 -51.617  0.00  0.00     0.042 C 
ENDROOT
BRANCH   3  10
ATOM     10  C   UNL d   1     -43.141-122.205 -50.424  0.00  0.00     0.001 A 
ATOM     11  C   UNL d   1     -43.879-122.501 -50.206  0.00  0.00     0.000 A 
ATOM     12  C   UNL d   1     -44.526-121.996 -50.126  0.00  0.00     0.000 A 
ATOM     13  C   UNL d   1     -44.440-121.191 -50.263  0.00  0.00     0.000 A 
ATOM     14  C   UNL d   1     -43.703-120.884 -50.482  0.00  0.00     0.000 A 
ATOM     15  C   UNL d   1     -43.056-121.389 -50.562  0.00  0.00     0.000 A 
ENDBRANCH   3  10
BRANCH   2  16
ATOM     16  C   UNL d   1     -42.410-122.818 -49.080  0.00  0.00     0.303 C 
ATOM     17  O   UNL d   1     -42.423-122.030 -48.823  0.00  0.00    -0.259 OA
BRANCH  16  18
ATOM     18  O   UNL d   1     -42.688-123.391 -48.560  0.00  0.00    -0.271 OA
BRANCH  18  19
ATOM     19  C   UNL d   1     -42.303-123.519 -47.834  0.00  0.00     0.126 C 
ATOM     20  C   UNL d   1     -42.724-123.453 -47.123  0.00  0.00     0.029 C 
ENDBRANCH  18  19
ENDBRANCH  16  18
ENDBRANCH   2  16
BRANCH   1  21
ATOM     21  C   UNL d   1     -42.586-122.593 -51.921  0.00  0.00     0.303 C 
ATOM     22  O   UNL d   1     -43.323-122.853 -52.129  0.00  0.00    -0.259 OA
BRANCH  21  23
ATOM     23  O   UNL d   1     -42.223-122.016 -52.395  0.00  0.00    -0.271 OA
BRANCH  23  24
ATOM     24  C   UNL d   1     -42.419-121.953 -53.191  0.00  0.00     0.126 C 
ATOM     25  C   UNL d   1     -41.883-121.607 -53.721  0.00  0.00     0.029 C 
ENDBRANCH  23  24
ENDBRANCH  21  23
ENDBRANCH   1  21
TORSDOF 7
ENDMDL
MODEL 5
REMARK VINA RESULT:      12.8      1.894      3.380
REMARK  7 active torsions:
REMARK  status: ('A' for Active; 'I' for Inactive)
REMARK    1  A    between atoms: C_7  and  C_1 
REMARK    2  A    between atoms: C_8  and  C_2 
REMARK    3  A    between atoms: C_10  and  C_3 
REMARK    4  A    between atoms: O_14  and  C_7 
REMARK    5  A    between atoms: O_15  and  C_8 
REMARK    6  A    between atoms: C_19  and  O_14 
REMARK    7  A    between atoms: C_20  and  O_15 
ROOT
ATOM      1  C   UNL d   1     -41.490-121.772 -51.990  0.00  0.00     0.100 A 
ATOM      2  C   UNL d   1     -41.624-121.023 -53.199  0.00  0.00     0.103 A 
ATOM      3  C   UNL d   1     -41.657-121.747 -52.795  0.00  0.00     0.016 A 
ATOM      4  C   UNL d   1     -41.289-121.075 -51.581  0.00  0.00     0.171 A 
ATOM      5  C   UNL d   1     -41.422-120.326 -52.790  0.00  0.00     0.204 A 
ATOM      6  C   UNL d   1     -41.255-120.356 -51.978  0.00  0.00     0.081 A 
ATOM      7  O   UNL d   1     -41.377-119.694 -53.066  0.00  0.00    -0.286 OA
ATOM      8  O   UNL d   1     -41.277-121.566 -51.148  0.00  0.00    -0.289 OA
ATOM      9  C   UNL d   1     -41.127-120.712 -51.101  0.00  0.00     0.042 C 
ENDROOT
BRANCH   3  10
ATOM     10  C   UNL d   1     -41.855-122.431 -53.197  0.00  0.00     0.001 A 
ATOM     11  C   UNL d   1     -41.276-122.871 -53.585  0.00  0.00     0.000 A 
ATOM     12  C   UNL d   1     -41.476-123.562 -53.991  0.00  0.00     0.000 A 
ATOM     13  C   UNL d   1     -42.256-123.817 -54.010  0.00  0.00     0.000 A 
ATOM     14  C   UNL d   1     -42.844-123.382 -53.623  0.00  0.00     0.000 A 
ATOM     15  C   UNL d   1     -42.645-122.691 -53.218  0.00  0.00     0.000 A 
ENDBRANCH   3  10
BRANCH   2  16
ATOM     16  C   UNL d   1     -41.791-120.997 -54.006  0.00  0.00     0.303 C 
ATOM     17  O   UNL d   1     -42.552-120.811 -54.278  0.00  0.00    -0.259 OA
BRANCH  16  18
ATOM     18  O   UNL d   1     -41.214-121.152 -54.570  0.00  0.00    -0.271 OA
BRANCH  18  19
ATOM     19  C   UNL d   1     -41.431-121.389 -55.336  0.00  0.00     0.126 C 
ATOM     20  C   UNL d   1     -41.377-120.856 -55.968  0.00  0.00     0.029 C 
ENDBRANCH  18  19
ENDBRANCH  16  18
ENDBRANCH   2  16
BRANCH   1  21
ATOM     21  C   UNL d   1     -41.524-122.494 -51.589  0.00  0.00     0.303 C 
ATOM     22  O   UNL d   1     -41.123-123.134 -51.880  0.00  0.00    -0.259 OA
BRANCH  21  23
ATOM     23  O   UNL d   1     -41.959-122.587 -50.888  0.00  0.00    -0.271 OA
BRANCH  23  24
ATOM     24  C   UNL d   1     -41.710-123.122 -50.316  0.00  0.00     0.126 C 
ATOM     25  C   UNL d   1     -42.266-123.604 -49.934  0.00  0.00     0.029 C 
ENDBRANCH  23  24
ENDBRANCH  21  23
ENDBRANCH   1  21
TORSDOF 7
ENDMDL
