MODEL 1
REMARK VINA RESULT:       9.7      0.000      0.000
REMARK  2 active torsions:
REMARK  status: ('A' for Active; 'I' for Inactive)
REMARK    1  A    between atoms: C_6  and  C_1 
REMARK    2  A    between atoms: O_10  and  C_6 
ROOT
ATOM      1  C   UNL d   1     -51.179  25.806  33.345  0.00  0.00     0.096 A 
ATOM      2  S   UNL d   1     -50.602  25.204  33.334  0.00  0.00    -0.040 SA
ATOM      3  C   UNL d   1     -50.837  24.408  33.324  0.00  0.00     0.226 A 
ATOM      4  C   UNL d   1     -51.984  25.606  33.344  0.00  0.00     0.012 A 
ATOM      5  C   UNL d   1     -52.214  24.815  33.334  0.00  0.00     0.004 A 
ATOM      6  C   UNL d   1     -51.644  24.219  33.324  0.00  0.00     0.045 A 
ATOM      7  O   UNL d   1     -50.267  23.812  33.314  0.00  0.00    -0.279 OA
ATOM      8  C   UNL d   1     -53.013  24.620  33.334  0.00  0.00     0.000 A 
ATOM      9  C   UNL d   1     -51.867  23.423  33.314  0.00  0.00     0.004 A 
ATOM     10  C   UNL d   1     -53.243  23.830  33.324  0.00  0.00     0.000 A 
ATOM     11  C   UNL d   1     -52.667  23.227  33.314  0.00  0.00     0.000 A 
ENDROOT
BRANCH   1  12
ATOM     12  C   UNL d   1     -50.940  26.594  33.355  0.00  0.00     0.302 C 
ATOM     13  O   UNL d   1     -51.511  27.190  33.341  0.00  0.00    -0.259 OA
BRANCH  12  14
ATOM     14  O   UNL d   1     -50.146  26.795  33.378  0.00  0.00    -0.295 OA
ATOM     15  C   UNL d   1     -49.923  27.597  33.325  0.00  0.00     0.185 C 
ENDBRANCH  12  14
ENDBRANCH   1  12
TORSDOF 2
ENDMDL
