MODEL 1
REMARK VINA RESULT:      -2.7      0.000      0.000
REMARK  4 active torsions:
REMARK  status: ('A' for Active; 'I' for Inactive)
REMARK    1  A    between atoms: C_10  and  C_1 
REMARK       I    between atoms: C_5  and  N_3 
REMARK    2  A    between atoms: O_18  and  C_5 
REMARK    3  A    between atoms: N_9  and  C_10 
REMARK    4  A    between atoms: C_22  and  O_18 
ROOT
ATOM      1  C   UNL d   1      32.293  17.656 -24.155  0.00  0.00     0.059 A 
ATOM      2  C   UNL d   1      31.397  16.556 -24.304  0.00  0.00     0.121 A 
ATOM      3  C   UNL d   1      32.132  16.853 -24.065  0.00  0.00     0.214 A 
ATOM      4  C   UNL d   1      30.826  17.065 -24.632  0.00  0.00     0.032 A 
ATOM      5  C   UNL d   1      30.988  17.868 -24.721  0.00  0.00     0.059 A 
ATOM      6  C   UNL d   1      31.722  18.165 -24.482  0.00  0.00     0.016 A 
ATOM      7  N   UNL d   1      31.230  15.764 -24.219  0.00  0.00    -0.241 NA
ATOM      8 CL   UNL d   1      30.417  18.377 -25.049  0.00  0.00    -0.082 Cl
ATOM      9  O   UNL d   1      32.694  16.352 -23.743  0.00  0.00    -0.285 OA
ATOM     10  C   UNL d   1      30.100  16.771 -24.868  0.00  0.00     0.004 A 
ATOM     11  C   UNL d   1      30.499  15.453 -24.454  0.00  0.00     0.099 A 
ATOM     12  C   UNL d   1      29.926  15.958 -24.782  0.00  0.00     0.021 A 
ENDROOT
BRANCH   1  13
ATOM     13  C   UNL d   1      33.021  17.965 -23.921  0.00  0.00     0.084 C 
BRANCH  13  14
ATOM     14  N   UNL d   1      33.067  18.613 -23.425  0.00  0.00    -0.300 N 
ATOM     15  C   UNL d   1      33.079  18.523 -22.608  0.00  0.00     0.100 A 
ATOM     16  C   UNL d   1      33.125  19.171 -22.113  0.00  0.00     0.104 A 
ATOM     17  N   UNL d   1      33.160  19.936 -22.439  0.00  0.00    -0.249 N 
ATOM     18  C   UNL d   1      33.148  20.031 -23.267  0.00  0.00     0.104 A 
ATOM     19  C   UNL d   1      33.206  20.595 -21.940  0.00  0.00     0.378 C 
ATOM     20  C   UNL d   1      33.102  19.378 -23.751  0.00  0.00     0.100 A 
ATOM     21  O   UNL d   1      33.218  20.492 -21.131  0.00  0.00    -0.237 OA
BRANCH  19  22
ATOM     22  O   UNL d   1      33.240  21.344 -22.260  0.00  0.00    -0.257 OA
BRANCH  22  23
ATOM     23  C   UNL d   1      33.239  22.013 -21.764  0.00  0.00     0.128 C 
ATOM     24  C   UNL d   1      33.175  22.771 -21.855  0.00  0.00     0.029 C 
ENDBRANCH  22  23
ENDBRANCH  19  22
ENDBRANCH  13  14
ENDBRANCH   1  13
TORSDOF 4
ENDMDL
MODEL 2
REMARK VINA RESULT:      -2.5      1.490      2.192
REMARK  4 active torsions:
REMARK  status: ('A' for Active; 'I' for Inactive)
REMARK    1  A    between atoms: C_10  and  C_1 
REMARK       I    between atoms: C_5  and  N_3 
REMARK    2  A    between atoms: O_18  and  C_5 
REMARK    3  A    between atoms: N_9  and  C_10 
REMARK    4  A    between atoms: C_22  and  O_18 
ROOT
ATOM      1  C   UNL d   1      30.521  16.713 -24.230  0.00  0.00     0.059 A 
ATOM      2  C   UNL d   1      29.368  16.083 -23.672  0.00  0.00     0.121 A 
ATOM      3  C   UNL d   1      30.189  16.112 -23.775  0.00  0.00     0.214 A 
ATOM      4  C   UNL d   1      28.882  16.658 -24.026  0.00  0.00     0.032 A 
ATOM      5  C   UNL d   1      29.214  17.260 -24.482  0.00  0.00     0.059 A 
ATOM      6  C   UNL d   1      30.035  17.288 -24.585  0.00  0.00     0.016 A 
ATOM      7  N   UNL d   1      29.033  15.493 -23.223  0.00  0.00    -0.241 NA
ATOM      8 CL   UNL d   1      28.729  17.835 -24.836  0.00  0.00    -0.082 Cl
ATOM      9  O   UNL d   1      30.668  15.546 -23.426  0.00  0.00    -0.285 OA
ATOM     10  C   UNL d   1      28.071  16.631 -23.925  0.00  0.00     0.004 A 
ATOM     11  C   UNL d   1      28.213  15.453 -23.112  0.00  0.00     0.099 A 
ATOM     12  C   UNL d   1      27.724  16.025 -23.464  0.00  0.00     0.021 A 
ENDROOT
BRANCH   1  13
ATOM     13  C   UNL d   1      31.337  16.752 -24.341  0.00  0.00     0.084 C 
BRANCH  13  14
ATOM     14  N   UNL d   1      31.754  17.437 -24.182  0.00  0.00    -0.300 N 
ATOM     15  C   UNL d   1      31.953  17.961 -24.783  0.00  0.00     0.100 A 
ATOM     16  C   UNL d   1      32.369  18.646 -24.625  0.00  0.00     0.104 A 
ATOM     17  N   UNL d   1      32.596  18.817 -23.843  0.00  0.00    -0.249 N 
ATOM     18  C   UNL d   1      32.396  18.288 -23.231  0.00  0.00     0.104 A 
ATOM     19  C   UNL d   1      33.019  19.511 -23.678  0.00  0.00     0.378 C 
ATOM     20  C   UNL d   1      31.981  17.608 -23.400  0.00  0.00     0.100 A 
ATOM     21  O   UNL d   1      33.210  20.023 -24.284  0.00  0.00    -0.237 OA
BRANCH  19  22
ATOM     22  O   UNL d   1      33.241  19.678 -22.912  0.00  0.00    -0.257 OA
BRANCH  22  23
ATOM     23  C   UNL d   1      33.114  20.437 -22.594  0.00  0.00     0.128 C 
ATOM     24  C   UNL d   1      33.198  20.773 -21.911  0.00  0.00     0.029 C 
ENDBRANCH  22  23
ENDBRANCH  19  22
ENDBRANCH  13  14
ENDBRANCH   1  13
TORSDOF 4
ENDMDL
