MODEL 1
REMARK VINA RESULT:       0.2      0.000      0.000
REMARK  4 active torsions:
REMARK  status: ('A' for Active; 'I' for Inactive)
REMARK    1  A    between atoms: C_18  and  N_4 
REMARK    2  A    between atoms: C_11  and  C_6 
REMARK       I    between atoms: N_15  and  C_11 
REMARK    3  A    between atoms: C_26  and  N_15 
REMARK    4  A    between atoms: C_17  and  C_26 
ROOT
ATOM      1  C   UNL d   1      32.877  21.715 -22.670  0.00  0.00     0.155 A 
ATOM      2  C   UNL d   1      33.015  20.973 -22.340  0.00  0.00     0.091 A 
ATOM      3  N   UNL d   1      32.817  22.373 -22.172  0.00  0.00    -0.210 NA
ATOM      4  N   UNL d   1      32.804  21.793 -23.474  0.00  0.00    -0.275 N 
ATOM      5  C   UNL d   1      32.864  21.144 -23.966  0.00  0.00     0.175 A 
ATOM      6  C   UNL d   1      33.001  20.403 -23.637  0.00  0.00     0.094 A 
ATOM      7  N   UNL d   1      33.030  21.547 -21.023  0.00  0.00    -0.258 N 
ATOM      8  C   UNL d   1      32.890  22.300 -21.357  0.00  0.00     0.152 A 
ATOM      9  C   UNL d   1      33.093  20.879 -21.509  0.00  0.00     0.269 A 
ATOM     10  C   UNL d   1      33.078  20.309 -22.825  0.00  0.00     0.016 A 
ATOM     11  C   UNL d   1      32.829  22.954 -20.871  0.00  0.00     0.035 A 
ATOM     12  N   UNL d   1      32.789  21.221 -24.791  0.00  0.00    -0.128 N 
ATOM     13  C   UNL d   1      33.106  21.460 -20.207  0.00  0.00     0.084 A 
ATOM     14  O   UNL d   1      33.229  20.140 -21.190  0.00  0.00    -0.266 OA
ATOM     15  C   UNL d   1      33.043  22.127 -19.723  0.00  0.00     0.019 A 
ATOM     16  C   UNL d   1      32.903  22.880 -20.058  0.00  0.00     0.005 A 
ATOM     17  C   UNL d   1      32.691  23.702 -21.203  0.00  0.00     0.003 C 
ENDROOT
BRANCH   6  18
ATOM     18  C   UNL d   1      33.063  19.738 -24.132  0.00  0.00     0.282 C 
ATOM     19  N   UNL d   1      32.949  18.980 -23.826  0.00  0.00    -0.204 NA
ATOM     20  O   UNL d   1      33.241  19.838 -24.934  0.00  0.00    -0.265 OA
BRANCH  19  21
ATOM     21  C   UNL d   1      33.010  18.324 -24.315  0.00  0.00     0.127 C 
BRANCH  21  22
ATOM     22  C   UNL d   1      32.915  17.560 -24.005  0.00  0.00     0.119 A 
ATOM     23  O   UNL d   1      32.511  17.362 -23.311  0.00  0.00    -0.304 OA
ATOM     24  C   UNL d   1      32.558  16.541 -23.218  0.00  0.00     0.123 A 
ATOM     25  C   UNL d   1      32.988  16.238 -23.852  0.00  0.00     0.029 A 
ATOM     26  C   UNL d   1      33.209  16.872 -24.340  0.00  0.00     0.028 A 
ENDBRANCH  21  22
ENDBRANCH  19  21
ENDBRANCH   6  18
BRANCH   4  27
ATOM     27  C   UNL d   1      32.665  22.541 -23.806  0.00  0.00     0.067 A 
ATOM     28  C   UNL d   1      33.232  23.007 -24.182  0.00  0.00     0.018 A 
ATOM     29  C   UNL d   1      32.861  23.702 -24.428  0.00  0.00     0.002 A 
ATOM     30  C   UNL d   1      32.056  23.666 -24.203  0.00  0.00     0.002 A 
ATOM     31  C   UNL d   1      31.948  22.945 -23.821  0.00  0.00     0.018 A 
ENDBRANCH   4  27
TORSDOF 4
ENDMDL
MODEL 2
REMARK VINA RESULT:       0.4      2.254      5.778
REMARK  4 active torsions:
REMARK  status: ('A' for Active; 'I' for Inactive)
REMARK    1  A    between atoms: C_18  and  N_4 
REMARK    2  A    between atoms: C_11  and  C_6 
REMARK       I    between atoms: N_15  and  C_11 
REMARK    3  A    between atoms: C_26  and  N_15 
REMARK    4  A    between atoms: C_17  and  C_26 
ROOT
ATOM      1  C   UNL d   1      31.222  17.513 -24.332  0.00  0.00     0.155 A 
ATOM      2  C   UNL d   1      30.834  18.240 -24.326  0.00  0.00     0.091 A 
ATOM      3  N   UNL d   1      30.797  16.830 -24.526  0.00  0.00    -0.210 NA
ATOM      4  N   UNL d   1      32.012  17.475 -24.149  0.00  0.00    -0.275 N 
ATOM      5  C   UNL d   1      32.431  18.149 -23.958  0.00  0.00     0.175 A 
ATOM      6  C   UNL d   1      32.044  18.874 -23.951  0.00  0.00     0.094 A 
ATOM      7  N   UNL d   1      29.604  17.600 -24.705  0.00  0.00    -0.258 N 
ATOM      8  C   UNL d   1      29.998  16.863 -24.712  0.00  0.00     0.152 A 
ATOM      9  C   UNL d   1      30.016  18.293 -24.513  0.00  0.00     0.269 A 
ATOM     10  C   UNL d   1      31.245  18.929 -24.134  0.00  0.00     0.016 A 
ATOM     11  C   UNL d   1      29.583  16.185 -24.903  0.00  0.00     0.035 A 
ATOM     12  N   UNL d   1      33.240  18.112 -23.770  0.00  0.00    -0.128 N 
ATOM     13  C   UNL d   1      28.802  17.648 -24.890  0.00  0.00     0.084 A 
ATOM     14  O   UNL d   1      29.639  19.017 -24.504  0.00  0.00    -0.266 OA
ATOM     15  C   UNL d   1      28.392  16.957 -25.082  0.00  0.00     0.019 A 
ATOM     16  C   UNL d   1      28.786  16.219 -25.088  0.00  0.00     0.005 A 
ATOM     17  C   UNL d   1      29.974  15.453 -24.910  0.00  0.00     0.003 C 
ENDROOT
BRANCH   6  18
ATOM     18  C   UNL d   1      32.465  19.564 -23.757  0.00  0.00     0.282 C 
ATOM     19  N   UNL d   1      32.628  19.744 -22.968  0.00  0.00    -0.204 NA
ATOM     20  O   UNL d   1      32.721  20.072 -24.359  0.00  0.00    -0.265 OA
BRANCH  19  21
ATOM     21  C   UNL d   1      33.044  20.425 -22.777  0.00  0.00     0.127 C 
BRANCH  21  22
ATOM     22  C   UNL d   1      32.993  20.747 -22.014  0.00  0.00     0.119 A 
ATOM     23  O   UNL d   1      33.196  20.364 -21.309  0.00  0.00    -0.304 OA
ATOM     24  C   UNL d   1      33.057  20.892 -20.688  0.00  0.00     0.123 A 
ATOM     25  C   UNL d   1      32.772  21.594 -21.010  0.00  0.00     0.029 A 
ATOM     26  C   UNL d   1      32.733  21.503 -21.834  0.00  0.00     0.028 A 
ENDBRANCH  21  22
ENDBRANCH  19  21
ENDBRANCH   6  18
BRANCH   4  27
ATOM     27  C   UNL d   1      32.402  16.743 -24.156  0.00  0.00     0.067 A 
ATOM     28  C   UNL d   1      32.409  16.201 -23.535  0.00  0.00     0.018 A 
ATOM     29  C   UNL d   1      32.860  15.552 -23.773  0.00  0.00     0.002 A 
ATOM     30  C   UNL d   1      33.136  15.694 -24.550  0.00  0.00     0.002 A 
ATOM     31  C   UNL d   1      32.848  16.431 -24.775  0.00  0.00     0.018 A 
ENDBRANCH   4  27
TORSDOF 4
ENDMDL
