MODEL 1
REMARK VINA RESULT:      -7.9      0.000      0.000
REMARK  4 active torsions:
REMARK  status: ('A' for Active; 'I' for Inactive)
REMARK    1  A    between atoms: C_14  and  N_1 
REMARK    2  A    between atoms: S_12  and  C_2 
REMARK    3  A    between atoms: C_9  and  C_17 
REMARK    4  A    between atoms: C_17  and  S_12 
ROOT
ATOM      1  S   UNL d   1     -48.725  14.279  22.852  0.00  0.00    -0.045 SA
ENDROOT
BRANCH   1   2
ATOM      2  C   UNL d   1     -49.345  14.814  22.888  0.00  0.00     0.219 A 
ATOM      3  N   UNL d   1     -50.122  14.652  22.704  0.00  0.00    -0.186 N 
ATOM      4  N   UNL d   1     -50.554  15.333  22.814  0.00  0.00    -0.038 NA
ATOM      5  N   UNL d   1     -50.045  15.922  23.067  0.00  0.00    -0.022 NA
ATOM      6  N   UNL d   1     -49.287  15.594  23.113  0.00  0.00    -0.101 NA
BRANCH   3   7
ATOM      7  C   UNL d   1     -50.419  13.928  22.452  0.00  0.00     0.087 A 
ATOM      8  C   UNL d   1     -50.468  13.760  21.648  0.00  0.00     0.019 A 
ATOM      9  C   UNL d   1     -50.763  13.039  21.397  0.00  0.00     0.002 A 
ATOM     10  C   UNL d   1     -51.012  12.478  21.948  0.00  0.00     0.000 A 
ATOM     11  C   UNL d   1     -50.963  12.647  22.751  0.00  0.00     0.002 A 
ATOM     12  C   UNL d   1     -50.666  13.371  23.003  0.00  0.00     0.019 A 
ENDBRANCH   3   7
ENDBRANCH   1   2
BRANCH   1  13
ATOM     13  C   UNL d   1     -47.987  14.519  23.054  0.00  0.00     0.059 C 
BRANCH  13  14
ATOM     14  C   UNL d   1     -47.360  14.010  22.954  0.00  0.00     0.107 A 
ATOM     15  N   UNL d   1     -46.683  14.166  22.489  0.00  0.00    -0.226 NA
ATOM     16  C   UNL d   1     -46.177  13.477  22.549  0.00  0.00     0.148 A 
ATOM     17  C   UNL d   1     -45.428  13.308  22.207  0.00  0.00     0.037 A 
ATOM     18  N   UNL d   1     -46.553  12.917  23.047  0.00  0.00    -0.289 N 
ATOM     19  C   UNL d   1     -45.066  12.573  22.373  0.00  0.00     0.005 A 
ATOM     20  C   UNL d   1     -45.442  12.013  22.870  0.00  0.00     0.018 A 
ATOM     21  C   UNL d   1     -46.183  12.185  23.206  0.00  0.00     0.066 A 
ATOM     22  C   UNL d   1     -46.555  11.632  23.698  0.00  0.00     0.019 C 
ATOM     23  C   UNL d   1     -47.296  13.254  23.300  0.00  0.00     0.101 A 
ENDBRANCH  13  14
ENDBRANCH   1  13
TORSDOF 4
ENDMDL
MODEL 2
REMARK VINA RESULT:      -6.8      0.883      1.474
REMARK  4 active torsions:
REMARK  status: ('A' for Active; 'I' for Inactive)
REMARK    1  A    between atoms: C_14  and  N_1 
REMARK    2  A    between atoms: S_12  and  C_2 
REMARK    3  A    between atoms: C_9  and  C_17 
REMARK    4  A    between atoms: C_17  and  S_12 
ROOT
ATOM      1  S   UNL d   1     -47.884  13.671  22.779  0.00  0.00    -0.045 SA
ENDROOT
BRANCH   1   2
ATOM      2  C   UNL d   1     -48.339  14.330  22.604  0.00  0.00     0.219 A 
ATOM      3  N   UNL d   1     -49.119  14.320  22.372  0.00  0.00    -0.186 N 
ATOM      4  N   UNL d   1     -49.359  15.089  22.255  0.00  0.00    -0.038 NA
ATOM      5  N   UNL d   1     -48.725  15.581  22.416  0.00  0.00    -0.022 NA
ATOM      6  N   UNL d   1     -48.086  15.103  22.635  0.00  0.00    -0.101 NA
BRANCH   3   7
ATOM      7  C   UNL d   1     -49.585  13.649  22.271  0.00  0.00     0.087 A 
ATOM      8  C   UNL d   1     -49.586  13.252  21.551  0.00  0.00     0.019 A 
ATOM      9  C   UNL d   1     -50.050  12.585  21.451  0.00  0.00     0.002 A 
ATOM     10  C   UNL d   1     -50.518  12.308  22.071  0.00  0.00     0.000 A 
ATOM     11  C   UNL d   1     -50.516  12.706  22.791  0.00  0.00     0.002 A 
ATOM     12  C   UNL d   1     -50.050  13.376  22.891  0.00  0.00     0.019 A 
ENDBRANCH   3   7
ENDBRANCH   1   2
BRANCH   1  13
ATOM     13  C   UNL d   1     -47.112  13.767  22.975  0.00  0.00     0.059 C 
BRANCH  13  14
ATOM     14  C   UNL d   1     -46.635  13.112  23.048  0.00  0.00     0.107 A 
ATOM     15  N   UNL d   1     -46.835  12.417  23.469  0.00  0.00    -0.226 NA
ATOM     16  C   UNL d   1     -46.168  11.883  23.394  0.00  0.00     0.148 A 
ATOM     17  C   UNL d   1     -46.043  11.108  23.694  0.00  0.00     0.037 A 
ATOM     18  N   UNL d   1     -45.580  12.260  22.932  0.00  0.00    -0.289 N 
ATOM     19  C   UNL d   1     -45.322  10.721  23.523  0.00  0.00     0.005 A 
ATOM     20  C   UNL d   1     -44.733  11.099  23.062  0.00  0.00     0.018 A 
ATOM     21  C   UNL d   1     -44.862  11.865  22.767  0.00  0.00     0.066 A 
ATOM     22  C   UNL d   1     -44.280  12.239  22.311  0.00  0.00     0.019 C 
ATOM     23  C   UNL d   1     -45.875  13.032  22.716  0.00  0.00     0.101 A 
ENDBRANCH  13  14
ENDBRANCH   1  13
TORSDOF 4
ENDMDL
MODEL 3
REMARK VINA RESULT:      -6.3      8.905     10.055
REMARK  4 active torsions:
REMARK  status: ('A' for Active; 'I' for Inactive)
REMARK    1  A    between atoms: C_14  and  N_1 
REMARK    2  A    between atoms: S_12  and  C_2 
REMARK    3  A    between atoms: C_9  and  C_17 
REMARK    4  A    between atoms: C_17  and  S_12 
ROOT
ATOM      1  S   UNL d   1     -40.155  15.234  18.545  0.00  0.00    -0.045 SA
ENDROOT
BRANCH   1   2
ATOM      2  C   UNL d   1     -40.582  15.270  17.846  0.00  0.00     0.219 A 
ATOM      3  N   UNL d   1     -40.309  15.045  17.112  0.00  0.00    -0.186 N 
ATOM      4  N   UNL d   1     -40.905  15.170  16.572  0.00  0.00    -0.038 NA
ATOM      5  N   UNL d   1     -41.553  15.474  16.971  0.00  0.00    -0.022 NA
ATOM      6  N   UNL d   1     -41.347  15.535  17.770  0.00  0.00    -0.101 NA
BRANCH   3   7
ATOM      7  C   UNL d   1     -39.562  14.745  16.945  0.00  0.00     0.087 A 
ATOM      8  C   UNL d   1     -39.414  13.940  17.026  0.00  0.00     0.019 A 
ATOM      9  C   UNL d   1     -38.670  13.641  16.859  0.00  0.00     0.002 A 
ATOM     10  C   UNL d   1     -38.067  14.145  16.610  0.00  0.00     0.000 A 
ATOM     11  C   UNL d   1     -38.216  14.949  16.529  0.00  0.00     0.002 A 
ATOM     12  C   UNL d   1     -38.963  15.250  16.696  0.00  0.00     0.019 A 
ENDBRANCH   3   7
ENDBRANCH   1   2
BRANCH   1  13
ATOM     13  C   UNL d   1     -40.517  15.420  19.236  0.00  0.00     0.059 C 
BRANCH  13  14
ATOM     14  C   UNL d   1     -40.105  15.348  19.935  0.00  0.00     0.107 A 
ATOM     15  N   UNL d   1     -39.575  15.918  20.240  0.00  0.00    -0.226 NA
ATOM     16  C   UNL d   1     -39.276  15.605  20.980  0.00  0.00     0.148 A 
ATOM     17  C   UNL d   1     -38.730  15.922  21.535  0.00  0.00     0.037 A 
ATOM     18  N   UNL d   1     -39.627  14.855  21.110  0.00  0.00    -0.289 N 
ATOM     19  C   UNL d   1     -38.545  15.476  22.218  0.00  0.00     0.005 A 
ATOM     20  C   UNL d   1     -38.897  14.727  22.348  0.00  0.00     0.018 A 
ATOM     21  C   UNL d   1     -39.436  14.418  21.796  0.00  0.00     0.066 A 
ATOM     22  C   UNL d   1     -39.784  13.676  21.924  0.00  0.00     0.019 C 
ATOM     23  C   UNL d   1     -40.148  14.696  20.452  0.00  0.00     0.101 A 
ENDBRANCH  13  14
ENDBRANCH   1  13
TORSDOF 4
ENDMDL
MODEL 4
REMARK VINA RESULT:      -6.2      1.648      4.810
REMARK  4 active torsions:
REMARK  status: ('A' for Active; 'I' for Inactive)
REMARK    1  A    between atoms: C_14  and  N_1 
REMARK    2  A    between atoms: S_12  and  C_2 
REMARK    3  A    between atoms: C_9  and  C_17 
REMARK    4  A    between atoms: C_17  and  S_12 
ROOT
ATOM      1  S   UNL d   1     -47.311  12.218  23.242  0.00  0.00    -0.045 SA
ENDROOT
BRANCH   1   2
ATOM      2  C   UNL d   1     -46.605  11.818  23.358  0.00  0.00     0.219 A 
ATOM      3  N   UNL d   1     -45.864  12.102  23.174  0.00  0.00    -0.186 N 
ATOM      4  N   UNL d   1     -45.318  11.533  23.376  0.00  0.00    -0.038 NA
ATOM      5  N   UNL d   1     -45.721  10.891  23.687  0.00  0.00    -0.022 NA
ATOM      6  N   UNL d   1     -46.528  11.072  23.674  0.00  0.00    -0.101 NA
BRANCH   3   7
ATOM      7  C   UNL d   1     -45.695  12.835  22.842  0.00  0.00     0.087 A 
ATOM      8  C   UNL d   1     -45.986  13.521  23.190  0.00  0.00     0.019 A 
ATOM      9  C   UNL d   1     -45.818  14.252  22.860  0.00  0.00     0.002 A 
ATOM     10  C   UNL d   1     -45.357  14.302  22.178  0.00  0.00     0.000 A 
ATOM     11  C   UNL d   1     -45.067  13.616  21.831  0.00  0.00     0.002 A 
ATOM     12  C   UNL d   1     -45.236  12.882  22.163  0.00  0.00     0.019 A 
ENDBRANCH   3   7
ENDBRANCH   1   2
BRANCH   1  13
ATOM     13  C   UNL d   1     -48.003  11.814  23.287  0.00  0.00     0.059 C 
BRANCH  13  14
ATOM     14  C   UNL d   1     -48.702  12.203  23.135  0.00  0.00     0.107 A 
ATOM     15  N   UNL d   1     -49.134  12.649  23.695  0.00  0.00    -0.226 NA
ATOM     16  C   UNL d   1     -49.825  12.952  23.288  0.00  0.00     0.148 A 
ATOM     17  C   UNL d   1     -50.460  13.433  23.558  0.00  0.00     0.037 A 
ATOM     18  N   UNL d   1     -49.800  12.687  22.493  0.00  0.00    -0.289 N 
ATOM     19  C   UNL d   1     -51.064  13.641  23.019  0.00  0.00     0.005 A 
ATOM     20  C   UNL d   1     -51.039  13.376  22.224  0.00  0.00     0.018 A 
ATOM     21  C   UNL d   1     -50.410  12.900  21.963  0.00  0.00     0.066 A 
ATOM     22  C   UNL d   1     -50.385  12.638  21.177  0.00  0.00     0.019 C 
ATOM     23  C   UNL d   1     -49.094  12.216  22.400  0.00  0.00     0.101 A 
ENDBRANCH  13  14
ENDBRANCH   1  13
TORSDOF 4
ENDMDL
MODEL 5
REMARK VINA RESULT:      -5.9      9.566     10.375
REMARK  4 active torsions:
REMARK  status: ('A' for Active; 'I' for Inactive)
REMARK    1  A    between atoms: C_14  and  N_1 
REMARK    2  A    between atoms: S_12  and  C_2 
REMARK    3  A    between atoms: C_9  and  C_17 
REMARK    4  A    between atoms: C_17  and  S_12 
ROOT
ATOM      1  S   UNL d   1     -38.829  14.044  19.025  0.00  0.00    -0.045 SA
ENDROOT
BRANCH   1   2
ATOM      2  C   UNL d   1     -38.872  13.554  18.368  0.00  0.00     0.219 A 
ATOM      3  N   UNL d   1     -39.296  13.706  17.690  0.00  0.00    -0.186 N 
ATOM      4  N   UNL d   1     -39.188  13.082  17.179  0.00  0.00    -0.038 NA
ATOM      5  N   UNL d   1     -38.694  12.538  17.541  0.00  0.00    -0.022 NA
ATOM      6  N   UNL d   1     -38.497  12.837  18.287  0.00  0.00    -0.101 NA
BRANCH   3   7
ATOM      7  C   UNL d   1     -39.753  14.375  17.545  0.00  0.00     0.087 A 
ATOM      8  C   UNL d   1     -40.532  14.405  17.808  0.00  0.00     0.019 A 
ATOM      9  C   UNL d   1     -40.988  15.070  17.664  0.00  0.00     0.002 A 
ATOM     10  C   UNL d   1     -40.668  15.711  17.254  0.00  0.00     0.000 A 
ATOM     11  C   UNL d   1     -39.890  15.679  16.991  0.00  0.00     0.002 A 
ATOM     12  C   UNL d   1     -39.432  15.011  17.137  0.00  0.00     0.019 A 
ENDBRANCH   3   7
ENDBRANCH   1   2
BRANCH   1  13
ATOM     13  C   UNL d   1     -38.326  13.858  19.621  0.00  0.00     0.059 C 
BRANCH  13  14
ATOM     14  C   UNL d   1     -38.397  14.241  20.336  0.00  0.00     0.107 A 
ATOM     15  N   UNL d   1     -38.280  15.061  20.455  0.00  0.00    -0.226 NA
ATOM     16  C   UNL d   1     -38.413  15.211  21.288  0.00  0.00     0.148 A 
ATOM     17  C   UNL d   1     -38.377  15.922  21.736  0.00  0.00     0.037 A 
ATOM     18  N   UNL d   1     -38.607  14.485  21.658  0.00  0.00    -0.289 N 
ATOM     19  C   UNL d   1     -38.538  15.890  22.555  0.00  0.00     0.005 A 
ATOM     20  C   UNL d   1     -38.733  15.164  22.925  0.00  0.00     0.018 A 
ATOM     21  C   UNL d   1     -38.767  14.464  22.478  0.00  0.00     0.066 A 
ATOM     22  C   UNL d   1     -38.959  13.745  22.844  0.00  0.00     0.019 C 
ATOM     23  C   UNL d   1     -38.597  13.877  21.058  0.00  0.00     0.101 A 
ENDBRANCH  13  14
ENDBRANCH   1  13
TORSDOF 4
ENDMDL
MODEL 6
REMARK VINA RESULT:      -5.7      8.489     10.551
REMARK  4 active torsions:
REMARK  status: ('A' for Active; 'I' for Inactive)
REMARK    1  A    between atoms: C_14  and  N_1 
REMARK    2  A    between atoms: S_12  and  C_2 
REMARK    3  A    between atoms: C_9  and  C_17 
REMARK    4  A    between atoms: C_17  and  S_12 
ROOT
ATOM      1  S   UNL d   1     -38.751  14.339  19.820  0.00  0.00    -0.045 SA
ENDROOT
BRANCH   1   2
ATOM      2  C   UNL d   1     -38.747  14.016  20.573  0.00  0.00     0.219 A 
ATOM      3  N   UNL d   1     -39.301  14.157  21.153  0.00  0.00    -0.186 N 
ATOM      4  N   UNL d   1     -39.091  13.730  21.813  0.00  0.00    -0.038 NA
ATOM      5  N   UNL d   1     -38.402  13.320  21.644  0.00  0.00    -0.022 NA
ATOM      6  N   UNL d   1     -38.188  13.502  20.865  0.00  0.00    -0.101 NA
BRANCH   3   7
ATOM      7  C   UNL d   1     -39.959  14.647  21.084  0.00  0.00     0.087 A 
ATOM      8  C   UNL d   1     -40.660  14.353  20.771  0.00  0.00     0.019 A 
ATOM      9  C   UNL d   1     -41.315  14.839  20.703  0.00  0.00     0.002 A 
ATOM     10  C   UNL d   1     -41.274  15.626  20.948  0.00  0.00     0.000 A 
ATOM     11  C   UNL d   1     -40.573  15.919  21.262  0.00  0.00     0.002 A 
ATOM     12  C   UNL d   1     -39.915  15.429  21.330  0.00  0.00     0.019 A 
ENDBRANCH   3   7
ENDBRANCH   1   2
BRANCH   1  13
ATOM     13  C   UNL d   1     -38.145  14.178  19.320  0.00  0.00     0.059 C 
BRANCH  13  14
ATOM     14  C   UNL d   1     -38.177  14.450  18.553  0.00  0.00     0.107 A 
ATOM     15  N   UNL d   1     -38.173  15.256  18.329  0.00  0.00    -0.226 NA
ATOM     16  C   UNL d   1     -38.215  15.274  17.473  0.00  0.00     0.148 A 
ATOM     17  C   UNL d   1     -38.229  15.918  16.933  0.00  0.00     0.037 A 
ATOM     18  N   UNL d   1     -38.243  14.484  17.194  0.00  0.00    -0.289 N 
ATOM     19  C   UNL d   1     -38.272  15.755  16.114  0.00  0.00     0.005 A 
ATOM     20  C   UNL d   1     -38.300  14.966  15.835  0.00  0.00     0.018 A 
ATOM     21  C   UNL d   1     -38.286  14.333  16.374  0.00  0.00     0.066 A 
ATOM     22  C   UNL d   1     -38.314  13.551  16.098  0.00  0.00     0.019 C 
ATOM     23  C   UNL d   1     -38.219  13.968  17.875  0.00  0.00     0.101 A 
ENDBRANCH  13  14
ENDBRANCH   1  13
TORSDOF 4
ENDMDL
