MODEL 1
REMARK VINA RESULT:      -4.8      0.000      0.000
REMARK  3 active torsions:
REMARK  status: ('A' for Active; 'I' for Inactive)
REMARK    1  A    between atoms: C_21  and  N_1 
REMARK       I    between atoms: N_6  and  C_8 
REMARK    2  A    between atoms: C_8  and  C_9 
REMARK    3  A    between atoms: C_24  and  C_21 
ROOT
ATOM      1  N   UNL d   1      60.017  -2.388  28.999  0.00  0.00    -0.249 N 
ATOM      2  C   UNL d   1      60.338  -1.646  29.115  0.00  0.00     0.208 A 
ATOM      3  C   UNL d   1      59.244  -2.548  29.244  0.00  0.00     0.268 A 
ATOM      4  C   UNL d   1      58.805  -1.950  29.605  0.00  0.00     0.074 A 
ATOM      5  N   UNL d   1      59.894  -1.047  29.478  0.00  0.00    -0.218 NA
ATOM      6  C   UNL d   1      59.131  -1.214  29.717  0.00  0.00     0.088 A 
ATOM      7  C   UNL d   1      57.913  -0.770  30.328  0.00  0.00     0.058 A 
ATOM      8  C   UNL d   1      58.689  -0.619  30.079  0.00  0.00     0.024 A 
ATOM      9  C   UNL d   1      58.038  -2.111  29.848  0.00  0.00     0.006 A 
ATOM     10  S   UNL d   1      61.122  -1.487  28.865  0.00  0.00    -0.038 SA
ATOM     11  O   UNL d   1      58.917  -3.295  29.129  0.00  0.00    -0.267 OA
ATOM     12  C   UNL d   1      57.590  -1.515  30.212  0.00  0.00     0.005 A 
ENDROOT
BRANCH   7  13
ATOM     13  C   UNL d   1      57.469  -0.172  30.691  0.00  0.00     0.265 C 
ATOM     14  N   UNL d   1      57.020  -0.347  31.359  0.00  0.00    -0.272 N 
ATOM     15  C   UNL d   1      56.581   0.245  31.718  0.00  0.00     0.083 A 
ATOM     16  C   UNL d   1      57.007  -1.109  31.670  0.00  0.00     0.083 A 
ATOM     17  C   UNL d   1      56.138   0.076  32.375  0.00  0.00     0.018 A 
ATOM     18  C   UNL d   1      55.697   0.682  32.730  0.00  0.00     0.002 A 
ATOM     19  C   UNL d   1      56.122  -0.684  32.688  0.00  0.00     0.003 A 
ATOM     20  C   UNL d   1      55.237   0.521  33.406  0.00  0.00     0.000 A 
ATOM     21  C   UNL d   1      55.220  -0.240  33.722  0.00  0.00     0.000 A 
ATOM     22  C   UNL d   1      55.664  -0.838  33.359  0.00  0.00     0.000 A 
ATOM     23  C   UNL d   1      56.558  -1.276  32.333  0.00  0.00     0.019 A 
ATOM     24  O   UNL d   1      57.483   0.591  30.379  0.00  0.00    -0.267 OA
ENDBRANCH   7  13
BRANCH   1  25
ATOM     25  C   UNL d   1      60.466  -2.993  28.632  0.00  0.00     0.085 C 
BRANCH  25  26
ATOM     26  C   UNL d   1      60.615  -3.692  29.040  0.00  0.00     0.019 C 
ATOM     27  C   UNL d   1      61.054  -4.289  28.667  0.00  0.00     0.002 C 
ENDBRANCH  25  26
ENDBRANCH   1  25
TORSDOF 3
ENDMDL
MODEL 2
REMARK VINA RESULT:      -3.0      1.948      5.331
REMARK  3 active torsions:
REMARK  status: ('A' for Active; 'I' for Inactive)
REMARK    1  A    between atoms: C_21  and  N_1 
REMARK       I    between atoms: N_6  and  C_8 
REMARK    2  A    between atoms: C_8  and  C_9 
REMARK    3  A    between atoms: C_24  and  C_21 
ROOT
ATOM      1  N   UNL d   1      56.243   0.568  33.534  0.00  0.00    -0.249 N 
ATOM      2  C   UNL d   1      57.023   0.536  33.774  0.00  0.00     0.208 A 
ATOM      3  C   UNL d   1      56.050   0.489  32.734  0.00  0.00     0.268 A 
ATOM      4  C   UNL d   1      56.656   0.378  32.185  0.00  0.00     0.074 A 
ATOM      5  N   UNL d   1      57.629   0.423  33.218  0.00  0.00    -0.218 NA
ATOM      6  C   UNL d   1      57.430   0.346  32.430  0.00  0.00     0.088 A 
ATOM      7  C   UNL d   1      57.849   0.154  31.073  0.00  0.00     0.058 A 
ATOM      8  C   UNL d   1      58.032   0.234  31.877  0.00  0.00     0.024 A 
ATOM      9  C   UNL d   1      56.463   0.299  31.391  0.00  0.00     0.006 A 
ATOM     10  S   UNL d   1      57.215   0.616  34.585  0.00  0.00    -0.038 SA
ATOM     11  O   UNL d   1      55.265   0.521  32.489  0.00  0.00    -0.267 OA
ATOM     12  C   UNL d   1      57.066   0.187  30.833  0.00  0.00     0.005 A 
ENDROOT
BRANCH   7  13
ATOM     13  C   UNL d   1      58.454   0.042  30.518  0.00  0.00     0.265 C 
ATOM     14  N   UNL d   1      58.582  -0.708  30.202  0.00  0.00    -0.272 N 
ATOM     15  C   UNL d   1      59.181  -0.819  29.653  0.00  0.00     0.083 A 
ATOM     16  C   UNL d   1      58.116  -1.347  30.430  0.00  0.00     0.083 A 
ATOM     17  C   UNL d   1      59.309  -1.555  29.340  0.00  0.00     0.018 A 
ATOM     18  C   UNL d   1      59.918  -1.656  28.786  0.00  0.00     0.002 A 
ATOM     19  C   UNL d   1      58.846  -2.195  29.566  0.00  0.00     0.003 A 
ATOM     20  C   UNL d   1      60.060  -2.408  28.456  0.00  0.00     0.000 A 
ATOM     21  C   UNL d   1      59.597  -3.052  28.681  0.00  0.00     0.000 A 
ATOM     22  C   UNL d   1      58.991  -2.940  29.236  0.00  0.00     0.000 A 
ATOM     23  C   UNL d   1      58.249  -2.089  30.112  0.00  0.00     0.019 A 
ATOM     24  O   UNL d   1      58.921   0.682  30.290  0.00  0.00    -0.267 OA
ENDBRANCH   7  13
BRANCH   1  25
ATOM     25  C   UNL d   1      55.631   0.682  34.096  0.00  0.00     0.085 C 
BRANCH  25  26
ATOM     26  C   UNL d   1      54.996   0.158  34.117  0.00  0.00     0.019 C 
ATOM     27  C   UNL d   1      54.369   0.306  34.637  0.00  0.00     0.002 C 
ENDBRANCH  25  26
ENDBRANCH   1  25
TORSDOF 3
ENDMDL
MODEL 3
REMARK VINA RESULT:      -2.0      2.803      5.728
REMARK  3 active torsions:
REMARK  status: ('A' for Active; 'I' for Inactive)
REMARK    1  A    between atoms: C_21  and  N_1 
REMARK       I    between atoms: N_6  and  C_8 
REMARK    2  A    between atoms: C_8  and  C_9 
REMARK    3  A    between atoms: C_24  and  C_21 
ROOT
ATOM      1  N   UNL d   1      55.959   0.230  34.129  0.00  0.00    -0.249 N 
ATOM      2  C   UNL d   1      55.426   0.010  33.551  0.00  0.00     0.208 A 
ATOM      3  C   UNL d   1      56.727   0.455  33.922  0.00  0.00     0.268 A 
ATOM      4  C   UNL d   1      56.944   0.455  33.126  0.00  0.00     0.074 A 
ATOM      5  N   UNL d   1      55.648   0.011  32.751  0.00  0.00    -0.218 NA
ATOM      6  C   UNL d   1      56.409   0.235  32.555  0.00  0.00     0.088 A 
ATOM      7  C   UNL d   1      57.397   0.461  31.543  0.00  0.00     0.058 A 
ATOM      8  C   UNL d   1      56.630   0.237  31.760  0.00  0.00     0.024 A 
ATOM      9  C   UNL d   1      57.707   0.680  32.921  0.00  0.00     0.006 A 
ATOM     10  S   UNL d   1      54.649  -0.218  33.764  0.00  0.00    -0.038 SA
ATOM     11  O   UNL d   1      57.267   0.678  34.502  0.00  0.00    -0.267 OA
ATOM     12  C   UNL d   1      57.933   0.682  32.123  0.00  0.00     0.005 A 
ENDROOT
BRANCH   7  13
ATOM     13  C   UNL d   1      57.619   0.462  30.744  0.00  0.00     0.265 C 
ATOM     14  N   UNL d   1      58.416   0.515  30.544  0.00  0.00    -0.272 N 
ATOM     15  C   UNL d   1      58.636   0.516  29.754  0.00  0.00     0.083 A 
ATOM     16  C   UNL d   1      58.995   0.566  31.127  0.00  0.00     0.083 A 
ATOM     17  C   UNL d   1      59.419   0.567  29.553  0.00  0.00     0.018 A 
ATOM     18  C   UNL d   1      59.630   0.567  28.752  0.00  0.00     0.002 A 
ATOM     19  C   UNL d   1      59.999   0.618  30.133  0.00  0.00     0.003 A 
ATOM     20  C   UNL d   1      60.432   0.619  28.532  0.00  0.00     0.000 A 
ATOM     21  C   UNL d   1      61.017   0.671  29.111  0.00  0.00     0.000 A 
ATOM     22  C   UNL d   1      60.794   0.670  29.910  0.00  0.00     0.000 A 
ATOM     23  C   UNL d   1      59.786   0.618  30.921  0.00  0.00     0.019 A 
ATOM     24  O   UNL d   1      57.039   0.411  30.161  0.00  0.00    -0.267 OA
ENDBRANCH   7  13
BRANCH   1  25
ATOM     25  C   UNL d   1      55.735   0.229  34.937  0.00  0.00     0.085 C 
BRANCH  25  26
ATOM     26  C   UNL d   1      55.026   0.582  35.161  0.00  0.00     0.019 C 
ATOM     27  C   UNL d   1      54.844   0.641  35.968  0.00  0.00     0.002 C 
ENDBRANCH  25  26
ENDBRANCH   1  25
TORSDOF 3
ENDMDL
MODEL 4
REMARK VINA RESULT:      -1.9      8.600      9.221
REMARK  3 active torsions:
REMARK  status: ('A' for Active; 'I' for Inactive)
REMARK    1  A    between atoms: C_21  and  N_1 
REMARK       I    between atoms: N_6  and  C_8 
REMARK    2  A    between atoms: C_8  and  C_9 
REMARK    3  A    between atoms: C_24  and  C_21 
ROOT
ATOM      1  N   UNL d   1      57.808  -9.736  29.508  0.00  0.00    -0.249 N 
ATOM      2  C   UNL d   1      58.588  -9.697  29.272  0.00  0.00     0.208 A 
ATOM      3  C   UNL d   1      57.619  -9.776  30.312  0.00  0.00     0.268 A 
ATOM      4  C   UNL d   1      58.229  -9.776  30.868  0.00  0.00     0.074 A 
ATOM      5  N   UNL d   1      59.199  -9.697  29.834  0.00  0.00    -0.218 NA
ATOM      6  C   UNL d   1      59.003  -9.737  30.626  0.00  0.00     0.088 A 
ATOM      7  C   UNL d   1      59.431  -9.778  31.993  0.00  0.00     0.058 A 
ATOM      8  C   UNL d   1      59.610  -9.738  31.185  0.00  0.00     0.024 A 
ATOM      9  C   UNL d   1      58.040  -9.817  31.666  0.00  0.00     0.006 A 
ATOM     10  S   UNL d   1      58.776  -9.656  28.456  0.00  0.00    -0.038 SA
ATOM     11  O   UNL d   1      56.833  -9.816  30.554  0.00  0.00    -0.267 OA
ATOM     12  C   UNL d   1      58.647  -9.817  32.231  0.00  0.00     0.005 A 
ENDROOT
BRANCH   7  13
ATOM     13  C   UNL d   1      60.040  -9.778  32.554  0.00  0.00     0.265 C 
ATOM     14  N   UNL d   1      59.855  -9.749  33.356  0.00  0.00    -0.272 N 
ATOM     15  C   UNL d   1      60.458  -9.749  33.912  0.00  0.00     0.083 A 
ATOM     16  C   UNL d   1      59.071  -9.719  33.607  0.00  0.00     0.083 A 
ATOM     17  C   UNL d   1      60.279  -9.720  34.701  0.00  0.00     0.018 A 
ATOM     18  C   UNL d   1      60.897  -9.721  35.254  0.00  0.00     0.002 A 
ATOM     19  C   UNL d   1      59.498  -9.690  34.955  0.00  0.00     0.003 A 
ATOM     20  C   UNL d   1      60.726  -9.691  36.070  0.00  0.00     0.000 A 
ATOM     21  C   UNL d   1      59.943  -9.661  36.326  0.00  0.00     0.000 A 
ATOM     22  C   UNL d   1      59.333  -9.661  35.765  0.00  0.00     0.000 A 
ATOM     23  C   UNL d   1      58.894  -9.689  34.405  0.00  0.00     0.019 A 
ATOM     24  O   UNL d   1      60.825  -9.809  32.303  0.00  0.00    -0.267 OA
ENDBRANCH   7  13
BRANCH   1  25
ATOM     25  C   UNL d   1      57.191  -9.735  28.940  0.00  0.00     0.085 C 
BRANCH  25  26
ATOM     26  C   UNL d   1      56.765  -9.045  28.805  0.00  0.00     0.019 C 
ATOM     27  C   UNL d   1      56.010  -9.098  28.466  0.00  0.00     0.002 C 
ENDBRANCH  25  26
ENDBRANCH   1  25
TORSDOF 3
ENDMDL
