MODEL 1
REMARK VINA RESULT:      52.1      0.000      0.000
REMARK  5 active torsions:
REMARK  status: ('A' for Active; 'I' for Inactive)
REMARK    1  A    between atoms: S_2  and  N_1 
REMARK    2  A    between atoms: C_10  and  S_2 
REMARK    3  A    between atoms: N_7  and  C_3 
REMARK    4  A    between atoms: C_12  and  C_6 
REMARK    5  A    between atoms: C_13  and  N_7 
ROOT
ATOM      1  N   UNL d   1      14.076  13.692  -3.177  0.00  0.00    -0.176 N 
ATOM      2  C   UNL d   1      14.247  13.408  -2.426  0.00  0.00     0.191 A 
ATOM      3  C   UNL d   1      14.209  14.497  -3.197  0.00  0.00     0.281 A 
ATOM      4  S   UNL d   1      14.490  14.057  -1.977  0.00  0.00    -0.044 SA
ATOM      5  C   UNL d   1      14.458  14.728  -2.481  0.00  0.00     0.089 A 
ATOM      6  O   UNL d   1      14.109  15.026  -3.849  0.00  0.00    -0.265 OA
ENDROOT
BRANCH   1   7
ATOM      7  S   UNL d   1      13.814  13.248  -3.816  0.00  0.00     0.275 S 
ATOM      8  O   UNL d   1      13.012  13.393  -3.636  0.00  0.00    -0.199 OA
ATOM      9  O   UNL d   1      14.600  13.077  -4.032  0.00  0.00    -0.199 OA
BRANCH   7  10
ATOM     10  C   UNL d   1      13.559  12.805  -4.453  0.00  0.00     0.104 A 
ATOM     11  C   UNL d   1      13.867  12.956  -5.211  0.00  0.00     0.013 A 
ATOM     12  C   UNL d   1      13.624  12.518  -5.875  0.00  0.00     0.001 A 
ATOM     13  C   UNL d   1      13.045  11.897  -5.780  0.00  0.00     0.000 A 
ATOM     14  C   UNL d   1      12.769  11.779  -5.032  0.00  0.00     0.001 A 
ATOM     15  C   UNL d   1      13.005  12.205  -4.387  0.00  0.00     0.013 A 
ENDBRANCH   7  10
ENDBRANCH   1   7
BRANCH   2  16
ATOM     16  N   UNL d   1      14.162  12.621  -2.253  0.00  0.00    -0.222 NA
BRANCH  16  17
ATOM     17  C   UNL d   1      14.384  12.339  -1.503  0.00  0.00     0.084 A 
ATOM     18  C   UNL d   1      13.807  12.082  -0.978  0.00  0.00     0.019 A 
ATOM     19  C   UNL d   1      14.013  11.800  -0.230  0.00  0.00     0.002 A 
ATOM     20  C   UNL d   1      14.828  11.779  -0.014  0.00  0.00     0.000 A 
ATOM     21  C   UNL d   1      15.405  12.036  -0.539  0.00  0.00     0.002 A 
ATOM     22  C   UNL d   1      15.177  12.316  -1.286  0.00  0.00     0.019 A 
ENDBRANCH  16  17
ENDBRANCH   2  16
BRANCH   5  23
ATOM     23  C   UNL d   1      14.643  15.507  -2.305  0.00  0.00     0.011 A 
ATOM     24  C   UNL d   1      14.647  16.065  -2.891  0.00  0.00     0.001 A 
ATOM     25  C   UNL d   1      14.833  16.852  -2.720  0.00  0.00     0.000 A 
ATOM     26  C   UNL d   1      15.016  17.084  -1.956  0.00  0.00     0.000 A 
ATOM     27  C   UNL d   1      15.011  16.507  -1.354  0.00  0.00     0.000 A 
ATOM     28  C   UNL d   1      14.825  15.716  -1.522  0.00  0.00     0.001 A 
ENDBRANCH   5  23
TORSDOF 5
ENDMDL
