MODEL 1
REMARK VINA RESULT:      12.7      0.000      0.000
REMARK  1 active torsions:
REMARK  status: ('A' for Active; 'I' for Inactive)
REMARK    1  A    between atoms: N_4  and  C_1 
ROOT
ATOM      1  C   UNL d   1     -51.532  25.386  33.325  0.00  0.00     0.735 A 
ATOM      2  N   UNL d   1     -51.403  24.570  33.309  0.00  0.00    -0.059 NA
ATOM      3  N   UNL d   1     -52.351  25.514  33.346  0.00  0.00    -0.059 NA
ATOM      4  C   UNL d   1     -52.140  24.192  33.320  0.00  0.00     0.118 A 
ATOM      5  C   UNL d   1     -52.724  24.774  33.342  0.00  0.00     0.118 A 
ATOM      6  C   UNL d   1     -52.351  23.396  33.312  0.00  0.00     0.021 A 
ATOM      7  C   UNL d   1     -53.524  24.566  33.357  0.00  0.00     0.021 A 
ATOM      8  C   UNL d   1     -53.736  23.770  33.350  0.00  0.00     0.002 A 
ATOM      9  C   UNL d   1     -53.152  23.188  33.327  0.00  0.00     0.002 A 
ENDROOT
BRANCH   1  10
ATOM     10  N   UNL d   1     -50.956  25.976  33.321  0.00  0.00    -0.134 N 
ATOM     11  C   UNL d   1     -50.153  25.781  33.326  0.00  0.00     0.119 A 
ATOM     12  C   UNL d   1     -49.586  26.375  33.322  0.00  0.00     0.119 A 
ATOM     13  N   UNL d   1     -49.814  27.167  33.313  0.00  0.00    -0.239 NA
ATOM     14  C   UNL d   1     -50.617  27.364  33.309  0.00  0.00     0.119 A 
ATOM     15  C   UNL d   1     -51.195  26.770  33.313  0.00  0.00     0.119 A 
ENDBRANCH   1  10
TORSDOF 1
ENDMDL
MODEL 2
REMARK VINA RESULT:      13.0      0.853      3.439
REMARK  1 active torsions:
REMARK  status: ('A' for Active; 'I' for Inactive)
REMARK    1  A    between atoms: N_4  and  C_1 
ROOT
ATOM      1  C   UNL d   1     -52.123  25.215  33.339  0.00  0.00     0.735 A 
ATOM      2  N   UNL d   1     -51.299  25.161  33.348  0.00  0.00    -0.059 NA
ATOM      3  N   UNL d   1     -52.325  26.019  33.326  0.00  0.00    -0.059 NA
ATOM      4  C   UNL d   1     -50.989  25.929  33.340  0.00  0.00     0.118 A 
ATOM      5  C   UNL d   1     -51.622  26.458  33.326  0.00  0.00     0.118 A 
ATOM      6  C   UNL d   1     -50.216  26.211  33.343  0.00  0.00     0.021 A 
ATOM      7  C   UNL d   1     -51.488  27.274  33.316  0.00  0.00     0.021 A 
ATOM      8  C   UNL d   1     -50.714  27.557  33.319  0.00  0.00     0.002 A 
ATOM      9  C   UNL d   1     -50.081  27.028  33.332  0.00  0.00     0.002 A 
ENDROOT
BRANCH   1  10
ATOM     10  N   UNL d   1     -52.659  24.588  33.344  0.00  0.00    -0.134 N 
ATOM     11  C   UNL d   1     -52.392  23.807  33.385  0.00  0.00     0.119 A 
ATOM     12  C   UNL d   1     -52.932  23.189  33.388  0.00  0.00     0.119 A 
ATOM     13  N   UNL d   1     -53.742  23.343  33.351  0.00  0.00    -0.239 NA
ATOM     14  C   UNL d   1     -54.010  24.124  33.310  0.00  0.00     0.119 A 
ATOM     15  C   UNL d   1     -53.470  24.754  33.306  0.00  0.00     0.119 A 
ENDBRANCH   1  10
TORSDOF 1
ENDMDL
