MODEL 1
REMARK VINA RESULT:      -9.3      0.000      0.000
REMARK  4 active torsions:
REMARK  status: ('A' for Active; 'I' for Inactive)
REMARK    1  A    between atoms: N_2  and  S_1 
REMARK    2  A    between atoms: C_4  and  S_1 
REMARK    3  A    between atoms: C_3  and  N_2 
REMARK    4  A    between atoms: N_5  and  C_6 
REMARK       I    between atoms: C_9  and  N_5 
ROOT
ATOM      1  N   UNL d   1      52.691  33.740  53.420  0.00  0.00    -0.157 NA
ENDROOT
BRANCH   1   2
ATOM      2  S   UNL d   1      51.949  33.928  53.045  0.00  0.00     0.285 S 
ATOM      3  O   UNL d   1      51.538  33.688  53.737  0.00  0.00    -0.198 OA
ATOM      4  O   UNL d   1      52.361  34.168  52.353  0.00  0.00    -0.198 OA
BRANCH   2   5
ATOM      5  C   UNL d   1      51.225  34.115  52.672  0.00  0.00     0.105 A 
ATOM      6  C   UNL d   1      50.551  34.267  53.128  0.00  0.00     0.013 A 
ATOM      7  C   UNL d   1      49.844  34.449  52.766  0.00  0.00     0.001 A 
ATOM      8  C   UNL d   1      49.798  34.482  51.944  0.00  0.00     0.000 A 
ATOM      9  C   UNL d   1      50.471  34.330  51.488  0.00  0.00     0.001 A 
ATOM     10  C   UNL d   1      49.065  34.671  51.576  0.00  0.00     0.000 C 
ATOM     11  C   UNL d   1      51.184  34.146  51.858  0.00  0.00     0.013 A 
ENDBRANCH   2   5
ENDBRANCH   1   2
BRANCH   1  12
ATOM     12  C   UNL d   1      52.963  32.950  53.424  0.00  0.00     0.112 A 
ATOM     13  C   UNL d   1      53.676  32.762  53.797  0.00  0.00     0.103 A 
ATOM     14  C   UNL d   1      53.944  31.981  53.800  0.00  0.00     0.021 A 
ATOM     15  C   UNL d   1      53.500  31.392  53.432  0.00  0.00     0.002 A 
ATOM     16  C   UNL d   1      52.781  31.587  53.057  0.00  0.00     0.002 A 
ATOM     17  C   UNL d   1      52.513  32.351  53.050  0.00  0.00     0.021 A 
BRANCH  13  18
ATOM     18  N   UNL d   1      54.127  33.344  54.167  0.00  0.00    -0.206 NA
ATOM     19  C   UNL d   1      54.464  33.185  54.904  0.00  0.00     0.280 C 
ATOM     20  O   UNL d   1      54.347  32.457  55.254  0.00  0.00    -0.265 OA
ATOM     21  C   UNL d   1      54.916  33.761  55.282  0.00  0.00     0.068 C 
ENDBRANCH  13  18
ENDBRANCH   1  12
TORSDOF 4
ENDMDL
MODEL 2
REMARK VINA RESULT:      -8.8      1.594      3.724
REMARK  4 active torsions:
REMARK  status: ('A' for Active; 'I' for Inactive)
REMARK    1  A    between atoms: N_2  and  S_1 
REMARK    2  A    between atoms: C_4  and  S_1 
REMARK    3  A    between atoms: C_3  and  N_2 
REMARK    4  A    between atoms: N_5  and  C_6 
REMARK       I    between atoms: C_9  and  N_5 
ROOT
ATOM      1  N   UNL d   1      53.022  33.029  53.048  0.00  0.00    -0.157 NA
ENDROOT
BRANCH   1   2
ATOM      2  S   UNL d   1      53.073  32.197  53.226  0.00  0.00     0.285 S 
ATOM      3  O   UNL d   1      52.888  32.014  52.428  0.00  0.00    -0.198 OA
ATOM      4  O   UNL d   1      53.258  32.381  54.025  0.00  0.00    -0.198 OA
BRANCH   2   5
ATOM      5  C   UNL d   1      53.125  31.383  53.407  0.00  0.00     0.105 A 
ATOM      6  C   UNL d   1      53.432  31.140  54.136  0.00  0.00     0.013 A 
ATOM      7  C   UNL d   1      53.484  30.346  54.314  0.00  0.00     0.001 A 
ATOM      8  C   UNL d   1      53.230  29.783  53.770  0.00  0.00     0.000 A 
ATOM      9  C   UNL d   1      52.922  30.026  53.040  0.00  0.00     0.001 A 
ATOM     10  C   UNL d   1      53.285  28.966  53.960  0.00  0.00     0.000 C 
ATOM     11  C   UNL d   1      52.872  30.829  52.865  0.00  0.00     0.013 A 
ENDBRANCH   2   5
ENDBRANCH   1   2
BRANCH   1  12
ATOM     12  C   UNL d   1      52.283  33.417  53.096  0.00  0.00     0.112 A 
ATOM     13  C   UNL d   1      52.251  34.217  53.301  0.00  0.00     0.103 A 
ATOM     14  C   UNL d   1      51.521  34.599  53.348  0.00  0.00     0.021 A 
ATOM     15  C   UNL d   1      50.826  34.183  53.190  0.00  0.00     0.002 A 
ATOM     16  C   UNL d   1      50.865  33.375  52.983  0.00  0.00     0.002 A 
ATOM     17  C   UNL d   1      51.579  32.994  52.936  0.00  0.00     0.021 A 
BRANCH  13  18
ATOM     18  N   UNL d   1      52.939  34.642  53.460  0.00  0.00    -0.206 NA
ATOM     19  C   UNL d   1      52.899  35.305  53.950  0.00  0.00     0.280 C 
ATOM     20  O   UNL d   1      52.182  35.531  54.268  0.00  0.00    -0.265 OA
ATOM     21  C   UNL d   1      53.582  35.736  54.115  0.00  0.00     0.068 C 
ENDBRANCH  13  18
ENDBRANCH   1  12
TORSDOF 4
ENDMDL
MODEL 3
REMARK VINA RESULT:      -7.9      2.324      3.389
REMARK  4 active torsions:
REMARK  status: ('A' for Active; 'I' for Inactive)
REMARK    1  A    between atoms: N_2  and  S_1 
REMARK    2  A    between atoms: C_4  and  S_1 
REMARK    3  A    between atoms: C_3  and  N_2 
REMARK    4  A    between atoms: N_5  and  C_6 
REMARK       I    between atoms: C_9  and  N_5 
ROOT
ATOM      1  N   UNL d   1      53.854  31.556  54.260  0.00  0.00    -0.157 NA
ENDROOT
BRANCH   1   2
ATOM      2  S   UNL d   1      53.725  32.396  54.313  0.00  0.00     0.285 S 
ATOM      3  O   UNL d   1      54.383  32.530  53.809  0.00  0.00    -0.198 OA
ATOM      4  O   UNL d   1      53.067  32.262  54.818  0.00  0.00    -0.198 OA
BRANCH   2   5
ATOM      5  C   UNL d   1      53.593  33.220  54.370  0.00  0.00     0.105 A 
ATOM      6  C   UNL d   1      52.892  33.548  54.076  0.00  0.00     0.013 A 
ATOM      7  C   UNL d   1      52.762  34.350  54.131  0.00  0.00     0.001 A 
ATOM      8  C   UNL d   1      53.328  34.838  54.478  0.00  0.00     0.000 A 
ATOM      9  C   UNL d   1      54.029  34.510  54.771  0.00  0.00     0.001 A 
ATOM     10  C   UNL d   1      53.187  35.666  54.531  0.00  0.00     0.000 C 
ATOM     11  C   UNL d   1      54.156  33.698  54.714  0.00  0.00     0.013 A 
ENDBRANCH   2   5
ENDBRANCH   1   2
BRANCH   1  12
ATOM     12  C   UNL d   1      53.470  31.115  53.662  0.00  0.00     0.112 A 
ATOM     13  C   UNL d   1      53.315  30.312  53.777  0.00  0.00     0.103 A 
ATOM     14  C   UNL d   1      52.936  29.878  53.186  0.00  0.00     0.021 A 
ATOM     15  C   UNL d   1      52.713  30.248  52.483  0.00  0.00     0.002 A 
ATOM     16  C   UNL d   1      52.873  31.060  52.372  0.00  0.00     0.002 A 
ATOM     17  C   UNL d   1      53.244  31.490  52.949  0.00  0.00     0.021 A 
BRANCH  13  18
ATOM     18  N   UNL d   1      53.534  29.934  54.476  0.00  0.00    -0.206 NA
ATOM     19  C   UNL d   1      53.342  29.139  54.582  0.00  0.00     0.280 C 
ATOM     20  O   UNL d   1      52.941  28.737  53.995  0.00  0.00    -0.265 OA
ATOM     21  C   UNL d   1      53.557  28.753  55.277  0.00  0.00     0.068 C 
ENDBRANCH  13  18
ENDBRANCH   1  12
TORSDOF 4
ENDMDL
MODEL 4
REMARK VINA RESULT:      -6.9      1.756      4.536
REMARK  4 active torsions:
REMARK  status: ('A' for Active; 'I' for Inactive)
REMARK    1  A    between atoms: N_2  and  S_1 
REMARK    2  A    between atoms: C_4  and  S_1 
REMARK    3  A    between atoms: C_3  and  N_2 
REMARK    4  A    between atoms: N_5  and  C_6 
REMARK       I    between atoms: C_9  and  N_5 
ROOT
ATOM      1  N   UNL d   1      50.386  34.549  53.264  0.00  0.00    -0.157 NA
ENDROOT
BRANCH   1   2
ATOM      2  S   UNL d   1      51.108  34.098  53.272  0.00  0.00     0.285 S 
ATOM      3  O   UNL d   1      50.678  33.414  53.503  0.00  0.00    -0.198 OA
ATOM      4  O   UNL d   1      51.537  34.782  53.041  0.00  0.00    -0.198 OA
BRANCH   2   5
ATOM      5  C   UNL d   1      51.820  33.660  53.279  0.00  0.00     0.105 A 
ATOM      6  C   UNL d   1      52.542  34.046  53.404  0.00  0.00     0.013 A 
ATOM      7  C   UNL d   1      53.237  33.621  53.411  0.00  0.00     0.001 A 
ATOM      8  C   UNL d   1      53.224  32.805  53.293  0.00  0.00     0.000 A 
ATOM      9  C   UNL d   1      52.502  32.420  53.168  0.00  0.00     0.001 A 
ATOM     10  C   UNL d   1      53.945  32.372  53.301  0.00  0.00     0.000 C 
ATOM     11  C   UNL d   1      51.802  32.854  53.162  0.00  0.00     0.013 A 
ENDBRANCH   2   5
ENDBRANCH   1   2
BRANCH   1  12
ATOM     12  C   UNL d   1      49.927  34.583  52.566  0.00  0.00     0.112 A 
ATOM     13  C   UNL d   1      49.225  35.019  52.554  0.00  0.00     0.103 A 
ATOM     14  C   UNL d   1      48.773  35.051  51.864  0.00  0.00     0.021 A 
ATOM     15  C   UNL d   1      49.023  34.649  51.189  0.00  0.00     0.002 A 
ATOM     16  C   UNL d   1      49.733  34.210  51.206  0.00  0.00     0.002 A 
ATOM     17  C   UNL d   1      50.181  34.175  51.880  0.00  0.00     0.021 A 
BRANCH  13  18
ATOM     18  N   UNL d   1      48.967  35.423  53.224  0.00  0.00    -0.206 NA
ATOM     19  C   UNL d   1      48.275  35.871  53.183  0.00  0.00     0.280 C 
ATOM     20  O   UNL d   1      47.856  35.906  52.483  0.00  0.00    -0.265 OA
ATOM     21  C   UNL d   1      48.009  36.279  53.848  0.00  0.00     0.068 C 
ENDBRANCH  13  18
ENDBRANCH   1  12
TORSDOF 4
ENDMDL
