MODEL 1
REMARK VINA RESULT:      97.8      0.000      0.000
REMARK  9 active torsions:
REMARK  status: ('A' for Active; 'I' for Inactive)
REMARK    1  A    between atoms: C_5  and  C_1 
REMARK    2  A    between atoms: N_6  and  C_2 
REMARK    3  A    between atoms: C_7  and  C_5 
REMARK    4  A    between atoms: C_8  and  C_5 
REMARK    5  A    between atoms: O_13  and  C_7 
REMARK    6  A    between atoms: C_17  and  N_12 
REMARK    7  A    between atoms: C_20  and  O_13 
REMARK    8  A    between atoms: C_21  and  C_17 
REMARK    9  A    between atoms: C_24  and  C_20 
ROOT
ATOM      1  C   UNL d   1     -49.125  27.982  36.049  0.00  0.00     0.117 A 
ATOM      2  C   UNL d   1     -49.118  28.035  35.229  0.00  0.00     0.145 A 
ATOM      3  N   UNL d   1     -48.645  28.601  34.850  0.00  0.00    -0.230 NA
ATOM      4  N   UNL d   1     -48.656  28.496  36.499  0.00  0.00    -0.241 NA
ATOM      5  C   UNL d   1     -48.177  29.115  35.300  0.00  0.00     0.100 A 
ATOM      6  C   UNL d   1     -48.187  29.057  36.131  0.00  0.00     0.099 A 
ATOM      7  C   UNL d   1     -47.703  29.682  34.926  0.00  0.00     0.021 A 
ATOM      8  C   UNL d   1     -47.723  29.567  36.574  0.00  0.00     0.021 A 
ATOM      9  C   UNL d   1     -47.242  30.187  35.379  0.00  0.00     0.002 A 
ATOM     10  C   UNL d   1     -47.247  30.136  36.207  0.00  0.00     0.002 A 
ENDROOT
BRANCH   2  11
ATOM     11  N   UNL d   1     -49.632  27.460  34.929  0.00  0.00    -0.189 NA
ATOM     12  C   UNL d   1     -49.946  27.001  34.558  0.00  0.00     0.076 A 
ATOM     13  C   UNL d   1     -50.796  26.434  34.735  0.00  0.00     0.093 A 
ATOM     14  N   UNL d   1     -50.762  26.013  33.951  0.00  0.00    -0.301 N 
ATOM     15  C   UNL d   1     -50.474  26.467  34.350  0.00  0.00     0.093 A 
ATOM     16  C   UNL d   1     -49.572  27.087  34.193  0.00  0.00     0.076 A 
BRANCH  14  17
ATOM     17  C   UNL d   1     -50.925  25.517  33.306  0.00  0.00     0.080 C 
BRANCH  17  18
ATOM     18  C   UNL d   1     -51.533  24.963  33.362  0.00  0.00     0.018 A 
ATOM     19  C   UNL d   1     -51.353  24.167  33.463  0.00  0.00     0.002 A 
ATOM     20  C   UNL d   1     -51.964  23.617  33.518  0.00  0.00     0.000 A 
ATOM     21  C   UNL d   1     -52.752  23.863  33.472  0.00  0.00     0.000 A 
ATOM     22  C   UNL d   1     -52.924  24.663  33.371  0.00  0.00     0.000 A 
ATOM     23  C   UNL d   1     -52.314  25.213  33.316  0.00  0.00     0.002 A 
ENDBRANCH  17  18
ENDBRANCH  14  17
ENDBRANCH   2  11
BRANCH   1  24
ATOM     24  C   UNL d   1     -49.643  27.373  36.262  0.00  0.00     0.104 C 
BRANCH  24  25
ATOM     25  C   UNL d   1     -50.343  27.461  36.709  0.00  0.00     0.303 C 
ATOM     26  O   UNL d   1     -50.815  28.130  36.605  0.00  0.00    -0.259 OA
BRANCH  25  27
ATOM     27  O   UNL d   1     -50.559  26.876  37.253  0.00  0.00    -0.271 OA
BRANCH  27  28
ATOM     28  C   UNL d   1     -51.208  26.989  37.749  0.00  0.00     0.126 C 
BRANCH  28  29
ATOM     29  C   UNL d   1     -51.403  26.422  38.314  0.00  0.00     0.025 C 
ATOM     30  C   UNL d   1     -51.195  26.538  39.100  0.00  0.00     0.002 C 
ATOM     31  C   UNL d   1     -51.808  25.737  38.089  0.00  0.00     0.002 C 
ENDBRANCH  28  29
ENDBRANCH  27  28
ENDBRANCH  25  27
ENDBRANCH  24  25
BRANCH  24  32
ATOM     32  C   UNL d   1     -49.351  26.666  35.959  0.00  0.00     0.129 C 
ATOM     33  N   UNL d   1     -48.836  26.139  36.344  0.00  0.00    -0.146 N 
ENDBRANCH  24  32
ENDBRANCH   1  24
TORSDOF 9
ENDMDL
MODEL 2
REMARK VINA RESULT:      98.4      1.338      5.191
REMARK  9 active torsions:
REMARK  status: ('A' for Active; 'I' for Inactive)
REMARK    1  A    between atoms: C_5  and  C_1 
REMARK    2  A    between atoms: N_6  and  C_2 
REMARK    3  A    between atoms: C_7  and  C_5 
REMARK    4  A    between atoms: C_8  and  C_5 
REMARK    5  A    between atoms: O_13  and  C_7 
REMARK    6  A    between atoms: C_17  and  N_12 
REMARK    7  A    between atoms: C_20  and  O_13 
REMARK    8  A    between atoms: C_21  and  C_17 
REMARK    9  A    between atoms: C_24  and  C_20 
ROOT
ATOM      1  C   UNL d   1     -49.831  27.430  36.055  0.00  0.00     0.117 A 
ATOM      2  C   UNL d   1     -49.544  27.983  36.590  0.00  0.00     0.145 A 
ATOM      3  N   UNL d   1     -49.811  27.986  37.374  0.00  0.00    -0.230 NA
ATOM      4  N   UNL d   1     -50.390  26.871  36.303  0.00  0.00    -0.241 NA
ATOM      5  C   UNL d   1     -50.370  27.427  37.622  0.00  0.00     0.100 A 
ATOM      6  C   UNL d   1     -50.658  26.868  37.077  0.00  0.00     0.099 A 
ATOM      7  C   UNL d   1     -50.639  27.425  38.405  0.00  0.00     0.021 A 
ATOM      8  C   UNL d   1     -51.211  26.316  37.323  0.00  0.00     0.021 A 
ATOM      9  C   UNL d   1     -51.193  26.869  38.641  0.00  0.00     0.002 A 
ATOM     10  C   UNL d   1     -51.485  26.308  38.103  0.00  0.00     0.002 A 
ENDROOT
BRANCH   2  11
ATOM     11  N   UNL d   1     -48.999  28.465  36.194  0.00  0.00    -0.189 NA
ATOM     12  C   UNL d   1     -48.563  28.939  36.014  0.00  0.00     0.076 A 
ATOM     13  C   UNL d   1     -48.032  29.091  35.137  0.00  0.00     0.093 A 
ATOM     14  N   UNL d   1     -47.627  29.829  35.430  0.00  0.00    -0.301 N 
ATOM     15  C   UNL d   1     -48.058  29.338  35.574  0.00  0.00     0.093 A 
ATOM     16  C   UNL d   1     -48.640  29.146  36.495  0.00  0.00     0.076 A 
BRANCH  14  17
ATOM     17  C   UNL d   1     -47.152  30.507  35.485  0.00  0.00     0.080 C 
BRANCH  17  18
ATOM     18  C   UNL d   1     -47.357  31.184  35.062  0.00  0.00     0.018 A 
ATOM     19  C   UNL d   1     -47.180  31.926  35.368  0.00  0.00     0.002 A 
ATOM     20  C   UNL d   1     -47.387  32.601  34.942  0.00  0.00     0.000 A 
ATOM     21  C   UNL d   1     -47.769  32.531  34.213  0.00  0.00     0.000 A 
ATOM     22  C   UNL d   1     -47.944  31.783  33.913  0.00  0.00     0.000 A 
ATOM     23  C   UNL d   1     -47.737  31.109  34.339  0.00  0.00     0.002 A 
ENDBRANCH  17  18
ENDBRANCH  14  17
ENDBRANCH   2  11
BRANCH   1  24
ATOM     24  C   UNL d   1     -49.467  27.564  35.325  0.00  0.00     0.104 C 
BRANCH  24  25
ATOM     25  C   UNL d   1     -49.851  27.591  34.584  0.00  0.00     0.303 C 
ATOM     26  O   UNL d   1     -49.685  28.203  34.057  0.00  0.00    -0.259 OA
BRANCH  25  27
ATOM     27  O   UNL d   1     -50.397  27.002  34.383  0.00  0.00    -0.271 OA
BRANCH  27  28
ATOM     28  C   UNL d   1     -50.605  26.879  33.595  0.00  0.00     0.126 C 
BRANCH  28  29
ATOM     29  C   UNL d   1     -51.217  26.362  33.402  0.00  0.00     0.025 C 
ATOM     30  C   UNL d   1     -51.981  26.649  33.306  0.00  0.00     0.002 C 
ATOM     31  C   UNL d   1     -51.061  25.556  33.306  0.00  0.00     0.002 C 
ENDBRANCH  28  29
ENDBRANCH  27  28
ENDBRANCH  25  27
ENDBRANCH  24  25
BRANCH  24  32
ATOM     32  C   UNL d   1     -48.660  27.667  35.453  0.00  0.00     0.129 C 
ATOM     33  N   UNL d   1     -48.046  27.204  35.138  0.00  0.00    -0.146 N 
ENDBRANCH  24  32
ENDBRANCH   1  24
TORSDOF 9
ENDMDL
MODEL 3
REMARK VINA RESULT:      98.6      2.201      3.885
REMARK  9 active torsions:
REMARK  status: ('A' for Active; 'I' for Inactive)
REMARK    1  A    between atoms: C_5  and  C_1 
REMARK    2  A    between atoms: N_6  and  C_2 
REMARK    3  A    between atoms: C_7  and  C_5 
REMARK    4  A    between atoms: C_8  and  C_5 
REMARK    5  A    between atoms: O_13  and  C_7 
REMARK    6  A    between atoms: C_17  and  N_12 
REMARK    7  A    between atoms: C_20  and  O_13 
REMARK    8  A    between atoms: C_21  and  C_17 
REMARK    9  A    between atoms: C_24  and  C_20 
ROOT
ATOM      1  C   UNL d   1     -47.526  30.928  35.016  0.00  0.00     0.117 A 
ATOM      2  C   UNL d   1     -48.134  30.743  34.495  0.00  0.00     0.145 A 
ATOM      3  N   UNL d   1     -48.436  31.320  33.983  0.00  0.00    -0.230 NA
ATOM      4  N   UNL d   1     -47.215  31.695  35.030  0.00  0.00    -0.241 NA
ATOM      5  C   UNL d   1     -48.124  32.088  33.996  0.00  0.00     0.100 A 
ATOM      6  C   UNL d   1     -47.509  32.270  34.526  0.00  0.00     0.099 A 
ATOM      7  C   UNL d   1     -48.423  32.667  33.486  0.00  0.00     0.021 A 
ATOM      8  C   UNL d   1     -47.202  33.030  34.537  0.00  0.00     0.021 A 
ATOM      9  C   UNL d   1     -48.108  33.424  33.506  0.00  0.00     0.002 A 
ATOM     10  C   UNL d   1     -47.495  33.614  34.031  0.00  0.00     0.002 A 
ENDROOT
BRANCH   2  11
ATOM     11  N   UNL d   1     -48.332  29.946  34.603  0.00  0.00    -0.189 NA
ATOM     12  C   UNL d   1     -48.508  29.306  34.527  0.00  0.00     0.076 A 
ATOM     13  C   UNL d   1     -48.641  28.541  35.213  0.00  0.00     0.093 A 
ATOM     14  N   UNL d   1     -48.862  27.935  34.598  0.00  0.00    -0.301 N 
ATOM     15  C   UNL d   1     -48.683  28.570  34.713  0.00  0.00     0.093 A 
ATOM     16  C   UNL d   1     -48.533  29.408  34.008  0.00  0.00     0.076 A 
BRANCH  14  17
ATOM     17  C   UNL d   1     -49.085  27.232  34.218  0.00  0.00     0.080 C 
BRANCH  17  18
ATOM     18  C   UNL d   1     -49.884  27.052  34.128  0.00  0.00     0.018 A 
ATOM     19  C   UNL d   1     -50.402  27.172  34.755  0.00  0.00     0.002 A 
ATOM     20  C   UNL d   1     -51.201  26.990  34.661  0.00  0.00     0.000 A 
ATOM     21  C   UNL d   1     -51.478  26.690  33.943  0.00  0.00     0.000 A 
ATOM     22  C   UNL d   1     -50.952  26.572  33.319  0.00  0.00     0.000 A 
ATOM     23  C   UNL d   1     -50.154  26.754  33.413  0.00  0.00     0.002 A 
ENDBRANCH  17  18
ENDBRANCH  14  17
ENDBRANCH   2  11
BRANCH   1  24
ATOM     24  C   UNL d   1     -47.345  30.247  35.450  0.00  0.00     0.104 C 
BRANCH  24  25
ATOM     25  C   UNL d   1     -47.419  30.161  36.278  0.00  0.00     0.303 C 
ATOM     26  O   UNL d   1     -48.163  30.206  36.631  0.00  0.00    -0.259 OA
BRANCH  25  27
ATOM     27  O   UNL d   1     -46.744  30.030  36.739  0.00  0.00    -0.271 OA
BRANCH  27  28
ATOM     28  C   UNL d   1     -46.753  30.199  37.546  0.00  0.00     0.126 C 
BRANCH  28  29
ATOM     29  C   UNL d   1     -46.165  29.901  38.040  0.00  0.00     0.025 C 
ATOM     30  C   UNL d   1     -45.902  30.344  38.679  0.00  0.00     0.002 C 
ATOM     31  C   UNL d   1     -45.839  29.155  37.891  0.00  0.00     0.002 C 
ENDBRANCH  28  29
ENDBRANCH  27  28
ENDBRANCH  25  27
ENDBRANCH  24  25
BRANCH  24  32
ATOM     32  C   UNL d   1     -47.079  29.670  34.928  0.00  0.00     0.129 C 
ATOM     33  N   UNL d   1     -46.322  29.326  34.915  0.00  0.00    -0.146 N 
ENDBRANCH  24  32
ENDBRANCH   1  24
TORSDOF 9
ENDMDL
MODEL 4
REMARK VINA RESULT:     100.1      1.097      1.639
REMARK  9 active torsions:
REMARK  status: ('A' for Active; 'I' for Inactive)
REMARK    1  A    between atoms: C_5  and  C_1 
REMARK    2  A    between atoms: N_6  and  C_2 
REMARK    3  A    between atoms: C_7  and  C_5 
REMARK    4  A    between atoms: C_8  and  C_5 
REMARK    5  A    between atoms: O_13  and  C_7 
REMARK    6  A    between atoms: C_17  and  N_12 
REMARK    7  A    between atoms: C_20  and  O_13 
REMARK    8  A    between atoms: C_21  and  C_17 
REMARK    9  A    between atoms: C_24  and  C_20 
ROOT
ATOM      1  C   UNL d   1     -48.182  29.200  35.683  0.00  0.00     0.117 A 
ATOM      2  C   UNL d   1     -48.328  29.336  34.886  0.00  0.00     0.145 A 
ATOM      3  N   UNL d   1     -48.061  30.032  34.524  0.00  0.00    -0.230 NA
ATOM      4  N   UNL d   1     -47.767  29.763  36.127  0.00  0.00    -0.241 NA
ATOM      5  C   UNL d   1     -47.646  30.595  34.967  0.00  0.00     0.100 A 
ATOM      6  C   UNL d   1     -47.500  30.454  35.775  0.00  0.00     0.099 A 
ATOM      7  C   UNL d   1     -47.377  31.292  34.610  0.00  0.00     0.021 A 
ATOM      8  C   UNL d   1     -47.089  31.011  36.212  0.00  0.00     0.021 A 
ATOM      9  C   UNL d   1     -46.967  31.843  35.057  0.00  0.00     0.002 A 
ATOM     10  C   UNL d   1     -46.818  31.710  35.862  0.00  0.00     0.002 A 
ENDROOT
BRANCH   2  11
ATOM     11  N   UNL d   1     -48.748  28.688  34.588  0.00  0.00    -0.189 NA
ATOM     12  C   UNL d   1     -49.191  28.281  34.296  0.00  0.00     0.076 A 
ATOM     13  C   UNL d   1     -49.220  27.250  34.194  0.00  0.00     0.093 A 
ATOM     14  N   UNL d   1     -49.989  27.246  33.746  0.00  0.00    -0.301 N 
ATOM     15  C   UNL d   1     -49.524  27.622  34.048  0.00  0.00     0.093 A 
ATOM     16  C   UNL d   1     -49.464  28.719  34.174  0.00  0.00     0.076 A 
BRANCH  14  17
ATOM     17  C   UNL d   1     -50.667  27.009  33.331  0.00  0.00     0.080 C 
BRANCH  17  18
ATOM     18  C   UNL d   1     -50.913  26.222  33.368  0.00  0.00     0.018 A 
ATOM     19  C   UNL d   1     -50.359  25.618  33.307  0.00  0.00     0.002 A 
ATOM     20  C   UNL d   1     -50.610  24.833  33.344  0.00  0.00     0.000 A 
ATOM     21  C   UNL d   1     -51.411  24.656  33.441  0.00  0.00     0.000 A 
ATOM     22  C   UNL d   1     -51.961  25.268  33.501  0.00  0.00     0.000 A 
ATOM     23  C   UNL d   1     -51.710  26.052  33.464  0.00  0.00     0.002 A 
ENDBRANCH  17  18
ENDBRANCH  14  17
ENDBRANCH   2  11
BRANCH   1  24
ATOM     24  C   UNL d   1     -48.512  28.469  35.884  0.00  0.00     0.104 C 
BRANCH  24  25
ATOM     25  C   UNL d   1     -49.022  28.322  36.528  0.00  0.00     0.303 C 
ATOM     26  O   UNL d   1     -49.102  28.886  37.126  0.00  0.00    -0.259 OA
BRANCH  25  27
ATOM     27  O   UNL d   1     -49.445  27.612  36.564  0.00  0.00    -0.271 OA
BRANCH  27  28
ATOM     28  C   UNL d   1     -49.782  27.363  37.274  0.00  0.00     0.126 C 
BRANCH  28  29
ATOM     29  C   UNL d   1     -50.519  26.996  37.279  0.00  0.00     0.025 C 
ATOM     30  C   UNL d   1     -50.705  26.457  37.871  0.00  0.00     0.002 C 
ATOM     31  C   UNL d   1     -51.071  27.169  36.688  0.00  0.00     0.002 C 
ENDBRANCH  28  29
ENDBRANCH  27  28
ENDBRANCH  25  27
ENDBRANCH  24  25
BRANCH  24  32
ATOM     32  C   UNL d   1     -48.250  27.909  35.340  0.00  0.00     0.129 C 
ATOM     33  N   UNL d   1     -47.474  27.821  35.055  0.00  0.00    -0.146 N 
ENDBRANCH  24  32
ENDBRANCH   1  24
TORSDOF 9
ENDMDL
