MODEL 1
REMARK VINA RESULT:      -8.1      0.000      0.000
REMARK  4 active torsions:
REMARK  status: ('A' for Active; 'I' for Inactive)
REMARK       I    between atoms: C_6  and  N_7 
REMARK    1  A    between atoms: C_8  and  C_6 
REMARK    2  A    between atoms: N_7  and  C_14 
REMARK    3  A    between atoms: C_14  and  C_13 
REMARK    4  A    between atoms: O_17  and  C_15 
ROOT
ATOM      1  C   UNL d   1     -49.289  12.116  23.088  0.00  0.00     0.279 C 
ATOM      2  N   UNL d   1     -48.493  12.255  23.241  0.00  0.00    -0.206 NA
ATOM      3  O   UNL d   1     -49.641  11.417  23.349  0.00  0.00    -0.265 OA
ENDROOT
BRANCH   2   4
ATOM      4  C   UNL d   1     -48.044  11.702  23.654  0.00  0.00     0.102 C 
BRANCH   4   5
ATOM      5  C   UNL d   1     -47.225  11.675  23.556  0.00  0.00     0.019 A 
ATOM      6  C   UNL d   1     -46.811  12.348  23.317  0.00  0.00     0.003 A 
ATOM      7  C   UNL d   1     -45.987  12.312  23.221  0.00  0.00     0.019 A 
ATOM      8  C   UNL d   1     -45.584  11.608  23.362  0.00  0.00     0.081 A 
ATOM      9  C   UNL d   1     -45.997  10.936  23.601  0.00  0.00     0.019 A 
ATOM     10  N   UNL d   1     -44.785  11.420  23.311  0.00  0.00    -0.246 NA
ATOM     11  C   UNL d   1     -46.815  10.966  23.698  0.00  0.00     0.003 A 
ATOM     12  C   UNL d   1     -45.449  10.326  23.698  0.00  0.00     0.021 A 
ATOM     13  C   UNL d   1     -44.703  10.625  23.519  0.00  0.00     0.082 A 
ATOM     14  C   UNL d   1     -43.993  10.203  23.544  0.00  0.00     0.021 C 
ENDBRANCH   4   5
ENDBRANCH   2   4
BRANCH   1  15
ATOM     15  C   UNL d   1     -49.731  12.674  22.674  0.00  0.00     0.060 A 
ATOM     16  C   UNL d   1     -49.990  13.359  23.053  0.00  0.00     0.029 A 
ATOM     17  C   UNL d   1     -50.430  13.915  22.639  0.00  0.00     0.094 A 
ATOM     18  C   UNL d   1     -50.617  13.785  21.832  0.00  0.00     0.024 A 
ATOM     19  C   UNL d   1     -50.358  13.099  21.453  0.00  0.00     0.002 A 
ATOM     20  C   UNL d   1     -49.910  12.537  21.876  0.00  0.00     0.005 A 
BRANCH  17  21
ATOM     21  O   UNL d   1     -50.693  14.606  23.014  0.00  0.00    -0.328 OA
ATOM     22  C   UNL d   1     -50.263  15.309  22.947  0.00  0.00     0.181 C 
ENDBRANCH  17  21
ENDBRANCH   1  15
TORSDOF 4
ENDMDL
MODEL 2
REMARK VINA RESULT:      -7.9      1.337      2.138
REMARK  4 active torsions:
REMARK  status: ('A' for Active; 'I' for Inactive)
REMARK       I    between atoms: C_6  and  N_7 
REMARK    1  A    between atoms: C_8  and  C_6 
REMARK    2  A    between atoms: N_7  and  C_14 
REMARK    3  A    between atoms: C_14  and  C_13 
REMARK    4  A    between atoms: O_17  and  C_15 
ROOT
ATOM      1  C   UNL d   1     -48.630  14.850  22.687  0.00  0.00     0.279 C 
ATOM      2  N   UNL d   1     -48.100  14.240  22.842  0.00  0.00    -0.206 NA
ATOM      3  O   UNL d   1     -48.351  15.621  22.591  0.00  0.00    -0.265 OA
ENDROOT
BRANCH   2   4
ATOM      4  C   UNL d   1     -47.293  14.392  22.902  0.00  0.00     0.102 C 
BRANCH   4   5
ATOM      5  C   UNL d   1     -46.750  13.772  22.867  0.00  0.00     0.019 A 
ATOM      6  C   UNL d   1     -46.095  13.820  22.368  0.00  0.00     0.003 A 
ATOM      7  C   UNL d   1     -45.553  13.192  22.338  0.00  0.00     0.019 A 
ATOM      8  C   UNL d   1     -45.667  12.523  22.806  0.00  0.00     0.081 A 
ATOM      9  C   UNL d   1     -46.322  12.476  23.305  0.00  0.00     0.019 A 
ATOM     10  N   UNL d   1     -45.227  11.834  22.885  0.00  0.00    -0.246 NA
ATOM     11  C   UNL d   1     -46.863  13.097  23.338  0.00  0.00     0.003 A 
ATOM     12  C   UNL d   1     -46.286  11.750  23.697  0.00  0.00     0.021 A 
ATOM     13  C   UNL d   1     -45.611  11.355  23.438  0.00  0.00     0.082 A 
ATOM     14  C   UNL d   1     -45.360  10.609  23.687  0.00  0.00     0.021 C 
ENDBRANCH   4   5
ENDBRANCH   2   4
BRANCH   1  15
ATOM     15  C   UNL d   1     -49.435  14.689  22.628  0.00  0.00     0.060 A 
ATOM     16  C   UNL d   1     -49.718  14.218  22.013  0.00  0.00     0.029 A 
ATOM     17  C   UNL d   1     -50.522  14.059  21.956  0.00  0.00     0.094 A 
ATOM     18  C   UNL d   1     -51.053  14.375  22.522  0.00  0.00     0.024 A 
ATOM     19  C   UNL d   1     -50.770  14.847  23.137  0.00  0.00     0.002 A 
ATOM     20  C   UNL d   1     -49.953  15.007  23.193  0.00  0.00     0.005 A 
BRANCH  17  21
ATOM     21  O   UNL d   1     -50.814  13.586  21.341  0.00  0.00    -0.328 OA
ATOM     22  C   UNL d   1     -50.762  12.762  21.386  0.00  0.00     0.181 C 
ENDBRANCH  17  21
ENDBRANCH   1  15
TORSDOF 4
ENDMDL
MODEL 3
REMARK VINA RESULT:      -7.6      1.444      1.902
REMARK  4 active torsions:
REMARK  status: ('A' for Active; 'I' for Inactive)
REMARK       I    between atoms: C_6  and  N_7 
REMARK    1  A    between atoms: C_8  and  C_6 
REMARK    2  A    between atoms: N_7  and  C_14 
REMARK    3  A    between atoms: C_14  and  C_13 
REMARK    4  A    between atoms: O_17  and  C_15 
ROOT
ATOM      1  C   UNL d   1     -48.744  11.807  23.328  0.00  0.00     0.279 C 
ATOM      2  N   UNL d   1     -48.125  12.338  23.220  0.00  0.00    -0.206 NA
ATOM      3  O   UNL d   1     -48.590  11.052  23.622  0.00  0.00    -0.265 OA
ENDROOT
BRANCH   2   4
ATOM      4  C   UNL d   1     -47.352  12.122  23.403  0.00  0.00     0.102 C 
BRANCH   4   5
ATOM      5  C   UNL d   1     -46.717  12.547  23.092  0.00  0.00     0.019 A 
ATOM      6  C   UNL d   1     -46.700  13.370  23.145  0.00  0.00     0.003 A 
ATOM      7  C   UNL d   1     -46.057  13.790  22.829  0.00  0.00     0.019 A 
ATOM      8  C   UNL d   1     -45.438  13.388  22.465  0.00  0.00     0.081 A 
ATOM      9  C   UNL d   1     -45.454  12.565  22.412  0.00  0.00     0.019 A 
ATOM     10  N   UNL d   1     -44.746  13.659  22.112  0.00  0.00    -0.246 NA
ATOM     11  C   UNL d   1     -46.090  12.144  22.724  0.00  0.00     0.003 A 
ATOM     12  C   UNL d   1     -44.766  12.325  22.023  0.00  0.00     0.021 A 
ATOM     13  C   UNL d   1     -44.331  12.999  21.839  0.00  0.00     0.082 A 
ATOM     14  C   UNL d   1     -43.604  13.015  21.448  0.00  0.00     0.021 C 
ENDBRANCH   4   5
ENDBRANCH   2   4
BRANCH   1  15
ATOM     15  C   UNL d   1     -49.514  12.032  23.142  0.00  0.00     0.060 A 
ATOM     16  C   UNL d   1     -49.679  12.375  22.410  0.00  0.00     0.029 A 
ATOM     17  C   UNL d   1     -50.447  12.598  22.226  0.00  0.00     0.094 A 
ATOM     18  C   UNL d   1     -51.063  12.476  22.782  0.00  0.00     0.024 A 
ATOM     19  C   UNL d   1     -50.898  12.133  23.514  0.00  0.00     0.002 A 
ATOM     20  C   UNL d   1     -50.116  11.907  23.698  0.00  0.00     0.005 A 
BRANCH  17  21
ATOM     21  O   UNL d   1     -50.621  12.944  21.493  0.00  0.00    -0.328 OA
ATOM     22  C   UNL d   1     -50.900  13.721  21.452  0.00  0.00     0.181 C 
ENDBRANCH  17  21
ENDBRANCH   1  15
TORSDOF 4
ENDMDL
MODEL 4
REMARK VINA RESULT:      -7.2      8.822      9.837
REMARK  4 active torsions:
REMARK  status: ('A' for Active; 'I' for Inactive)
REMARK       I    between atoms: C_6  and  N_7 
REMARK    1  A    between atoms: C_8  and  C_6 
REMARK    2  A    between atoms: N_7  and  C_14 
REMARK    3  A    between atoms: C_14  and  C_13 
REMARK    4  A    between atoms: O_17  and  C_15 
ROOT
ATOM      1  C   UNL d   1     -40.561  14.409  18.400  0.00  0.00     0.279 C 
ATOM      2  N   UNL d   1     -40.354  14.797  19.095  0.00  0.00    -0.206 NA
ATOM      3  O   UNL d   1     -40.943  13.679  18.437  0.00  0.00    -0.265 OA
ENDROOT
BRANCH   2   4
ATOM      4  C   UNL d   1     -40.525  14.462  19.828  0.00  0.00     0.102 C 
BRANCH   4   5
ATOM      5  C   UNL d   1     -40.273  14.831  20.522  0.00  0.00     0.019 A 
ATOM      6  C   UNL d   1     -40.592  15.558  20.747  0.00  0.00     0.003 A 
ATOM      7  C   UNL d   1     -40.333  15.922  21.447  0.00  0.00     0.019 A 
ATOM      8  C   UNL d   1     -39.761  15.560  21.916  0.00  0.00     0.081 A 
ATOM      9  C   UNL d   1     -39.442  14.833  21.690  0.00  0.00     0.019 A 
ATOM     10  N   UNL d   1     -39.410  15.792  22.622  0.00  0.00    -0.246 NA
ATOM     11  C   UNL d   1     -39.696  14.468  20.997  0.00  0.00     0.003 A 
ATOM     12  C   UNL d   1     -38.890  14.614  22.264  0.00  0.00     0.021 A 
ATOM     13  C   UNL d   1     -38.871  15.205  22.837  0.00  0.00     0.082 A 
ATOM     14  C   UNL d   1     -38.394  15.210  23.511  0.00  0.00     0.021 C 
ENDBRANCH   4   5
ENDBRANCH   2   4
BRANCH   1  15
ATOM     15  C   UNL d   1     -40.385  14.750  17.672  0.00  0.00     0.060 A 
ATOM     16  C   UNL d   1     -39.667  14.586  17.301  0.00  0.00     0.029 A 
ATOM     17  C   UNL d   1     -39.494  14.928  16.575  0.00  0.00     0.094 A 
ATOM     18  C   UNL d   1     -40.047  15.441  16.211  0.00  0.00     0.024 A 
ATOM     19  C   UNL d   1     -40.766  15.605  16.581  0.00  0.00     0.002 A 
ATOM     20  C   UNL d   1     -40.939  15.257  17.319  0.00  0.00     0.005 A 
BRANCH  17  21
ATOM     21  O   UNL d   1     -38.773  14.768  16.197  0.00  0.00    -0.328 OA
ATOM     22  C   UNL d   1     -38.260  15.384  15.995  0.00  0.00     0.181 C 
ENDBRANCH  17  21
ENDBRANCH   1  15
TORSDOF 4
ENDMDL
MODEL 5
REMARK VINA RESULT:      -7.0      8.653     10.138
REMARK  4 active torsions:
REMARK  status: ('A' for Active; 'I' for Inactive)
REMARK       I    between atoms: C_6  and  N_7 
REMARK    1  A    between atoms: C_8  and  C_6 
REMARK    2  A    between atoms: N_7  and  C_14 
REMARK    3  A    between atoms: C_14  and  C_13 
REMARK    4  A    between atoms: O_17  and  C_15 
ROOT
ATOM      1  C   UNL d   1     -40.407  14.582  20.591  0.00  0.00     0.279 C 
ATOM      2  N   UNL d   1     -40.081  14.629  19.836  0.00  0.00    -0.206 NA
ATOM      3  O   UNL d   1     -41.164  14.271  20.691  0.00  0.00    -0.265 OA
ENDROOT
BRANCH   2   4
ATOM      4  C   UNL d   1     -40.505  14.368  19.181  0.00  0.00     0.102 C 
BRANCH   4   5
ATOM      5  C   UNL d   1     -40.181  14.430  18.425  0.00  0.00     0.019 A 
ATOM      6  C   UNL d   1     -40.459  15.001  17.897  0.00  0.00     0.003 A 
ATOM      7  C   UNL d   1     -40.127  15.056  17.138  0.00  0.00     0.019 A 
ATOM      8  C   UNL d   1     -39.523  14.545  16.911  0.00  0.00     0.081 A 
ATOM      9  C   UNL d   1     -39.245  13.975  17.439  0.00  0.00     0.019 A 
ATOM     10  N   UNL d   1     -39.103  14.478  16.208  0.00  0.00    -0.246 NA
ATOM     11  C   UNL d   1     -39.572  13.916  18.193  0.00  0.00     0.003 A 
ATOM     12  C   UNL d   1     -38.648  13.552  17.057  0.00  0.00     0.021 A 
ATOM     13  C   UNL d   1     -38.561  13.863  16.299  0.00  0.00     0.082 A 
ATOM     14  C   UNL d   1     -38.023  13.603  15.728  0.00  0.00     0.021 C 
ENDBRANCH   4   5
ENDBRANCH   2   4
BRANCH   1  15
ATOM     15  C   UNL d   1     -39.976  14.845  21.241  0.00  0.00     0.060 A 
ATOM     16  C   UNL d   1     -39.538  14.308  21.690  0.00  0.00     0.029 A 
ATOM     17  C   UNL d   1     -39.109  14.573  22.339  0.00  0.00     0.094 A 
ATOM     18  C   UNL d   1     -39.116  15.386  22.543  0.00  0.00     0.024 A 
ATOM     19  C   UNL d   1     -39.553  15.922  22.093  0.00  0.00     0.002 A 
ATOM     20  C   UNL d   1     -39.989  15.651  21.435  0.00  0.00     0.005 A 
BRANCH  17  21
ATOM     21  O   UNL d   1     -38.667  14.040  22.795  0.00  0.00    -0.328 OA
ATOM     22  C   UNL d   1     -38.384  14.260  23.540  0.00  0.00     0.181 C 
ENDBRANCH  17  21
ENDBRANCH   1  15
TORSDOF 4
ENDMDL
