MODEL 1
REMARK VINA RESULT:      -5.0      0.000      0.000
REMARK  2 active torsions:
REMARK  status: ('A' for Active; 'I' for Inactive)
REMARK    1  A    between atoms: C_2  and  C_1 
REMARK    2  A    between atoms: N_6  and  C_2 
ROOT
ATOM      1  C   UNL d   1     -41.302-122.540 -53.072  0.00  0.00     0.047 A 
ATOM      2  C   UNL d   1     -41.192-121.724 -52.986  0.00  0.00     0.101 A 
ATOM      3  C   UNL d   1     -41.304-122.873 -52.317  0.00  0.00     0.021 A 
ATOM      4  N   UNL d   1     -41.126-121.556 -52.180  0.00  0.00    -0.244 NA
ATOM      5  C   UNL d   1     -41.196-122.270 -51.768  0.00  0.00     0.082 A 
ATOM      6  C   UNL d   1     -41.390-123.646 -52.061  0.00  0.00     0.002 A 
ATOM      7  C   UNL d   1     -41.174-122.438 -50.965  0.00  0.00     0.019 A 
ATOM      8  C   UNL d   1     -41.368-123.817 -51.256  0.00  0.00     0.000 A 
ATOM      9  C   UNL d   1     -41.259-123.210 -50.706  0.00  0.00     0.002 A 
ENDROOT
BRANCH   1  10
ATOM     10  C   UNL d   1     -41.394-122.952 -53.780  0.00  0.00     0.122 C 
ATOM     11  S   UNL d   1     -41.123-123.727 -53.848  0.00  0.00    -0.059 SA
BRANCH  10  12
ATOM     12  N   UNL d   1     -41.760-122.580 -54.422  0.00  0.00    -0.292 N 
ATOM     13  C   UNL d   1     -42.587-122.522 -54.449  0.00  0.00     0.108 A 
ATOM     14  C   UNL d   1     -42.953-122.151 -55.090  0.00  0.00     0.142 A 
ATOM     15  O   UNL d   1     -42.494-121.839 -55.702  0.00  0.00    -0.300 OA
ATOM     16  C   UNL d   1     -41.668-121.898 -55.672  0.00  0.00     0.142 A 
ATOM     17  C   UNL d   1     -41.303-122.269 -55.032  0.00  0.00     0.108 A 
ENDBRANCH  10  12
ENDBRANCH   1  10
TORSDOF 2
ENDMDL
MODEL 2
REMARK VINA RESULT:      -4.0      2.295      3.888
REMARK  2 active torsions:
REMARK  status: ('A' for Active; 'I' for Inactive)
REMARK    1  A    between atoms: C_2  and  C_1 
REMARK    2  A    between atoms: N_6  and  C_2 
ROOT
ATOM      1  C   UNL d   1     -41.448-122.577 -51.154  0.00  0.00     0.047 A 
ATOM      2  C   UNL d   1     -41.416-121.753 -51.088  0.00  0.00     0.101 A 
ATOM      3  C   UNL d   1     -41.350-122.768 -51.951  0.00  0.00     0.021 A 
ATOM      4  N   UNL d   1     -41.298-121.438 -51.842  0.00  0.00    -0.244 NA
ATOM      5  C   UNL d   1     -41.258-122.069 -52.375  0.00  0.00     0.082 A 
ATOM      6  C   UNL d   1     -41.333-123.487 -52.343  0.00  0.00     0.002 A 
ATOM      7  C   UNL d   1     -41.149-122.088 -53.188  0.00  0.00     0.019 A 
ATOM      8  C   UNL d   1     -41.224-123.508 -53.159  0.00  0.00     0.000 A 
ATOM      9  C   UNL d   1     -41.132-122.804 -53.583  0.00  0.00     0.002 A 
ENDROOT
BRANCH   1  10
ATOM     10  C   UNL d   1     -41.558-123.117 -50.540  0.00  0.00     0.122 C 
ATOM     11  S   UNL d   1     -41.123-123.816 -50.519  0.00  0.00    -0.059 SA
BRANCH  10  12
ATOM     12  N   UNL d   1     -42.108-122.949 -49.946  0.00  0.00    -0.292 N 
ATOM     13  C   UNL d   1     -41.847-122.731 -49.190  0.00  0.00     0.108 A 
ATOM     14  C   UNL d   1     -42.397-122.563 -48.596  0.00  0.00     0.142 A 
ATOM     15  O   UNL d   1     -43.205-122.615 -48.759  0.00  0.00    -0.300 OA
ATOM     16  C   UNL d   1     -43.463-122.833 -49.514  0.00  0.00     0.142 A 
ATOM     17  C   UNL d   1     -42.914-123.000 -50.107  0.00  0.00     0.108 A 
ENDBRANCH  10  12
ENDBRANCH   1  10
TORSDOF 2
ENDMDL
MODEL 3
REMARK VINA RESULT:      -4.0      2.085      3.103
REMARK  2 active torsions:
REMARK  status: ('A' for Active; 'I' for Inactive)
REMARK    1  A    between atoms: C_2  and  C_1 
REMARK    2  A    between atoms: N_6  and  C_2 
ROOT
ATOM      1  C   UNL d   1     -42.189-122.678 -50.329  0.00  0.00     0.047 A 
ATOM      2  C   UNL d   1     -43.007-122.672 -50.449  0.00  0.00     0.101 A 
ATOM      3  C   UNL d   1     -42.045-123.042 -49.602  0.00  0.00     0.021 A 
ATOM      4  N   UNL d   1     -43.366-123.032 -49.798  0.00  0.00    -0.244 NA
ATOM      5  C   UNL d   1     -42.768-123.260 -49.275  0.00  0.00     0.082 A 
ATOM      6  C   UNL d   1     -41.350-123.202 -49.199  0.00  0.00     0.002 A 
ATOM      7  C   UNL d   1     -42.796-123.637 -48.547  0.00  0.00     0.019 A 
ATOM      8  C   UNL d   1     -41.377-123.580 -48.468  0.00  0.00     0.000 A 
ATOM      9  C   UNL d   1     -42.104-123.799 -48.141  0.00  0.00     0.002 A 
ENDROOT
BRANCH   1  10
ATOM     10  C   UNL d   1     -41.614-122.376 -50.838  0.00  0.00     0.122 C 
ATOM     11  S   UNL d   1     -41.123-121.762 -50.592  0.00  0.00    -0.059 SA
BRANCH  10  12
ATOM     12  N   UNL d   1     -41.536-122.695 -51.597  0.00  0.00    -0.292 N 
ATOM     13  C   UNL d   1     -41.204-123.448 -51.697  0.00  0.00     0.108 A 
ATOM     14  C   UNL d   1     -41.126-123.767 -52.456  0.00  0.00     0.142 A 
ATOM     15  O   UNL d   1     -41.380-123.333 -53.112  0.00  0.00    -0.300 OA
ATOM     16  C   UNL d   1     -41.711-122.581 -53.009  0.00  0.00     0.142 A 
ATOM     17  C   UNL d   1     -41.789-122.264 -52.251  0.00  0.00     0.108 A 
ENDBRANCH  10  12
ENDBRANCH   1  10
TORSDOF 2
ENDMDL
