MODEL 1
REMARK VINA RESULT:      -9.1      0.000      0.000
REMARK  5 active torsions:
REMARK  status: ('A' for Active; 'I' for Inactive)
REMARK    1  A    between atoms: C_7  and  C_1 
REMARK    2  A    between atoms: C_6  and  C_3 
REMARK       I    between atoms: N_8  and  C_6 
REMARK    3  A    between atoms: O_14  and  C_7 
REMARK    4  A    between atoms: C_13  and  N_8 
REMARK    5  A    between atoms: C_15  and  O_14 
ROOT
ATOM      1  C   UNL d   1      51.893  33.564  53.121  0.00  0.00     0.090 A 
ATOM      2  C   UNL d   1      52.615  33.962  53.031  0.00  0.00     0.138 A 
ATOM      3  C   UNL d   1      52.859  32.680  53.038  0.00  0.00     0.089 A 
ATOM      4  C   UNL d   1      52.060  32.755  53.124  0.00  0.00     0.018 A 
ATOM      5  S   UNL d   1      53.179  33.375  52.984  0.00  0.00    -0.061 SA
ATOM      6  N   UNL d   1      52.704  34.801  52.998  0.00  0.00    -0.141 N 
ATOM      7  C   UNL d   1      51.460  32.149  53.206  0.00  0.00     0.001 C 
ENDROOT
BRANCH   3   8
ATOM      8  C   UNL d   1      53.182  31.933  53.022  0.00  0.00     0.285 C 
ATOM      9  N   UNL d   1      53.801  31.766  53.514  0.00  0.00    -0.208 NA
ATOM     10  O   UNL d   1      52.866  31.364  52.500  0.00  0.00    -0.265 OA
BRANCH   9  11
ATOM     11  C   UNL d   1      54.099  32.341  54.021  0.00  0.00     0.085 A 
ATOM     12  C   UNL d   1      54.602  32.882  53.788  0.00  0.00     0.019 A 
ATOM     13  C   UNL d   1      54.857  33.415  54.324  0.00  0.00     0.002 A 
ATOM     14  C   UNL d   1      54.640  33.441  55.080  0.00  0.00     0.000 A 
ATOM     15  C   UNL d   1      54.103  32.885  55.384  0.00  0.00     0.002 A 
ATOM     16  C   UNL d   1      53.836  32.324  54.812  0.00  0.00     0.019 A 
ENDBRANCH   9  11
ENDBRANCH   3   8
BRANCH   1  17
ATOM     17  C   UNL d   1      51.166  33.915  53.192  0.00  0.00     0.302 C 
ATOM     18  O   UNL d   1      50.846  34.083  53.947  0.00  0.00    -0.259 OA
BRANCH  17  19
ATOM     19  O   UNL d   1      50.721  34.118  52.528  0.00  0.00    -0.271 OA
BRANCH  19  20
ATOM     20  C   UNL d   1      49.987  34.469  52.640  0.00  0.00     0.126 C 
ATOM     21  C   UNL d   1      49.515  34.622  51.982  0.00  0.00     0.029 C 
ENDBRANCH  19  20
ENDBRANCH  17  19
ENDBRANCH   1  17
TORSDOF 5
ENDMDL
MODEL 2
REMARK VINA RESULT:      -7.9      1.299      2.040
REMARK  5 active torsions:
REMARK  status: ('A' for Active; 'I' for Inactive)
REMARK    1  A    between atoms: C_7  and  C_1 
REMARK    2  A    between atoms: C_6  and  C_3 
REMARK       I    between atoms: N_8  and  C_6 
REMARK    3  A    between atoms: O_14  and  C_7 
REMARK    4  A    between atoms: C_13  and  N_8 
REMARK    5  A    between atoms: C_15  and  O_14 
ROOT
ATOM      1  C   UNL d   1      51.820  34.003  53.221  0.00  0.00     0.090 A 
ATOM      2  C   UNL d   1      51.821  33.273  53.613  0.00  0.00     0.138 A 
ATOM      3  C   UNL d   1      52.730  34.029  54.166  0.00  0.00     0.089 A 
ATOM      4  C   UNL d   1      52.397  34.472  53.578  0.00  0.00     0.018 A 
ATOM      5  S   UNL d   1      52.397  33.338  54.186  0.00  0.00    -0.061 SA
ATOM      6  N   UNL d   1      51.314  32.623  53.428  0.00  0.00    -0.141 N 
ATOM      7  C   UNL d   1      52.573  35.275  53.333  0.00  0.00     0.001 C 
ENDROOT
BRANCH   3   8
ATOM      8  C   UNL d   1      53.323  34.357  54.615  0.00  0.00     0.285 C 
ATOM      9  N   UNL d   1      54.013  33.948  54.708  0.00  0.00    -0.208 NA
ATOM     10  O   UNL d   1      53.202  35.105  54.966  0.00  0.00    -0.265 OA
BRANCH   9  11
ATOM     11  C   UNL d   1      54.113  33.213  54.355  0.00  0.00     0.085 A 
ATOM     12  C   UNL d   1      53.830  32.560  54.662  0.00  0.00     0.019 A 
ATOM     13  C   UNL d   1      53.958  31.874  54.274  0.00  0.00     0.002 A 
ATOM     14  C   UNL d   1      54.352  31.800  53.598  0.00  0.00     0.000 A 
ATOM     15  C   UNL d   1      54.677  32.467  53.223  0.00  0.00     0.002 A 
ATOM     16  C   UNL d   1      54.538  33.189  53.638  0.00  0.00     0.019 A 
ENDBRANCH   9  11
ENDBRANCH   3   8
BRANCH   1  17
ATOM     17  C   UNL d   1      51.336  34.206  52.602  0.00  0.00     0.302 C 
ATOM     18  O   UNL d   1      51.618  34.178  51.814  0.00  0.00    -0.259 OA
BRANCH  17  19
ATOM     19  O   UNL d   1      50.557  34.445  52.728  0.00  0.00    -0.271 OA
BRANCH  19  20
ATOM     20  C   UNL d   1      50.066  34.537  52.076  0.00  0.00     0.126 C 
ATOM     21  C   UNL d   1      49.296  34.808  52.193  0.00  0.00     0.029 C 
ENDBRANCH  19  20
ENDBRANCH  17  19
ENDBRANCH   1  17
TORSDOF 5
ENDMDL
MODEL 3
REMARK VINA RESULT:      -7.7      1.358      2.956
REMARK  5 active torsions:
REMARK  status: ('A' for Active; 'I' for Inactive)
REMARK    1  A    between atoms: C_7  and  C_1 
REMARK    2  A    between atoms: C_6  and  C_3 
REMARK       I    between atoms: N_8  and  C_6 
REMARK    3  A    between atoms: O_14  and  C_7 
REMARK    4  A    between atoms: C_13  and  N_8 
REMARK    5  A    between atoms: C_15  and  O_14 
ROOT
ATOM      1  C   UNL d   1      53.182  31.950  53.158  0.00  0.00     0.090 A 
ATOM      2  C   UNL d   1      53.957  32.246  53.136  0.00  0.00     0.138 A 
ATOM      3  C   UNL d   1      53.156  33.234  53.425  0.00  0.00     0.089 A 
ATOM      4  C   UNL d   1      52.686  32.583  53.342  0.00  0.00     0.018 A 
ATOM      5  S   UNL d   1      53.889  33.039  53.306  0.00  0.00    -0.061 SA
ATOM      6  N   UNL d   1      54.645  31.786  52.967  0.00  0.00    -0.141 N 
ATOM      7  C   UNL d   1      51.835  32.511  53.418  0.00  0.00     0.001 C 
ENDROOT
BRANCH   3   8
ATOM      8  C   UNL d   1      52.809  33.947  53.609  0.00  0.00     0.285 C 
ATOM      9  N   UNL d   1      53.079  34.358  54.249  0.00  0.00    -0.208 NA
ATOM     10  O   UNL d   1      52.186  34.231  53.131  0.00  0.00    -0.265 OA
BRANCH   9  11
ATOM     11  C   UNL d   1      53.694  34.062  54.707  0.00  0.00     0.085 A 
ATOM     12  C   UNL d   1      53.582  33.537  55.266  0.00  0.00     0.019 A 
ATOM     13  C   UNL d   1      54.217  33.285  55.679  0.00  0.00     0.002 A 
ATOM     14  C   UNL d   1      54.958  33.524  55.567  0.00  0.00     0.000 A 
ATOM     15  C   UNL d   1      55.137  34.085  54.981  0.00  0.00     0.002 A 
ATOM     16  C   UNL d   1      54.461  34.348  54.547  0.00  0.00     0.019 A 
ENDBRANCH   9  11
ENDBRANCH   3   8
BRANCH   1  17
ATOM     17  C   UNL d   1      52.967  31.180  53.023  0.00  0.00     0.302 C 
ATOM     18  O   UNL d   1      52.666  30.947  52.278  0.00  0.00    -0.259 OA
BRANCH  17  19
ATOM     19  O   UNL d   1      53.036  30.606  53.611  0.00  0.00    -0.271 OA
BRANCH  19  20
ATOM     20  C   UNL d   1      52.871  29.826  53.418  0.00  0.00     0.126 C 
ATOM     21  C   UNL d   1      52.984  29.242  53.989  0.00  0.00     0.029 C 
ENDBRANCH  19  20
ENDBRANCH  17  19
ENDBRANCH   1  17
TORSDOF 5
ENDMDL
MODEL 4
REMARK VINA RESULT:      -7.5      1.528      3.723
REMARK  5 active torsions:
REMARK  status: ('A' for Active; 'I' for Inactive)
REMARK    1  A    between atoms: C_7  and  C_1 
REMARK    2  A    between atoms: C_6  and  C_3 
REMARK       I    between atoms: N_8  and  C_6 
REMARK    3  A    between atoms: O_14  and  C_7 
REMARK    4  A    between atoms: C_13  and  N_8 
REMARK    5  A    between atoms: C_15  and  O_14 
ROOT
ATOM      1  C   UNL d   1      52.825  31.878  53.356  0.00  0.00     0.090 A 
ATOM      2  C   UNL d   1      52.041  32.127  53.463  0.00  0.00     0.138 A 
ATOM      3  C   UNL d   1      52.819  33.158  53.645  0.00  0.00     0.089 A 
ATOM      4  C   UNL d   1      53.307  32.538  53.473  0.00  0.00     0.018 A 
ATOM      5  S   UNL d   1      52.090  32.921  53.639  0.00  0.00    -0.061 SA
ATOM      6  N   UNL d   1      51.362  31.629  53.396  0.00  0.00    -0.141 N 
ATOM      7  C   UNL d   1      54.162  32.516  53.412  0.00  0.00     0.001 C 
ENDROOT
BRANCH   3   8
ATOM      8  C   UNL d   1      53.149  33.888  53.788  0.00  0.00     0.285 C 
ATOM      9  N   UNL d   1      52.807  34.542  53.460  0.00  0.00    -0.208 NA
ATOM     10  O   UNL d   1      53.830  33.940  54.269  0.00  0.00    -0.265 OA
BRANCH   9  11
ATOM     11  C   UNL d   1      52.137  34.470  52.989  0.00  0.00     0.085 A 
ATOM     12  C   UNL d   1      51.422  34.433  53.285  0.00  0.00     0.019 A 
ATOM     13  C   UNL d   1      50.808  34.364  52.779  0.00  0.00     0.002 A 
ATOM     14  C   UNL d   1      50.865  34.330  51.996  0.00  0.00     0.000 A 
ATOM     15  C   UNL d   1      51.607  34.365  51.624  0.00  0.00     0.002 A 
ATOM     16  C   UNL d   1      52.253  34.438  52.164  0.00  0.00     0.019 A 
ENDBRANCH   9  11
ENDBRANCH   3   8
BRANCH   1  17
ATOM     17  C   UNL d   1      53.060  31.125  53.170  0.00  0.00     0.302 C 
ATOM     18  O   UNL d   1      53.071  30.867  52.374  0.00  0.00    -0.259 OA
BRANCH  17  19
ATOM     19  O   UNL d   1      53.294  30.593  53.755  0.00  0.00    -0.271 OA
BRANCH  19  20
ATOM     20  C   UNL d   1      53.376  29.801  53.554  0.00  0.00     0.126 C 
ATOM     21  C   UNL d   1      53.459  29.244  54.156  0.00  0.00     0.029 C 
ENDBRANCH  19  20
ENDBRANCH  17  19
ENDBRANCH   1  17
TORSDOF 5
ENDMDL
MODEL 5
REMARK VINA RESULT:      -6.9      1.754      2.665
REMARK  5 active torsions:
REMARK  status: ('A' for Active; 'I' for Inactive)
REMARK    1  A    between atoms: C_7  and  C_1 
REMARK    2  A    between atoms: C_6  and  C_3 
REMARK       I    between atoms: N_8  and  C_6 
REMARK    3  A    between atoms: O_14  and  C_7 
REMARK    4  A    between atoms: C_13  and  N_8 
REMARK    5  A    between atoms: C_15  and  O_14 
ROOT
ATOM      1  C   UNL d   1      53.354  33.135  53.997  0.00  0.00     0.090 A 
ATOM      2  C   UNL d   1      54.017  32.686  53.778  0.00  0.00     0.138 A 
ATOM      3  C   UNL d   1      53.001  32.281  53.065  0.00  0.00     0.089 A 
ATOM      4  C   UNL d   1      52.720  32.870  53.540  0.00  0.00     0.018 A 
ATOM      5  S   UNL d   1      53.749  32.175  53.203  0.00  0.00    -0.061 SA
ATOM      6  N   UNL d   1      54.789  32.772  54.108  0.00  0.00    -0.141 N 
ATOM      7  C   UNL d   1      51.928  33.193  53.597  0.00  0.00     0.001 C 
ENDROOT
BRANCH   3   8
ATOM      8  C   UNL d   1      52.489  31.914  52.551  0.00  0.00     0.285 C 
ATOM      9  N   UNL d   1      52.434  31.108  52.563  0.00  0.00    -0.208 NA
ATOM     10  O   UNL d   1      52.037  32.380  52.026  0.00  0.00    -0.265 OA
BRANCH   9  11
ATOM     11  C   UNL d   1      52.888  30.667  53.087  0.00  0.00     0.085 A 
ATOM     12  C   UNL d   1      53.641  30.524  52.968  0.00  0.00     0.019 A 
ATOM     13  C   UNL d   1      54.032  30.089  53.512  0.00  0.00     0.002 A 
ATOM     14  C   UNL d   1      53.718  29.788  54.167  0.00  0.00     0.000 A 
ATOM     15  C   UNL d   1      52.915  29.910  54.345  0.00  0.00     0.002 A 
ATOM     16  C   UNL d   1      52.507  30.371  53.767  0.00  0.00     0.019 A 
ENDBRANCH   9  11
ENDBRANCH   3   8
BRANCH   1  17
ATOM     17  C   UNL d   1      53.345  33.722  54.556  0.00  0.00     0.302 C 
ATOM     18  O   UNL d   1      53.342  33.532  55.371  0.00  0.00    -0.259 OA
BRANCH  17  19
ATOM     19  O   UNL d   1      53.338  34.518  54.342  0.00  0.00    -0.271 OA
BRANCH  19  20
ATOM     20  C   UNL d   1      53.258  35.082  54.933  0.00  0.00     0.126 C 
ATOM     21  C   UNL d   1      53.202  35.876  54.720  0.00  0.00     0.029 C 
ENDBRANCH  19  20
ENDBRANCH  17  19
ENDBRANCH   1  17
TORSDOF 5
ENDMDL
MODEL 6
REMARK VINA RESULT:      -6.2      1.452      3.453
REMARK  5 active torsions:
REMARK  status: ('A' for Active; 'I' for Inactive)
REMARK    1  A    between atoms: C_7  and  C_1 
REMARK    2  A    between atoms: C_6  and  C_3 
REMARK       I    between atoms: N_8  and  C_6 
REMARK    3  A    between atoms: O_14  and  C_7 
REMARK    4  A    between atoms: C_13  and  N_8 
REMARK    5  A    between atoms: C_15  and  O_14 
ROOT
ATOM      1  C   UNL d   1      53.471  33.754  54.101  0.00  0.00     0.090 A 
ATOM      2  C   UNL d   1      53.207  34.330  53.566  0.00  0.00     0.138 A 
ATOM      3  C   UNL d   1      52.816  33.164  53.129  0.00  0.00     0.089 A 
ATOM      4  C   UNL d   1      53.218  33.022  53.815  0.00  0.00     0.018 A 
ATOM      5  S   UNL d   1      52.810  33.918  52.986  0.00  0.00    -0.061 SA
ATOM      6  N   UNL d   1      53.343  35.160  53.643  0.00  0.00    -0.141 N 
ATOM      7  C   UNL d   1      53.379  32.278  54.210  0.00  0.00     0.001 C 
ENDROOT
BRANCH   3   8
ATOM      8  C   UNL d   1      52.501  32.534  52.722  0.00  0.00     0.285 C 
ATOM      9  N   UNL d   1      51.733  32.573  52.477  0.00  0.00    -0.208 NA
ATOM     10  O   UNL d   1      52.980  31.867  52.571  0.00  0.00    -0.265 OA
BRANCH   9  11
ATOM     11  C   UNL d   1      51.278  33.239  52.635  0.00  0.00     0.085 A 
ATOM     12  C   UNL d   1      51.302  33.876  52.194  0.00  0.00     0.019 A 
ATOM     13  C   UNL d   1      50.837  34.493  52.396  0.00  0.00     0.002 A 
ATOM     14  C   UNL d   1      50.350  34.513  53.012  0.00  0.00     0.000 A 
ATOM     15  C   UNL d   1      50.283  33.859  53.520  0.00  0.00     0.002 A 
ATOM     16  C   UNL d   1      50.777  33.209  53.301  0.00  0.00     0.019 A 
ENDBRANCH   9  11
ENDBRANCH   3   8
BRANCH   1  17
ATOM     17  C   UNL d   1      53.897  33.896  54.777  0.00  0.00     0.302 C 
ATOM     18  O   UNL d   1      53.514  34.155  55.475  0.00  0.00    -0.259 OA
BRANCH  17  19
ATOM     19  O   UNL d   1      54.715  33.792  54.797  0.00  0.00    -0.271 OA
BRANCH  19  20
ATOM     20  C   UNL d   1      55.113  33.962  55.495  0.00  0.00     0.126 C 
ATOM     21  C   UNL d   1      55.938  33.961  55.492  0.00  0.00     0.029 C 
ENDBRANCH  19  20
ENDBRANCH  17  19
ENDBRANCH   1  17
TORSDOF 5
ENDMDL
