MODEL 1
REMARK VINA RESULT:      20.9      0.000      0.000
REMARK  8 active torsions:
REMARK  status: ('A' for Active; 'I' for Inactive)
REMARK    1  A    between atoms: N_10  and  C_4 
REMARK    2  A    between atoms: C_17  and  N_5 
REMARK    3  A    between atoms: C_16  and  N_10 
REMARK    4  A    between atoms: C_11  and  S_19 
REMARK    5  A    between atoms: C_20  and  C_16 
REMARK    6  A    between atoms: C_21  and  C_17 
REMARK    7  A    between atoms: S_19  and  C_26 
REMARK    8  A    between atoms: C_26  and  C_21 
ROOT
ATOM      1  C   UNL d   1     -42.599-121.773 -54.035  0.00  0.00     0.191 A 
ATOM      2  C   UNL d   1     -42.182-122.363 -53.636  0.00  0.00     0.174 A 
ATOM      3  N   UNL d   1     -43.109-121.403 -53.496  0.00  0.00    -0.042 NA
ATOM      4  C   UNL d   1     -42.991-121.784 -52.762  0.00  0.00     0.722 A 
ATOM      5  N   UNL d   1     -42.433-122.390 -52.766  0.00  0.00    -0.132 N 
ATOM      6  N   UNL d   1     -42.464-121.644 -54.837  0.00  0.00    -0.239 N 
ATOM      7  C   UNL d   1     -41.899-122.111 -55.265  0.00  0.00     0.358 A 
ATOM      8  N   UNL d   1     -41.483-122.701 -54.867  0.00  0.00    -0.152 NA
ATOM      9  C   UNL d   1     -41.631-122.825 -54.040  0.00  0.00     0.303 A 
ATOM     10  O   UNL d   1     -41.755-121.987 -56.084  0.00  0.00    -0.244 OA
ATOM     11  O   UNL d   1     -41.215-123.415 -53.641  0.00  0.00    -0.263 OA
ATOM     12  C   UNL d   1     -42.880-121.054 -55.236  0.00  0.00     0.105 C 
ENDROOT
BRANCH   5  13
ATOM     13  C   UNL d   1     -42.014-122.978 -52.383  0.00  0.00     0.099 C 
BRANCH  13  14
ATOM     14  C   UNL d   1     -41.596-122.787 -51.702  0.00  0.00     0.027 C 
BRANCH  14  15
ATOM     15  C   UNL d   1     -41.692-123.236 -51.028  0.00  0.00     0.040 C 
BRANCH  15  16
ATOM     16  S   UNL d   1     -41.133-123.183 -50.418  0.00  0.00    -0.048 SA
BRANCH  16  17
ATOM     17  C   UNL d   1     -41.388-123.146 -49.635  0.00  0.00     0.194 A 
ATOM     18  N   UNL d   1     -41.358-123.817 -49.159  0.00  0.00    -0.220 NA
ATOM     19  C   UNL d   1     -41.611-123.773 -48.388  0.00  0.00     0.103 A 
ATOM     20  C   UNL d   1     -41.896-123.060 -48.081  0.00  0.00     0.041 A 
ATOM     21  C   UNL d   1     -41.928-122.380 -48.557  0.00  0.00     0.103 A 
ATOM     22  N   UNL d   1     -41.670-122.430 -49.339  0.00  0.00    -0.220 NA
ENDBRANCH  16  17
ENDBRANCH  15  16
ENDBRANCH  14  15
ENDBRANCH  13  14
ENDBRANCH   5  13
BRANCH   4  23
ATOM     23  N   UNL d   1     -43.387-121.593 -52.065  0.00  0.00    -0.137 N 
ATOM     24  C   UNL d   1     -43.024-121.133 -51.496  0.00  0.00     0.118 C 
BRANCH  23  25
ATOM     25  C   UNL d   1     -44.153-121.864 -51.937  0.00  0.00     0.098 C 
BRANCH  25  26
ATOM     26  C   UNL d   1     -44.436-121.960 -51.168  0.00  0.00     0.018 A 
ATOM     27  C   UNL d   1     -44.847-121.340 -50.800  0.00  0.00     0.002 A 
ATOM     28  C   UNL d   1     -45.130-121.432 -50.034  0.00  0.00     0.000 A 
ATOM     29  C   UNL d   1     -45.004-122.145 -49.630  0.00  0.00     0.000 A 
ATOM     30  C   UNL d   1     -44.591-122.763 -50.003  0.00  0.00     0.000 A 
ATOM     31  C   UNL d   1     -44.310-122.668 -50.768  0.00  0.00     0.002 A 
ENDBRANCH  25  26
ENDBRANCH  23  25
ENDBRANCH   4  23
TORSDOF 8
ENDMDL
