MODEL 1
REMARK VINA RESULT:      -6.1      0.000      0.000
REMARK  6 active torsions:
REMARK  status: ('A' for Active; 'I' for Inactive)
REMARK    1  A    between atoms: C_4  and  S_1 
REMARK    2  A    between atoms: C_5  and  S_1 
REMARK    3  A    between atoms: C_2  and  N_7 
REMARK    4  A    between atoms: N_3  and  C_2 
REMARK    5  A    between atoms: C_8  and  N_6 
REMARK    6  A    between atoms: N_7  and  C_14 
ROOT
ATOM      1  C   UNL d   1     -46.870  14.287  22.578  0.00  0.00     0.206 C 
ATOM      2  S   UNL d   1     -46.702  14.964  23.022  0.00  0.00    -0.038 SA
ENDROOT
BRANCH   1   3
ATOM      3  N   UNL d   1     -47.435  14.317  21.977  0.00  0.00    -0.218 NA
BRANCH   3   4
ATOM      4  C   UNL d   1     -48.222  14.481  22.161  0.00  0.00     0.085 A 
ATOM      5  C   UNL d   1     -48.803  13.911  22.026  0.00  0.00     0.031 A 
ATOM      6  C   UNL d   1     -49.589  14.071  22.208  0.00  0.00     0.094 A 
ATOM      7  C   UNL d   1     -49.797  14.810  22.527  0.00  0.00     0.012 A 
ATOM      8  C   UNL d   1     -49.216  15.380  22.662  0.00  0.00     0.002 A 
ATOM      9  C   UNL d   1     -48.428  15.212  22.477  0.00  0.00     0.019 A 
BRANCH   6  10
ATOM     10  S   UNL d   1     -50.178  13.499  22.074  0.00  0.00     0.262 S 
ATOM     11  O   UNL d   1     -50.442  13.597  22.849  0.00  0.00    -0.213 OA
ATOM     12  O   UNL d   1     -49.901  13.411  21.297  0.00  0.00    -0.213 OA
BRANCH  10  13
ATOM     13  C   UNL d   1     -50.760  12.931  21.936  0.00  0.00     0.364 C 
ATOM     14  F   UNL d   1     -51.064  12.488  22.565  0.00  0.00    -0.159 F 
ATOM     15  F   UNL d   1     -51.041  12.803  21.166  0.00  0.00    -0.159 F 
ENDBRANCH  10  13
ENDBRANCH   6  10
ENDBRANCH   3   4
ENDBRANCH   1   3
BRANCH   1  16
ATOM     16  N   UNL d   1     -46.471  13.579  22.738  0.00  0.00    -0.278 N 
ATOM     17  C   UNL d   1     -46.604  13.182  23.451  0.00  0.00     0.101 A 
ATOM     18  C   UNL d   1     -46.206  12.481  23.605  0.00  0.00     0.100 A 
ATOM     19  N   UNL d   1     -45.678  12.168  23.059  0.00  0.00    -0.301 N 
ATOM     20  C   UNL d   1     -45.541  12.559  22.344  0.00  0.00     0.100 A 
ATOM     21  C   UNL d   1     -45.942  13.270  22.185  0.00  0.00     0.101 A 
BRANCH  19  22
ATOM     22  C   UNL d   1     -45.277  11.455  23.222  0.00  0.00     0.065 A 
ATOM     23  C   UNL d   1     -44.468  11.391  23.072  0.00  0.00     0.029 A 
ATOM     24  C   UNL d   1     -44.071  10.686  23.233  0.00  0.00     0.059 A 
ATOM     25 CL   UNL d   1     -43.261  10.623  23.082  0.00  0.00    -0.082 Cl
ATOM     26  C   UNL d   1     -44.485  10.044  23.544  0.00  0.00     0.011 A 
ATOM     27  C   UNL d   1     -45.295  10.107  23.694  0.00  0.00     0.002 A 
ATOM     28  C   UNL d   1     -45.692  10.812  23.533  0.00  0.00     0.018 A 
ENDBRANCH  19  22
ENDBRANCH   1  16
TORSDOF 6
ENDMDL
MODEL 2
REMARK VINA RESULT:      -6.0      3.536      5.737
REMARK  6 active torsions:
REMARK  status: ('A' for Active; 'I' for Inactive)
REMARK    1  A    between atoms: C_4  and  S_1 
REMARK    2  A    between atoms: C_5  and  S_1 
REMARK    3  A    between atoms: C_2  and  N_7 
REMARK    4  A    between atoms: N_3  and  C_2 
REMARK    5  A    between atoms: C_8  and  N_6 
REMARK    6  A    between atoms: N_7  and  C_14 
ROOT
ATOM      1  C   UNL d   1     -47.196  12.051  23.540  0.00  0.00     0.206 C 
ATOM      2  S   UNL d   1     -47.311  11.234  23.594  0.00  0.00    -0.038 SA
ENDROOT
BRANCH   1   3
ATOM      3  N   UNL d   1     -46.441  12.369  23.634  0.00  0.00    -0.218 NA
BRANCH   3   4
ATOM      4  C   UNL d   1     -45.779  11.928  23.417  0.00  0.00     0.085 A 
ATOM      5  C   UNL d   1     -45.208  12.260  22.923  0.00  0.00     0.031 A 
ATOM      6  C   UNL d   1     -44.546  11.822  22.705  0.00  0.00     0.094 A 
ATOM      7  C   UNL d   1     -44.455  11.045  22.983  0.00  0.00     0.012 A 
ATOM      8  C   UNL d   1     -45.026  10.713  23.477  0.00  0.00     0.002 A 
ATOM      9  C   UNL d   1     -45.689  11.158  23.693  0.00  0.00     0.019 A 
BRANCH   6  10
ATOM     10  S   UNL d   1     -43.968  12.153  22.207  0.00  0.00     0.262 S 
ATOM     11  O   UNL d   1     -43.398  11.672  22.558  0.00  0.00    -0.213 OA
ATOM     12  O   UNL d   1     -44.553  12.631  21.863  0.00  0.00    -0.213 OA
BRANCH  10  13
ATOM     13  C   UNL d   1     -43.397  12.485  21.711  0.00  0.00     0.364 C 
ATOM     14  F   UNL d   1     -43.620  13.022  21.123  0.00  0.00    -0.159 F 
ATOM     15  F   UNL d   1     -42.599  12.278  21.801  0.00  0.00    -0.159 F 
ENDBRANCH  10  13
ENDBRANCH   6  10
ENDBRANCH   3   4
ENDBRANCH   1   3
BRANCH   1  16
ATOM     16  N   UNL d   1     -47.841  12.550  23.393  0.00  0.00    -0.278 N 
ATOM     17  C   UNL d   1     -47.735  13.241  22.951  0.00  0.00     0.101 A 
ATOM     18  C   UNL d   1     -48.377  13.732  22.807  0.00  0.00     0.100 A 
ATOM     19  N   UNL d   1     -49.123  13.546  23.096  0.00  0.00    -0.301 N 
ATOM     20  C   UNL d   1     -49.236  12.857  23.539  0.00  0.00     0.100 A 
ATOM     21  C   UNL d   1     -48.588  12.358  23.686  0.00  0.00     0.101 A 
BRANCH  19  22
ATOM     22  C   UNL d   1     -49.770  14.050  22.946  0.00  0.00     0.065 A 
ATOM     23  C   UNL d   1     -49.873  14.737  23.393  0.00  0.00     0.029 A 
ATOM     24  C   UNL d   1     -50.514  15.235  23.245  0.00  0.00     0.059 A 
ATOM     25 CL   UNL d   1     -50.617  15.922  23.693  0.00  0.00    -0.082 Cl
ATOM     26  C   UNL d   1     -51.052  15.046  22.649  0.00  0.00     0.011 A 
ATOM     27  C   UNL d   1     -50.949  14.359  22.201  0.00  0.00     0.002 A 
ATOM     28  C   UNL d   1     -50.308  13.860  22.349  0.00  0.00     0.018 A 
ENDBRANCH  19  22
ENDBRANCH   1  16
TORSDOF 6
ENDMDL
MODEL 3
REMARK VINA RESULT:      -5.2      9.106     10.269
REMARK  6 active torsions:
REMARK  status: ('A' for Active; 'I' for Inactive)
REMARK    1  A    between atoms: C_4  and  S_1 
REMARK    2  A    between atoms: C_5  and  S_1 
REMARK    3  A    between atoms: C_2  and  N_7 
REMARK    4  A    between atoms: N_3  and  C_2 
REMARK    5  A    between atoms: C_8  and  N_6 
REMARK    6  A    between atoms: N_7  and  C_14 
ROOT
ATOM      1  C   UNL d   1     -39.161  15.327  18.991  0.00  0.00     0.206 C 
ATOM      2  S   UNL d   1     -38.737  15.922  19.378  0.00  0.00    -0.038 SA
ENDROOT
BRANCH   1   3
ATOM      3  N   UNL d   1     -39.789  14.952  19.374  0.00  0.00    -0.218 NA
BRANCH   3   4
ATOM      4  C   UNL d   1     -39.890  15.046  20.187  0.00  0.00     0.085 A 
ATOM      5  C   UNL d   1     -39.541  14.513  20.710  0.00  0.00     0.031 A 
ATOM      6  C   UNL d   1     -39.640  14.605  21.522  0.00  0.00     0.094 A 
ATOM      7  C   UNL d   1     -40.094  15.237  21.813  0.00  0.00     0.012 A 
ATOM      8  C   UNL d   1     -40.444  15.770  21.290  0.00  0.00     0.002 A 
ATOM      9  C   UNL d   1     -40.340  15.672  20.476  0.00  0.00     0.019 A 
BRANCH   6  10
ATOM     10  S   UNL d   1     -39.289  14.069  22.052  0.00  0.00     0.262 S 
ATOM     11  O   UNL d   1     -39.945  13.574  21.979  0.00  0.00    -0.213 OA
ATOM     12  O   UNL d   1     -38.636  14.576  22.116  0.00  0.00    -0.213 OA
BRANCH  10  13
ATOM     13  C   UNL d   1     -38.937  13.540  22.579  0.00  0.00     0.364 C 
ATOM     14  F   UNL d   1     -39.349  12.868  22.830  0.00  0.00    -0.159 F 
ATOM     15  F   UNL d   1     -38.169  13.682  22.858  0.00  0.00    -0.159 F 
ENDBRANCH  10  13
ENDBRANCH   6  10
ENDBRANCH   3   4
ENDBRANCH   1   3
BRANCH   1  16
ATOM     16  N   UNL d   1     -38.956  15.108  18.219  0.00  0.00    -0.278 N 
ATOM     17  C   UNL d   1     -39.403  15.382  17.580  0.00  0.00     0.101 A 
ATOM     18  C   UNL d   1     -39.196  15.163  16.817  0.00  0.00     0.100 A 
ATOM     19  N   UNL d   1     -38.550  14.675  16.680  0.00  0.00    -0.301 N 
ATOM     20  C   UNL d   1     -38.098  14.397  17.314  0.00  0.00     0.100 A 
ATOM     21  C   UNL d   1     -38.306  14.618  18.088  0.00  0.00     0.101 A 
BRANCH  19  22
ATOM     22  C   UNL d   1     -38.345  14.456  15.901  0.00  0.00     0.065 A 
ATOM     23  C   UNL d   1     -38.244  15.035  15.321  0.00  0.00     0.029 A 
ATOM     24  C   UNL d   1     -38.041  14.819  14.551  0.00  0.00     0.059 A 
ATOM     25 CL   UNL d   1     -37.940  15.398  13.971  0.00  0.00    -0.082 Cl
ATOM     26  C   UNL d   1     -37.940  14.022  14.362  0.00  0.00     0.011 A 
ATOM     27  C   UNL d   1     -38.041  13.443  14.942  0.00  0.00     0.002 A 
ATOM     28  C   UNL d   1     -38.244  13.659  15.712  0.00  0.00     0.018 A 
ENDBRANCH  19  22
ENDBRANCH   1  16
TORSDOF 6
ENDMDL
MODEL 4
REMARK VINA RESULT:      -4.7      1.586      2.116
REMARK  6 active torsions:
REMARK  status: ('A' for Active; 'I' for Inactive)
REMARK    1  A    between atoms: C_4  and  S_1 
REMARK    2  A    between atoms: C_5  and  S_1 
REMARK    3  A    between atoms: C_2  and  N_7 
REMARK    4  A    between atoms: N_3  and  C_2 
REMARK    5  A    between atoms: C_8  and  N_6 
REMARK    6  A    between atoms: N_7  and  C_14 
ROOT
ATOM      1  C   UNL d   1     -47.581  12.598  23.103  0.00  0.00     0.206 C 
ATOM      2  S   UNL d   1     -47.811  13.124  23.698  0.00  0.00    -0.038 SA
ENDROOT
BRANCH   1   3
ATOM      3  N   UNL d   1     -48.143  12.119  22.735  0.00  0.00    -0.218 NA
BRANCH   3   4
ATOM      4  C   UNL d   1     -48.946  12.273  22.839  0.00  0.00     0.085 A 
ATOM      5  C   UNL d   1     -49.319  12.843  22.375  0.00  0.00     0.031 A 
ATOM      6  C   UNL d   1     -50.121  12.999  22.476  0.00  0.00     0.094 A 
ATOM      7  C   UNL d   1     -50.554  12.580  23.049  0.00  0.00     0.012 A 
ATOM      8  C   UNL d   1     -50.181  12.010  23.513  0.00  0.00     0.002 A 
ATOM      9  C   UNL d   1     -49.375  11.858  23.406  0.00  0.00     0.019 A 
BRANCH   6  10
ATOM     10  S   UNL d   1     -50.501  13.573  22.010  0.00  0.00     0.262 S 
ATOM     11  O   UNL d   1     -50.910  13.837  22.675  0.00  0.00    -0.213 OA
ATOM     12  O   UNL d   1     -50.082  13.298  21.348  0.00  0.00    -0.213 OA
BRANCH  10  13
ATOM     13  C   UNL d   1     -50.875  14.142  21.543  0.00  0.00     0.364 C 
ATOM     14  F   UNL d   1     -51.064  14.881  21.861  0.00  0.00    -0.159 F 
ATOM     15  F   UNL d   1     -51.063  13.971  20.753  0.00  0.00    -0.159 F 
ENDBRANCH  10  13
ENDBRANCH   6  10
ENDBRANCH   3   4
ENDBRANCH   1   3
BRANCH   1  16
ATOM     16  N   UNL d   1     -46.785  12.552  22.877  0.00  0.00    -0.278 N 
ATOM     17  C   UNL d   1     -46.308  11.943  23.168  0.00  0.00     0.101 A 
ATOM     18  C   UNL d   1     -45.520  11.902  22.941  0.00  0.00     0.100 A 
ATOM     19  N   UNL d   1     -45.200  12.458  22.430  0.00  0.00    -0.301 N 
ATOM     20  C   UNL d   1     -45.670  13.071  22.135  0.00  0.00     0.100 A 
ATOM     21  C   UNL d   1     -46.469  13.115  22.363  0.00  0.00     0.101 A 
BRANCH  19  22
ATOM     22  C   UNL d   1     -44.398  12.411  22.204  0.00  0.00     0.065 A 
ATOM     23  C   UNL d   1     -44.095  12.933  21.640  0.00  0.00     0.029 A 
ATOM     24  C   UNL d   1     -43.302  12.886  21.416  0.00  0.00     0.059 A 
ATOM     25 CL   UNL d   1     -43.000  13.408  20.852  0.00  0.00    -0.082 Cl
ATOM     26  C   UNL d   1     -42.813  12.316  21.757  0.00  0.00     0.011 A 
ATOM     27  C   UNL d   1     -43.115  11.794  22.321  0.00  0.00     0.002 A 
ATOM     28  C   UNL d   1     -43.908  11.840  22.545  0.00  0.00     0.018 A 
ENDBRANCH  19  22
ENDBRANCH   1  16
TORSDOF 6
ENDMDL
MODEL 5
REMARK VINA RESULT:      -4.4      8.249      8.806
REMARK  6 active torsions:
REMARK  status: ('A' for Active; 'I' for Inactive)
REMARK    1  A    between atoms: C_4  and  S_1 
REMARK    2  A    between atoms: C_5  and  S_1 
REMARK    3  A    between atoms: C_2  and  N_7 
REMARK    4  A    between atoms: N_3  and  C_2 
REMARK    5  A    between atoms: C_8  and  N_6 
REMARK    6  A    between atoms: N_7  and  C_14 
ROOT
ATOM      1  C   UNL d   1     -40.252  14.832  19.180  0.00  0.00     0.206 C 
ATOM      2  S   UNL d   1     -40.413  14.134  18.767  0.00  0.00    -0.038 SA
ENDROOT
BRANCH   1   3
ATOM      3  N   UNL d   1     -40.445  15.562  18.847  0.00  0.00    -0.218 NA
BRANCH   3   4
ATOM      4  C   UNL d   1     -40.395  15.668  18.030  0.00  0.00     0.085 A 
ATOM      5  C   UNL d   1     -41.084  15.698  17.577  0.00  0.00     0.031 A 
ATOM      6  C   UNL d   1     -41.038  15.803  16.763  0.00  0.00     0.094 A 
ATOM      7  C   UNL d   1     -40.296  15.879  16.397  0.00  0.00     0.012 A 
ATOM      8  C   UNL d   1     -39.607  15.848  16.850  0.00  0.00     0.002 A 
ATOM      9  C   UNL d   1     -39.660  15.742  17.668  0.00  0.00     0.019 A 
BRANCH   6  10
ATOM     10  S   UNL d   1     -41.730  15.835  16.302  0.00  0.00     0.262 S 
ATOM     11  O   UNL d   1     -42.178  15.914  16.990  0.00  0.00    -0.213 OA
ATOM     12  O   UNL d   1     -41.267  15.755  15.619  0.00  0.00    -0.213 OA
BRANCH  10  13
ATOM     13  C   UNL d   1     -42.414  15.865  15.842  0.00  0.00     0.364 C 
ATOM     14  F   UNL d   1     -43.158  15.892  16.204  0.00  0.00    -0.159 F 
ATOM     15  F   UNL d   1     -42.357  15.870  15.014  0.00  0.00    -0.159 F 
ENDBRANCH  10  13
ENDBRANCH   6  10
ENDBRANCH   3   4
ENDBRANCH   1   3
BRANCH   1  16
ATOM     16  N   UNL d   1     -39.898  14.798  19.927  0.00  0.00    -0.278 N 
ATOM     17  C   UNL d   1     -40.171  15.286  20.536  0.00  0.00     0.101 A 
ATOM     18  C   UNL d   1     -39.816  15.249  21.276  0.00  0.00     0.100 A 
ATOM     19  N   UNL d   1     -39.194  14.733  21.419  0.00  0.00    -0.301 N 
ATOM     20  C   UNL d   1     -38.915  14.241  20.815  0.00  0.00     0.100 A 
ATOM     21  C   UNL d   1     -39.273  14.277  20.065  0.00  0.00     0.101 A 
BRANCH  19  22
ATOM     22  C   UNL d   1     -38.838  14.700  22.173  0.00  0.00     0.065 A 
ATOM     23  C   UNL d   1     -38.751  13.974  22.558  0.00  0.00     0.029 A 
ATOM     24  C   UNL d   1     -38.399  13.941  23.304  0.00  0.00     0.059 A 
ATOM     25 CL   UNL d   1     -38.313  13.216  23.689  0.00  0.00    -0.082 Cl
ATOM     26  C   UNL d   1     -38.134  14.635  23.663  0.00  0.00     0.011 A 
ATOM     27  C   UNL d   1     -38.221  15.361  23.278  0.00  0.00     0.002 A 
ATOM     28  C   UNL d   1     -38.573  15.394  22.532  0.00  0.00     0.018 A 
ENDBRANCH  19  22
ENDBRANCH   1  16
TORSDOF 6
ENDMDL
MODEL 6
REMARK VINA RESULT:      -3.5      3.405      4.175
REMARK  6 active torsions:
REMARK  status: ('A' for Active; 'I' for Inactive)
REMARK    1  A    between atoms: C_4  and  S_1 
REMARK    2  A    between atoms: C_5  and  S_1 
REMARK    3  A    between atoms: C_2  and  N_7 
REMARK    4  A    between atoms: N_3  and  C_2 
REMARK    5  A    between atoms: C_8  and  N_6 
REMARK    6  A    between atoms: N_7  and  C_14 
ROOT
ATOM      1  C   UNL d   1     -44.484  13.052  21.868  0.00  0.00     0.206 C 
ATOM      2  S   UNL d   1     -44.747  12.276  21.757  0.00  0.00    -0.038 SA
ENDROOT
BRANCH   1   3
ATOM      3  N   UNL d   1     -44.973  13.605  22.236  0.00  0.00    -0.218 NA
BRANCH   3   4
ATOM      4  C   UNL d   1     -45.702  13.371  22.542  0.00  0.00     0.085 A 
ATOM      5  C   UNL d   1     -46.377  13.819  22.388  0.00  0.00     0.031 A 
ATOM      6  C   UNL d   1     -47.106  13.588  22.692  0.00  0.00     0.094 A 
ATOM      7  C   UNL d   1     -47.160  12.900  23.155  0.00  0.00     0.012 A 
ATOM      8  C   UNL d   1     -46.485  12.451  23.310  0.00  0.00     0.002 A 
ATOM      9  C   UNL d   1     -45.756  12.690  23.001  0.00  0.00     0.019 A 
BRANCH   6  10
ATOM     10  S   UNL d   1     -47.788  14.037  22.539  0.00  0.00     0.262 S 
ATOM     11  O   UNL d   1     -47.556  14.578  23.116  0.00  0.00    -0.213 OA
ATOM     12  O   UNL d   1     -48.010  13.485  21.960  0.00  0.00    -0.213 OA
BRANCH  10  13
ATOM     13  C   UNL d   1     -48.467  14.480  22.383  0.00  0.00     0.364 C 
ATOM     14  F   UNL d   1     -48.903  14.343  21.694  0.00  0.00    -0.159 F 
ATOM     15  F   UNL d   1     -48.712  15.065  22.919  0.00  0.00    -0.159 F 
ENDBRANCH  10  13
ENDBRANCH   6  10
ENDBRANCH   3   4
ENDBRANCH   1   3
BRANCH   1  16
ATOM     16  N   UNL d   1     -43.729  13.273  21.611  0.00  0.00    -0.278 N 
ATOM     17  C   UNL d   1     -43.554  14.071  21.480  0.00  0.00     0.101 A 
ATOM     18  C   UNL d   1     -42.804  14.285  21.225  0.00  0.00     0.100 A 
ATOM     19  N   UNL d   1     -42.225  13.718  21.097  0.00  0.00    -0.301 N 
ATOM     20  C   UNL d   1     -42.392  12.918  21.225  0.00  0.00     0.100 A 
ATOM     21  C   UNL d   1     -43.151  12.698  21.484  0.00  0.00     0.101 A 
BRANCH  19  22
ATOM     22  C   UNL d   1     -41.465  13.943  20.837  0.00  0.00     0.065 A 
ATOM     23  C   UNL d   1     -41.321  14.063  20.033  0.00  0.00     0.029 A 
ATOM     24  C   UNL d   1     -40.569  14.286  19.776  0.00  0.00     0.059 A 
ATOM     25 CL   UNL d   1     -40.425  14.406  18.971  0.00  0.00    -0.082 Cl
ATOM     26  C   UNL d   1     -39.961  14.388  20.325  0.00  0.00     0.011 A 
ATOM     27  C   UNL d   1     -40.105  14.267  21.129  0.00  0.00     0.002 A 
ATOM     28  C   UNL d   1     -40.857  14.045  21.386  0.00  0.00     0.018 A 
ENDBRANCH  19  22
ENDBRANCH   1  16
TORSDOF 6
ENDMDL
MODEL 7
REMARK VINA RESULT:      -3.5      8.174      9.279
REMARK  6 active torsions:
REMARK  status: ('A' for Active; 'I' for Inactive)
REMARK    1  A    between atoms: C_4  and  S_1 
REMARK    2  A    between atoms: C_5  and  S_1 
REMARK    3  A    between atoms: C_2  and  N_7 
REMARK    4  A    between atoms: N_3  and  C_2 
REMARK    5  A    between atoms: C_8  and  N_6 
REMARK    6  A    between atoms: N_7  and  C_14 
ROOT
ATOM      1  C   UNL d   1     -40.294  15.211  18.620  0.00  0.00     0.206 C 
ATOM      2  S   UNL d   1     -40.800  15.846  18.776  0.00  0.00    -0.038 SA
ENDROOT
BRANCH   1   3
ATOM      3  N   UNL d   1     -40.182  14.623  19.188  0.00  0.00    -0.218 NA
BRANCH   3   4
ATOM      4  C   UNL d   1     -40.547  14.688  19.925  0.00  0.00     0.085 A 
ATOM      5  C   UNL d   1     -41.059  14.096  20.185  0.00  0.00     0.031 A 
ATOM      6  C   UNL d   1     -41.424  14.158  20.919  0.00  0.00     0.094 A 
ATOM      7  C   UNL d   1     -41.276  14.820  21.400  0.00  0.00     0.012 A 
ATOM      8  C   UNL d   1     -40.764  15.412  21.140  0.00  0.00     0.002 A 
ATOM      9  C   UNL d   1     -40.400  15.344  20.401  0.00  0.00     0.019 A 
BRANCH   6  10
ATOM     10  S   UNL d   1     -41.941  13.563  21.184  0.00  0.00     0.262 S 
ATOM     11  O   UNL d   1     -41.301  13.160  21.513  0.00  0.00    -0.213 OA
ATOM     12  O   UNL d   1     -42.575  13.979  20.849  0.00  0.00    -0.213 OA
BRANCH  10  13
ATOM     13  C   UNL d   1     -42.457  12.975  21.446  0.00  0.00     0.364 C 
ATOM     14  F   UNL d   1     -43.240  12.961  21.179  0.00  0.00    -0.159 F 
ATOM     15  F   UNL d   1     -42.191  12.395  21.977  0.00  0.00    -0.159 F 
ENDBRANCH  10  13
ENDBRANCH   6  10
ENDBRANCH   3   4
ENDBRANCH   1   3
BRANCH   1  16
ATOM     16  N   UNL d   1     -39.900  15.166  17.893  0.00  0.00    -0.278 N 
ATOM     17  C   UNL d   1     -40.298  15.363  17.196  0.00  0.00     0.101 A 
ATOM     18  C   UNL d   1     -39.903  15.317  16.477  0.00  0.00     0.100 A 
ATOM     19  N   UNL d   1     -39.118  15.078  16.443  0.00  0.00    -0.301 N 
ATOM     20  C   UNL d   1     -38.714  14.879  17.136  0.00  0.00     0.100 A 
ATOM     21  C   UNL d   1     -39.111  14.925  17.865  0.00  0.00     0.101 A 
BRANCH  19  22
ATOM     22  C   UNL d   1     -38.723  15.033  15.709  0.00  0.00     0.065 A 
ATOM     23  C   UNL d   1     -38.564  14.297  15.369  0.00  0.00     0.029 A 
ATOM     24  C   UNL d   1     -38.173  14.253  14.644  0.00  0.00     0.059 A 
ATOM     25 CL   UNL d   1     -38.013  13.517  14.304  0.00  0.00    -0.082 Cl
ATOM     26  C   UNL d   1     -37.941  14.945  14.259  0.00  0.00     0.011 A 
ATOM     27  C   UNL d   1     -38.101  15.681  14.599  0.00  0.00     0.002 A 
ATOM     28  C   UNL d   1     -38.492  15.726  15.325  0.00  0.00     0.018 A 
ENDBRANCH  19  22
ENDBRANCH   1  16
TORSDOF 6
ENDMDL
