MODEL 1
REMARK VINA RESULT:      26.9      0.000      0.000
REMARK  1 active torsions:
REMARK  status: ('A' for Active; 'I' for Inactive)
REMARK    1  A    between atoms: C_2  and  C_1 
REMARK       I    between atoms: N_3  and  C_2 
ROOT
ATOM      1  C   UNL d   1      45.992 -14.960  44.155  0.00  0.00     0.248 C 
ATOM      2  N   UNL d   1      45.285 -15.285  44.444  0.00  0.00    -0.278 N 
ATOM      3  C   UNL d   1      45.275 -16.016  44.584  0.00  0.00     0.067 A 
ATOM      4  C   UNL d   1      44.732 -14.846  44.538  0.00  0.00     0.067 A 
ATOM      5  C   UNL d   1      44.053 -15.198  44.823  0.00  0.00     0.018 A 
ATOM      6  C   UNL d   1      44.656 -16.336  44.844  0.00  0.00     0.019 A 
ATOM      7  O   UNL d   1      46.566 -15.564  44.084  0.00  0.00    -0.271 OA
ATOM      8  C   UNL d   1      45.890 -16.419  44.463  0.00  0.00     0.019 C 
ATOM      9  C   UNL d   1      44.747 -14.037  44.381  0.00  0.00     0.018 A 
ATOM     10  C   UNL d   1      43.380 -14.749  44.955  0.00  0.00     0.002 A 
ATOM     11  C   UNL d   1      44.071 -13.582  44.513  0.00  0.00     0.002 A 
ATOM     12  C   UNL d   1      43.388 -13.941  44.800  0.00  0.00     0.000 A 
ENDROOT
BRANCH   1  13
ATOM     13  C   UNL d   1      45.883 -14.168  44.041  0.00  0.00     0.112 A 
ATOM     14  C   UNL d   1      45.444 -12.918  43.522  0.00  0.00     0.025 A 
ATOM     15  C   UNL d   1      45.917 -13.285  44.111  0.00  0.00     0.074 A 
ATOM     16  C   UNL d   1      45.019 -13.380  42.969  0.00  0.00     0.002 C 
ATOM     17  C   UNL d   1      45.534 -12.104  43.661  0.00  0.00     0.002 C 
ATOM     18  C   UNL d   1      46.003 -12.464  44.246  0.00  0.00     0.012 C 
ATOM     19  C   UNL d   1      45.697 -14.033  43.809  0.00  0.00    -0.023 A 
ATOM     20  C   UNL d   1      46.336 -12.832  44.656  0.00  0.00     0.172 A 
ATOM     21  C   UNL d   1      45.740 -14.871  43.839  0.00  0.00    -0.018 A 
ATOM     22  C   UNL d   1      46.379 -13.669  44.685  0.00  0.00     0.024 A 
ATOM     23  O   UNL d   1      46.553 -12.080  44.955  0.00  0.00    -0.291 OA
ENDBRANCH   1  13
TORSDOF 1
ENDMDL
MODEL 2
REMARK VINA RESULT:      28.3      3.373      5.589
REMARK  1 active torsions:
REMARK  status: ('A' for Active; 'I' for Inactive)
REMARK    1  A    between atoms: C_2  and  C_1 
REMARK       I    between atoms: N_3  and  C_2 
ROOT
ATOM      1  C   UNL d   1      46.167 -17.855  42.919  0.00  0.00     0.248 C 
ATOM      2  N   UNL d   1      46.208 -18.060  43.722  0.00  0.00    -0.278 N 
ATOM      3  C   UNL d   1      46.101 -17.517  44.221  0.00  0.00     0.067 A 
ATOM      4  C   UNL d   1      46.342 -18.740  43.885  0.00  0.00     0.067 A 
ATOM      5  C   UNL d   1      46.375 -18.906  44.683  0.00  0.00     0.018 A 
ATOM      6  C   UNL d   1      46.132 -17.669  44.948  0.00  0.00     0.019 A 
ATOM      7  O   UNL d   1      46.006 -17.038  42.849  0.00  0.00    -0.271 OA
ATOM      8  C   UNL d   1      45.965 -16.825  43.982  0.00  0.00     0.019 C 
ATOM      9  C   UNL d   1      46.459 -19.338  43.330  0.00  0.00     0.018 A 
ATOM     10  C   UNL d   1      46.526 -19.671  44.940  0.00  0.00     0.002 A 
ATOM     11  C   UNL d   1      46.611 -20.108  43.585  0.00  0.00     0.002 A 
ATOM     12  C   UNL d   1      46.644 -20.272  44.391  0.00  0.00     0.000 A 
ENDROOT
BRANCH   1  13
ATOM     13  C   UNL d   1      46.297 -18.519  42.478  0.00  0.00     0.112 A 
ATOM     14  C   UNL d   1      46.513 -19.870  42.088  0.00  0.00     0.025 A 
ATOM     15  C   UNL d   1      46.437 -19.083  41.808  0.00  0.00     0.074 A 
ATOM     16  C   UNL d   1      46.455 -20.039  42.905  0.00  0.00     0.002 C 
ATOM     17  C   UNL d   1      46.640 -20.323  41.403  0.00  0.00     0.002 C 
ATOM     18  C   UNL d   1      46.565 -19.543  41.122  0.00  0.00     0.012 C 
ATOM     19  C   UNL d   1      46.326 -18.823  42.595  0.00  0.00    -0.023 A 
ATOM     20  C   UNL d   1      46.494 -18.914  41.004  0.00  0.00     0.172 A 
ATOM     21  C   UNL d   1      46.190 -18.202  43.144  0.00  0.00    -0.018 A 
ATOM     22  C   UNL d   1      46.359 -18.295  41.553  0.00  0.00     0.024 A 
ATOM     23  O   UNL d   1      46.607 -19.180  40.217  0.00  0.00    -0.291 OA
ENDBRANCH   1  13
TORSDOF 1
ENDMDL
