MODEL 1
REMARK VINA RESULT:      78.6      0.000      0.000
REMARK  2 active torsions:
REMARK  status: ('A' for Active; 'I' for Inactive)
REMARK    1  A    between atoms: C_10  and  C_4 
REMARK       I    between atoms: N_12  and  C_10 
REMARK       I    between atoms: C_11  and  N_13 
REMARK    2  A    between atoms: C_14  and  C_11 
ROOT
ATOM      1  C   UNL d   1     -51.459  26.154  33.528  0.00  0.00     0.154 A 
ATOM      2  C   UNL d   1     -50.667  25.931  33.506  0.00  0.00     0.093 A 
ATOM      3  N   UNL d   1     -52.054  25.573  33.488  0.00  0.00    -0.211 NA
ATOM      4  C   UNL d   1     -50.719  27.262  33.606  0.00  0.00     0.122 A 
ATOM      5  N   UNL d   1     -51.491  26.973  33.589  0.00  0.00    -0.285 N 
ATOM      6  C   UNL d   1     -50.459  25.132  33.445  0.00  0.00     0.269 A 
ATOM      7  N   UNL d   1     -51.043  24.556  33.405  0.00  0.00    -0.259 N 
ATOM      8  C   UNL d   1     -51.850  24.774  33.427  0.00  0.00     0.140 A 
ATOM      9  C   UNL d   1     -50.213  26.613  33.554  0.00  0.00     0.030 A 
ATOM     10  C   UNL d   1     -50.840  23.758  33.344  0.00  0.00     0.084 A 
ATOM     11  O   UNL d   1     -49.661  24.912  33.423  0.00  0.00    -0.266 OA
ATOM     12  C   UNL d   1     -52.433  24.207  33.388  0.00  0.00     0.064 A 
ATOM     13  C   UNL d   1     -51.431  23.188  33.306  0.00  0.00     0.018 A 
ATOM     14  C   UNL d   1     -52.236  23.415  33.328  0.00  0.00    -0.008 A 
ATOM     15  C   UNL d   1     -52.183  27.428  33.628  0.00  0.00     0.101 C 
ENDROOT
BRANCH   4  16
ATOM     16  C   UNL d   1     -50.494  28.057  33.664  0.00  0.00     0.281 C 
ATOM     17  N   UNL d   1     -49.812  28.260  34.080  0.00  0.00    -0.268 N 
ATOM     18  C   UNL d   1     -49.587  29.054  34.138  0.00  0.00     0.102 A 
ATOM     19  C   UNL d   1     -49.354  27.677  34.438  0.00  0.00     0.102 A 
ATOM     20  C   UNL d   1     -48.903  29.265  34.554  0.00  0.00     0.102 A 
ATOM     21  N   UNL d   1     -48.449  28.679  34.910  0.00  0.00    -0.267 N 
ATOM     22  C   UNL d   1     -47.767  28.887  35.326  0.00  0.00     0.288 C 
ATOM     23  C   UNL d   1     -48.684  27.888  34.845  0.00  0.00     0.102 A 
ATOM     24  O   UNL d   1     -47.313  28.301  35.681  0.00  0.00    -0.264 OA
ATOM     25  O   UNL d   1     -50.952  28.639  33.306  0.00  0.00    -0.265 OA
BRANCH  22  26
ATOM     26  C   UNL d   1     -47.552  29.684  35.377  0.00  0.00     0.156 A 
ATOM     27  O   UNL d   1     -47.608  30.235  34.764  0.00  0.00    -0.300 OA
ATOM     28  C   UNL d   1     -47.341  30.955  35.040  0.00  0.00     0.123 A 
ATOM     29  C   UNL d   1     -47.114  30.867  35.831  0.00  0.00     0.029 A 
ATOM     30  C   UNL d   1     -47.247  30.078  36.034  0.00  0.00     0.032 A 
ENDBRANCH  22  26
ENDBRANCH   4  16
TORSDOF 2
ENDMDL
