MODEL 1
REMARK VINA RESULT:      -1.9      0.000      0.000
REMARK  2 active torsions:
REMARK  status: ('A' for Active; 'I' for Inactive)
REMARK    1  A    between atoms: C_10  and  N_1 
REMARK    2  A    between atoms: C_11  and  C_10 
ROOT
ATOM      1  N   UNL d   1     -41.446-122.707 -53.014  0.00  0.00    -0.187 N 
ATOM      2  N   UNL d   1     -41.618-123.224 -52.251  0.00  0.00    -0.162 NA
ATOM      3  C   UNL d   1     -41.617-122.896 -51.432  0.00  0.00     0.102 A 
ATOM      4  C   UNL d   1     -41.444-122.093 -51.481  0.00  0.00     0.024 A 
ATOM      5  C   UNL d   1     -41.288-121.906 -52.889  0.00  0.00     0.281 A 
ATOM      6  C   UNL d   1     -41.287-121.599 -52.123  0.00  0.00     0.059 A 
ATOM      7  C   UNL d   1     -41.444-121.784 -50.709  0.00  0.00     0.002 A 
ATOM      8  C   UNL d   1     -41.722-123.081 -50.636  0.00  0.00     0.019 A 
ATOM      9  C   UNL d   1     -41.616-122.399 -50.190  0.00  0.00     0.002 A 
ATOM     10  O   UNL d   1     -41.128-121.408 -53.546  0.00  0.00    -0.265 OA
ATOM     11  C   UNL d   1     -41.128-120.794 -52.002  0.00  0.00     0.005 A 
ATOM     12  C   UNL d   1     -41.286-120.985 -50.589  0.00  0.00     0.000 A 
ATOM     13  C   UNL d   1     -41.903-123.790 -50.257  0.00  0.00     0.002 A 
ATOM     14  C   UNL d   1     -41.689-122.418 -49.367  0.00  0.00     0.000 A 
ATOM     15  C   UNL d   1     -41.127-120.485 -51.230  0.00  0.00     0.000 A 
ATOM     16  C   UNL d   1     -41.870-123.130 -48.994  0.00  0.00     0.000 A 
ATOM     17  C   UNL d   1     -41.978-123.817 -49.432  0.00  0.00     0.000 A 
ENDROOT
BRANCH   1  18
ATOM     18  C   UNL d   1     -41.403-122.829 -53.837  0.00  0.00     0.174 C 
BRANCH  18  19
ATOM     19  C   UNL d   1     -41.931-123.348 -54.214  0.00  0.00     0.231 C 
ATOM     20  O   UNL d   1     -41.697-123.743 -54.888  0.00  0.00    -0.643 OA
ATOM     21  O   UNL d   1     -42.671-123.670 -54.200  0.00  0.00    -0.643 OA
ENDBRANCH  18  19
ENDBRANCH   1  18
TORSDOF 2
ENDMDL
MODEL 2
REMARK VINA RESULT:       0.2      1.997      3.872
REMARK  2 active torsions:
REMARK  status: ('A' for Active; 'I' for Inactive)
REMARK    1  A    between atoms: C_10  and  N_1 
REMARK    2  A    between atoms: C_11  and  C_10 
ROOT
ATOM      1  N   UNL d   1     -41.298-120.895 -51.947  0.00  0.00    -0.187 N 
ATOM      2  N   UNL d   1     -41.385-121.024 -52.872  0.00  0.00    -0.162 NA
ATOM      3  C   UNL d   1     -41.381-121.820 -53.254  0.00  0.00     0.102 A 
ATOM      4  C   UNL d   1     -41.290-122.384 -52.661  0.00  0.00     0.024 A 
ATOM      5  C   UNL d   1     -41.214-121.575 -51.486  0.00  0.00     0.281 A 
ATOM      6  C   UNL d   1     -41.211-122.319 -51.843  0.00  0.00     0.059 A 
ATOM      7  C   UNL d   1     -41.287-123.134 -53.021  0.00  0.00     0.002 A 
ATOM      8  C   UNL d   1     -41.432-122.218 -53.972  0.00  0.00     0.019 A 
ATOM      9  C   UNL d   1     -41.375-123.026 -53.832  0.00  0.00     0.002 A 
ATOM     10  O   UNL d   1     -41.133-121.503 -50.653  0.00  0.00    -0.265 OA
ATOM     11  C   UNL d   1     -41.127-123.000 -51.376  0.00  0.00     0.005 A 
ATOM     12  C   UNL d   1     -41.203-123.810 -52.558  0.00  0.00     0.000 A 
ATOM     13  C   UNL d   1     -41.526-121.945 -54.745  0.00  0.00     0.002 A 
ATOM     14  C   UNL d   1     -41.409-123.566 -54.457  0.00  0.00     0.000 A 
ATOM     15  C   UNL d   1     -41.123-123.750 -51.736  0.00  0.00     0.000 A 
ATOM     16  C   UNL d   1     -41.503-123.287 -55.227  0.00  0.00     0.000 A 
ATOM     17  C   UNL d   1     -41.561-122.481 -55.377  0.00  0.00     0.000 A 
ENDROOT
BRANCH   1  18
ATOM     18  C   UNL d   1     -41.279-120.250 -51.421  0.00  0.00     0.174 C 
BRANCH  18  19
ATOM     19  C   UNL d   1     -41.187-119.475 -51.706  0.00  0.00     0.231 C 
ATOM     20  O   UNL d   1     -41.124-118.856 -51.179  0.00  0.00    -0.643 OA
ATOM     21  O   UNL d   1     -41.125-119.012 -52.363  0.00  0.00    -0.643 OA
ENDBRANCH  18  19
ENDBRANCH   1  18
TORSDOF 2
ENDMDL
