MODEL 1
REMARK VINA RESULT:      10.8      0.000      0.000
REMARK  0 active torsions:
REMARK  status: ('A' for Active; 'I' for Inactive)
ROOT
ATOM      1  C   UNL d   1     -58.188 -98.761 -43.742  0.00  0.00     0.063 A 
ATOM      2  N   UNL d   1     -57.935 -98.759 -45.049  0.00  0.00    -0.204 NA
ATOM      3  C   UNL d   1     -58.537 -98.759 -44.482  0.00  0.00     0.099 A 
ATOM      4  C   UNL d   1     -57.241 -98.761 -44.660  0.00  0.00     0.318 A 
ATOM      5  C   UNL d   1     -57.368 -98.762 -43.845  0.00  0.00     0.254 A 
ATOM      6  C   UNL d   1     -59.343 -98.757 -44.555  0.00  0.00     0.076 A 
ATOM      7  C   UNL d   1     -59.821 -98.757 -43.877  0.00  0.00     0.024 A 
ATOM      8  C   UNL d   1     -58.645 -98.761 -43.074  0.00  0.00     0.016 A 
ATOM      9  O   UNL d   1     -56.501 -98.762 -45.044  0.00  0.00    -0.262 OA
ATOM     10  C   UNL d   1     -59.473 -98.759 -43.137  0.00  0.00     0.059 A 
ATOM     11  O   UNL d   1     -56.803 -98.765 -43.246  0.00  0.00    -0.281 OA
ATOM     12 CL   UNL d   1     -59.696 -98.755 -45.305  0.00  0.00    -0.081 Cl
ATOM     13 CL   UNL d   1     -59.958 -98.759 -42.436  0.00  0.00    -0.082 Cl
ENDROOT
TORSDOF 0
ENDMDL
MODEL 2
REMARK VINA RESULT:      12.8      0.711      1.741
REMARK  0 active torsions:
REMARK  status: ('A' for Active; 'I' for Inactive)
ROOT
ATOM      1  C   UNL d   1     -58.063 -98.765 -44.751  0.00  0.00     0.063 A 
ATOM      2  N   UNL d   1     -57.676 -98.767 -43.477  0.00  0.00    -0.204 NA
ATOM      3  C   UNL d   1     -58.333 -98.768 -43.979  0.00  0.00     0.099 A 
ATOM      4  C   UNL d   1     -57.026 -98.764 -43.936  0.00  0.00     0.318 A 
ATOM      5  C   UNL d   1     -57.236 -98.763 -44.734  0.00  0.00     0.254 A 
ATOM      6  C   UNL d   1     -59.127 -98.771 -43.823  0.00  0.00     0.076 A 
ATOM      7  C   UNL d   1     -59.673 -98.771 -44.448  0.00  0.00     0.024 A 
ATOM      8  C   UNL d   1     -58.587 -98.765 -45.368  0.00  0.00     0.016 A 
ATOM      9  O   UNL d   1     -56.250 -98.763 -43.631  0.00  0.00    -0.262 OA
ATOM     10  C   UNL d   1     -59.403 -98.768 -45.220  0.00  0.00     0.059 A 
ATOM     11  O   UNL d   1     -56.736 -98.760 -45.388  0.00  0.00    -0.281 OA
ATOM     12 CL   UNL d   1     -59.401 -98.773 -43.040  0.00  0.00    -0.081 Cl
ATOM     13 CL   UNL d   1     -59.958 -98.768 -45.866  0.00  0.00    -0.082 Cl
ENDROOT
TORSDOF 0
ENDMDL
