MODEL 1
REMARK VINA RESULT:      53.3      0.000      0.000
REMARK  3 active torsions:
REMARK  status: ('A' for Active; 'I' for Inactive)
REMARK    1  A    between atoms: N_3  and  S_1 
REMARK    2  A    between atoms: C_9  and  S_1 
REMARK    3  A    between atoms: C_2  and  N_3 
ROOT
ATOM      1  C   UNL d   1      13.876  13.914  -3.052  0.00  0.00     0.157 A 
ATOM      2  C   UNL d   1      13.498  13.945  -3.780  0.00  0.00     0.102 A 
ATOM      3  C   UNL d   1      13.197  13.251  -4.110  0.00  0.00     0.110 A 
ATOM      4  C   UNL d   1      13.274  12.527  -3.712  0.00  0.00     0.207 A 
ATOM      5  C   UNL d   1      13.955  13.213  -2.658  0.00  0.00     0.035 A 
ATOM      6  C   UNL d   1      13.654  12.519  -2.987  0.00  0.00     0.042 A 
ATOM      7 CL   UNL d   1      13.415  14.653  -4.186  0.00  0.00    -0.079 Cl
ATOM      8 CL   UNL d   1      12.813  13.266  -4.846  0.00  0.00    -0.078 Cl
ATOM      9  O   UNL d   1      12.973  11.833  -4.042  0.00  0.00    -0.286 OA
ATOM     10  C   UNL d   1      14.332  13.182  -1.929  0.00  0.00     0.003 A 
ATOM     11  C   UNL d   1      13.730  11.795  -2.589  0.00  0.00     0.003 A 
ATOM     12  C   UNL d   1      14.115  11.780  -1.853  0.00  0.00     0.000 A 
ATOM     13  C   UNL d   1      14.416  12.474  -1.523  0.00  0.00     0.000 A 
ENDROOT
BRANCH   1  14
ATOM     14  N   UNL d   1      14.177  14.608  -2.723  0.00  0.00    -0.316 NA
BRANCH  14  15
ATOM     15  S   UNL d   1      14.478  15.301  -2.393  0.00  0.00     0.327 S 
ATOM     16  O   UNL d   1      14.291  15.030  -1.652  0.00  0.00    -0.186 OA
ATOM     17  O   UNL d   1      14.666  15.573  -3.149  0.00  0.00    -0.186 OA
BRANCH  15  18
ATOM     18  C   UNL d   1      14.777  15.991  -2.065  0.00  0.00     0.116 A 
ATOM     19  C   UNL d   1      14.800  16.679  -2.499  0.00  0.00     0.014 A 
ATOM     20  C   UNL d   1      15.101  17.372  -2.169  0.00  0.00     0.001 A 
ATOM     21  C   UNL d   1      15.381  17.372  -1.393  0.00  0.00     0.000 A 
ATOM     22  C   UNL d   1      15.361  16.678  -0.947  0.00  0.00     0.001 A 
ATOM     23  C   UNL d   1      15.681  18.079  -1.078  0.00  0.00     0.000 C 
ATOM     24  C   UNL d   1      15.057  15.977  -1.280  0.00  0.00     0.014 A 
ENDBRANCH  15  18
ENDBRANCH  14  15
ENDBRANCH   1  14
TORSDOF 3
ENDMDL
MODEL 2
REMARK VINA RESULT:      56.2      1.785      2.468
REMARK  3 active torsions:
REMARK  status: ('A' for Active; 'I' for Inactive)
REMARK    1  A    between atoms: N_3  and  S_1 
REMARK    2  A    between atoms: C_9  and  S_1 
REMARK    3  A    between atoms: C_2  and  N_3 
ROOT
ATOM      1  C   UNL d   1      14.517  13.809  -2.023  0.00  0.00     0.157 A 
ATOM      2  C   UNL d   1      14.815  13.820  -1.258  0.00  0.00     0.102 A 
ATOM      3  C   UNL d   1      14.754  13.143  -0.790  0.00  0.00     0.110 A 
ATOM      4  C   UNL d   1      14.396  12.456  -1.087  0.00  0.00     0.207 A 
ATOM      5  C   UNL d   1      14.167  13.143  -2.320  0.00  0.00     0.035 A 
ATOM      6  C   UNL d   1      14.106  12.467  -1.852  0.00  0.00     0.042 A 
ATOM      7 CL   UNL d   1      15.171  14.492  -0.951  0.00  0.00    -0.079 Cl
ATOM      8 CL   UNL d   1      15.050  13.139  -0.015  0.00  0.00    -0.078 Cl
ATOM      9  O   UNL d   1      14.335  11.779  -0.619  0.00  0.00    -0.286 OA
ATOM     10  C   UNL d   1      13.869  13.132  -3.085  0.00  0.00     0.003 A 
ATOM     11  C   UNL d   1      13.748  11.779  -2.149  0.00  0.00     0.003 A 
ATOM     12  C   UNL d   1      13.452  11.783  -2.925  0.00  0.00     0.000 A 
ATOM     13  C   UNL d   1      13.513  12.460  -3.393  0.00  0.00     0.000 A 
ENDROOT
BRANCH   1  14
ATOM     14  N   UNL d   1      14.578  14.485  -2.491  0.00  0.00    -0.316 NA
BRANCH  14  15
ATOM     15  S   UNL d   1      14.638  15.162  -2.959  0.00  0.00     0.327 S 
ATOM     16  O   UNL d   1      14.705  15.618  -2.292  0.00  0.00    -0.186 OA
ATOM     17  O   UNL d   1      14.571  14.694  -3.636  0.00  0.00    -0.186 OA
BRANCH  15  18
ATOM     18  C   UNL d   1      14.699  15.835  -3.425  0.00  0.00     0.116 A 
ATOM     19  C   UNL d   1      14.453  15.824  -4.200  0.00  0.00     0.014 A 
ATOM     20  C   UNL d   1      14.513  16.500  -4.668  0.00  0.00     0.001 A 
ATOM     21  C   UNL d   1      14.825  17.195  -4.350  0.00  0.00     0.000 A 
ATOM     22  C   UNL d   1      15.077  17.214  -3.564  0.00  0.00     0.001 A 
ATOM     23  C   UNL d   1      14.879  17.866  -4.836  0.00  0.00     0.000 C 
ATOM     24  C   UNL d   1      15.016  16.530  -3.091  0.00  0.00     0.014 A 
ENDBRANCH  15  18
ENDBRANCH  14  15
ENDBRANCH   1  14
TORSDOF 3
ENDMDL
