MODEL 1
REMARK VINA RESULT:      -0.2      0.000      0.000
REMARK  3 active torsions:
REMARK  status: ('A' for Active; 'I' for Inactive)
REMARK    1  A    between atoms: C_5  and  C_1 
REMARK    2  A    between atoms: N_6  and  C_5 
REMARK    3  A    between atoms: C_8  and  C_5 
ROOT
ATOM      1  C   UNL d   1      58.413  -1.127  29.710  0.00  0.00     0.083 C 
ENDROOT
BRANCH   1   2
ATOM      2  C   UNL d   1      58.832  -0.503  29.304  0.00  0.00     0.037 A 
ATOM      3  C   UNL d   1      58.499  -0.002  28.730  0.00  0.00     0.083 A 
ATOM      4  N   UNL d   1      59.083   0.511  28.485  0.00  0.00    -0.245 NA
ATOM      5  C   UNL d   1      57.704  -0.027  28.455  0.00  0.00     0.021 C 
ATOM      6  C   UNL d   1      59.779   0.347  28.892  0.00  0.00     0.081 A 
ATOM      7  C   UNL d   1      59.620  -0.296  29.411  0.00  0.00     0.021 A 
ATOM      8  C   UNL d   1      60.527   0.682  28.869  0.00  0.00     0.019 A 
ATOM      9  C   UNL d   1      60.213  -0.588  29.894  0.00  0.00     0.002 A 
ATOM     10  C   UNL d   1      60.981  -0.243  29.870  0.00  0.00     0.000 A 
ATOM     11  C   UNL d   1      61.133   0.373  29.373  0.00  0.00     0.002 A 
ENDBRANCH   1   2
BRANCH   1  12
ATOM     12  N   UNL d   1      57.936  -0.960  30.372  0.00  0.00    -0.302 N 
ATOM     13  C   UNL d   1      57.911  -0.194  30.678  0.00  0.00     0.080 A 
ATOM     14  C   UNL d   1      57.438  -0.035  31.333  0.00  0.00     0.019 A 
ATOM     15  C   UNL d   1      56.991  -0.635  31.681  0.00  0.00     0.003 A 
ATOM     16  C   UNL d   1      57.012  -1.399  31.378  0.00  0.00     0.019 A 
ATOM     17  C   UNL d   1      56.512  -0.468  32.344  0.00  0.00     0.000 C 
ATOM     18  C   UNL d   1      57.486  -1.558  30.724  0.00  0.00     0.080 A 
ENDBRANCH   1  12
BRANCH   1  19
ATOM     19  C   UNL d   1      58.487  -1.924  29.433  0.00  0.00     0.098 A 
ATOM     20  N   UNL d   1      58.062  -2.177  28.774  0.00  0.00    -0.243 NA
ATOM     21  C   UNL d   1      58.129  -2.947  28.501  0.00  0.00     0.099 A 
ATOM     22  C   UNL d   1      58.628  -3.471  28.893  0.00  0.00     0.021 A 
ATOM     23  C   UNL d   1      59.056  -3.221  29.553  0.00  0.00     0.003 A 
ATOM     24  C   UNL d   1      58.994  -2.437  29.839  0.00  0.00     0.021 A 
ENDBRANCH   1  19
TORSDOF 3
ENDMDL
MODEL 2
REMARK VINA RESULT:       0.0      0.895      2.683
REMARK  3 active torsions:
REMARK  status: ('A' for Active; 'I' for Inactive)
REMARK    1  A    between atoms: C_5  and  C_1 
REMARK    2  A    between atoms: N_6  and  C_5 
REMARK    3  A    between atoms: C_8  and  C_5 
ROOT
ATOM      1  C   UNL d   1      59.119  -0.777  29.789  0.00  0.00     0.083 C 
ENDROOT
BRANCH   1   2
ATOM      2  C   UNL d   1      59.048  -1.501  29.343  0.00  0.00     0.037 A 
ATOM      3  C   UNL d   1      58.499  -1.632  28.732  0.00  0.00     0.083 A 
ATOM      4  N   UNL d   1      58.617  -2.390  28.455  0.00  0.00    -0.245 NA
ATOM      5  C   UNL d   1      57.929  -1.079  28.455  0.00  0.00     0.021 C 
ATOM      6  C   UNL d   1      59.229  -2.743  28.878  0.00  0.00     0.081 A 
ATOM      7  C   UNL d   1      59.502  -2.180  29.440  0.00  0.00     0.021 A 
ATOM      8  C   UNL d   1      59.576  -3.485  28.836  0.00  0.00     0.019 A 
ATOM      9  C   UNL d   1      60.115  -2.372  29.946  0.00  0.00     0.002 A 
ATOM     10  C   UNL d   1      60.471  -3.135  29.903  0.00  0.00     0.000 A 
ATOM     11  C   UNL d   1      60.210  -3.674  29.364  0.00  0.00     0.002 A 
ENDBRANCH   1   2
BRANCH   1  12
ATOM     12  N   UNL d   1      58.532  -0.555  30.338  0.00  0.00    -0.302 N 
ATOM     13  C   UNL d   1      58.181  -1.127  30.818  0.00  0.00     0.080 A 
ATOM     14  C   UNL d   1      57.602  -0.902  31.358  0.00  0.00     0.019 A 
ATOM     15  C   UNL d   1      57.373  -0.111  31.420  0.00  0.00     0.003 A 
ATOM     16  C   UNL d   1      57.721   0.461  30.944  0.00  0.00     0.019 A 
ATOM     17  C   UNL d   1      56.786   0.112  31.970  0.00  0.00     0.000 C 
ATOM     18  C   UNL d   1      58.300   0.236  30.403  0.00  0.00     0.080 A 
ENDBRANCH   1  12
BRANCH   1  19
ATOM     19  C   UNL d   1      59.795  -0.281  29.670  0.00  0.00     0.098 A 
ATOM     20  N   UNL d   1      60.361  -0.200  30.262  0.00  0.00    -0.243 NA
ATOM     21  C   UNL d   1      61.018   0.279  30.153  0.00  0.00     0.099 A 
ATOM     22  C   UNL d   1      61.109   0.681  29.441  0.00  0.00     0.021 A 
ATOM     23  C   UNL d   1      60.543   0.602  28.845  0.00  0.00     0.003 A 
ATOM     24  C   UNL d   1      59.870   0.116  28.947  0.00  0.00     0.021 A 
ENDBRANCH   1  19
TORSDOF 3
ENDMDL
MODEL 3
REMARK VINA RESULT:       0.2      1.294      2.965
REMARK  3 active torsions:
REMARK  status: ('A' for Active; 'I' for Inactive)
REMARK    1  A    between atoms: C_5  and  C_1 
REMARK    2  A    between atoms: N_6  and  C_5 
REMARK    3  A    between atoms: C_8  and  C_5 
ROOT
ATOM      1  C   UNL d   1      59.253  -0.621  29.452  0.00  0.00     0.083 C 
ENDROOT
BRANCH   1   2
ATOM      2  C   UNL d   1      59.945  -0.218  29.746  0.00  0.00     0.037 A 
ATOM      3  C   UNL d   1      60.598   0.008  29.283  0.00  0.00     0.083 A 
ATOM      4  N   UNL d   1      61.133   0.375  29.777  0.00  0.00    -0.245 NA
ATOM      5  C   UNL d   1      60.685  -0.123  28.457  0.00  0.00     0.021 C 
ATOM      6  C   UNL d   1      60.833   0.388  30.544  0.00  0.00     0.081 A 
ATOM      7  C   UNL d   1      60.081   0.012  30.524  0.00  0.00     0.021 A 
ATOM      8  C   UNL d   1      61.129   0.682  31.250  0.00  0.00     0.019 A 
ATOM      9  C   UNL d   1      59.642  -0.060  31.211  0.00  0.00     0.002 A 
ATOM     10  C   UNL d   1      59.947   0.242  31.937  0.00  0.00     0.000 A 
ATOM     11  C   UNL d   1      60.668   0.602  31.955  0.00  0.00     0.002 A 
ENDBRANCH   1   2
BRANCH   1  12
ATOM     12  N   UNL d   1      59.266  -1.443  29.311  0.00  0.00    -0.302 N 
ATOM     13  C   UNL d   1      58.936  -1.959  29.865  0.00  0.00     0.080 A 
ATOM     14  C   UNL d   1      58.952  -2.769  29.721  0.00  0.00     0.019 A 
ATOM     15  C   UNL d   1      59.293  -3.065  29.030  0.00  0.00     0.003 A 
ATOM     16  C   UNL d   1      59.622  -2.553  28.477  0.00  0.00     0.019 A 
ATOM     17  C   UNL d   1      59.306  -3.888  28.889  0.00  0.00     0.000 C 
ATOM     18  C   UNL d   1      59.607  -1.742  28.621  0.00  0.00     0.080 A 
ENDBRANCH   1  12
BRANCH   1  19
ATOM     19  C   UNL d   1      58.547  -0.178  29.301  0.00  0.00     0.098 A 
ATOM     20  N   UNL d   1      57.938  -0.166  29.854  0.00  0.00    -0.243 NA
ATOM     21  C   UNL d   1      57.252   0.261  29.715  0.00  0.00     0.099 A 
ATOM     22  C   UNL d   1      57.176   0.682  29.012  0.00  0.00     0.021 A 
ATOM     23  C   UNL d   1      57.785   0.672  28.456  0.00  0.00     0.003 A 
ATOM     24  C   UNL d   1      58.489   0.240  28.589  0.00  0.00     0.021 A 
ENDBRANCH   1  19
TORSDOF 3
ENDMDL
