MODEL 1
REMARK VINA RESULT:     108.8      0.000      0.000
REMARK  8 active torsions:
REMARK  status: ('A' for Active; 'I' for Inactive)
REMARK    1  A    between atoms: N_7  and  N_1 
REMARK    2  A    between atoms: S_9  and  C_2 
REMARK       I    between atoms: C_8  and  N_7 
REMARK    3  A    between atoms: C_21  and  C_8 
REMARK    4  A    between atoms: C_20  and  S_9 
REMARK    5  A    between atoms: C_10  and  C_20 
REMARK       I    between atoms: N_14  and  C_10 
REMARK    6  A    between atoms: C_12  and  C_22 
REMARK    7  A    between atoms: C_22  and  N_14 
REMARK    8  A    between atoms: C_24  and  C_21 
ROOT
ATOM      1  N   UNL d   1     -56.441-100.099 -43.667  0.00  0.00    -0.168 N 
ATOM      2  C   UNL d   1     -57.056 -99.661 -43.982  0.00  0.00     0.199 A 
ATOM      3  C   UNL d   1     -55.691-100.097 -44.041  0.00  0.00     0.283 A 
ATOM      4  N   UNL d   1     -56.943 -99.208 -44.681  0.00  0.00    -0.221 NA
ATOM      5  C   UNL d   1     -55.584 -99.641 -44.741  0.00  0.00     0.076 A 
ATOM      6  C   UNL d   1     -56.210 -99.202 -45.052  0.00  0.00     0.088 A 
ATOM      7  O   UNL d   1     -55.070-100.539 -43.723  0.00  0.00    -0.265 OA
ATOM      8  C   UNL d   1     -54.841 -99.642 -45.106  0.00  0.00     0.006 A 
ATOM      9  C   UNL d   1     -56.082 -98.760 -45.741  0.00  0.00     0.019 A 
ATOM     10  C   UNL d   1     -54.731 -99.197 -45.791  0.00  0.00     0.000 A 
ATOM     11  C   UNL d   1     -55.352 -98.755 -46.109  0.00  0.00     0.002 A 
ENDROOT
BRANCH   2  12
ATOM     12  S   UNL d   1     -57.781 -99.660 -43.625  0.00  0.00    -0.043 SA
BRANCH  12  13
ATOM     13  C   UNL d   1     -58.307 -99.040 -43.753  0.00  0.00     0.101 C 
BRANCH  13  14
ATOM     14  C   UNL d   1     -59.010 -99.000 -43.323  0.00  0.00     0.286 C 
ATOM     15  N   UNL d   1     -58.990 -98.993 -42.502  0.00  0.00    -0.204 NA
ATOM     16  O   UNL d   1     -59.738 -98.965 -43.719  0.00  0.00    -0.265 OA
BRANCH  15  17
ATOM     17  C   UNL d   1     -59.698 -98.952 -42.078  0.00  0.00     0.127 C 
BRANCH  17  18
ATOM     18  C   UNL d   1     -59.712 -99.216 -41.289  0.00  0.00     0.119 A 
ATOM     19  O   UNL d   1     -59.530 -98.771 -40.626  0.00  0.00    -0.304 OA
ATOM     20  C   UNL d   1     -59.617 -99.254 -39.962  0.00  0.00     0.123 A 
ATOM     21  C   UNL d   1     -59.856-100.004 -40.218  0.00  0.00     0.029 A 
ATOM     22  C   UNL d   1     -59.915 -99.980 -41.044  0.00  0.00     0.028 A 
ENDBRANCH  17  18
ENDBRANCH  15  17
ENDBRANCH  13  14
ENDBRANCH  12  13
ENDBRANCH   2  12
BRANCH   1  23
ATOM     23  N   UNL d   1     -56.547-100.537 -42.994  0.00  0.00    -0.119 NA
ATOM     24  C   UNL d   1     -56.670-101.356 -43.047  0.00  0.00     0.296 C 
ATOM     25  O   UNL d   1     -56.683-101.719 -43.787  0.00  0.00    -0.264 OA
BRANCH  24  26
ATOM     26  C   UNL d   1     -56.779-101.802 -42.362  0.00  0.00     0.064 C 
BRANCH  26  27
ATOM     27  C   UNL d   1     -56.144-101.940 -41.863  0.00  0.00     0.005 A 
ATOM     28  C   UNL d   1     -55.394-101.723 -42.104  0.00  0.00     0.000 A 
ATOM     29  C   UNL d   1     -54.754-101.862 -41.600  0.00  0.00     0.000 A 
ATOM     30  C   UNL d   1     -54.874-102.212 -40.869  0.00  0.00     0.000 A 
ATOM     31  C   UNL d   1     -55.635-102.423 -40.642  0.00  0.00     0.000 A 
ATOM     32  C   UNL d   1     -56.262-102.288 -41.135  0.00  0.00     0.000 A 
ENDBRANCH  26  27
ENDBRANCH  24  26
ENDBRANCH   1  23
TORSDOF 8
ENDMDL
