MODEL 1
REMARK VINA RESULT:      -4.3      0.000      0.000
REMARK  5 active torsions:
REMARK  status: ('A' for Active; 'I' for Inactive)
REMARK    1  A    between atoms: C_2  and  C_1 
REMARK    2  A    between atoms: O_16  and  C_13 
REMARK    3  A    between atoms: C_21  and  O_16 
REMARK    4  A    between atoms: O_22  and  C_17 
REMARK    5  A    between atoms: C_20  and  C_21 
ROOT
ATOM      1  C   UNL d   1      59.248  -0.955  29.169  0.00  0.00     0.030 A 
ATOM      2  C   UNL d   1      58.795  -0.570  29.741  0.00  0.00     0.027 A 
ATOM      3  C   UNL d   1      58.912   0.235  29.882  0.00  0.00     0.103 A 
ATOM      4  O   UNL d   1      59.479   0.654  29.456  0.00  0.00    -0.273 OA
ATOM      5  C   UNL d   1      59.933   0.270  28.884  0.00  0.00     0.300 A 
ATOM      6  C   UNL d   1      59.816  -0.535  28.743  0.00  0.00     0.071 A 
ATOM      7  C   UNL d   1      58.221  -0.985  30.176  0.00  0.00     0.027 A 
ATOM      8  C   UNL d   1      57.779  -0.590  30.739  0.00  0.00     0.100 A 
ATOM      9  C   UNL d   1      58.459   0.625  30.455  0.00  0.00     0.027 A 
ATOM     10  C   UNL d   1      57.893   0.214  30.884  0.00  0.00     0.025 A 
ATOM     11  O   UNL d   1      60.500   0.680  28.455  0.00  0.00    -0.259 OA
ATOM     12  C   UNL d   1      57.447   0.599  31.448  0.00  0.00     0.002 C 
ENDROOT
BRANCH   1  13
ATOM     13  C   UNL d   1      59.127  -1.760  29.032  0.00  0.00     0.100 A 
ATOM     14  O   UNL d   1      59.700  -2.350  29.109  0.00  0.00    -0.305 OA
ATOM     15  C   UNL d   1      59.351  -3.072  28.921  0.00  0.00     0.122 A 
ATOM     16  C   UNL d   1      59.645  -3.839  28.900  0.00  0.00     0.117 A 
ATOM     17  C   UNL d   1      58.562  -2.931  28.728  0.00  0.00     0.027 A 
ATOM     18  C   UNL d   1      59.160  -4.462  28.689  0.00  0.00     0.026 A 
ATOM     19  C   UNL d   1      58.369  -4.327  28.495  0.00  0.00     0.002 A 
ATOM     20  C   UNL d   1      58.070  -3.558  28.515  0.00  0.00     0.002 A 
ATOM     21  C   UNL d   1      58.424  -2.122  28.797  0.00  0.00     0.027 A 
BRANCH  16  22
ATOM     22  O   UNL d   1      60.425  -3.978  29.091  0.00  0.00    -0.326 OA
ATOM     23  C   UNL d   1      60.933  -4.312  28.534  0.00  0.00     0.181 C 
ENDBRANCH  16  22
ENDBRANCH   1  13
BRANCH   8  24
ATOM     24  O   UNL d   1      57.208  -1.011  31.169  0.00  0.00    -0.302 OA
BRANCH  24  25
ATOM     25  C   UNL d   1      56.788  -0.635  31.771  0.00  0.00     0.165 C 
BRANCH  25  26
ATOM     26  C   UNL d   1      56.287  -1.067  32.257  0.00  0.00     0.220 C 
ATOM     27  O   UNL d   1      56.249  -1.887  32.180  0.00  0.00    -0.284 OA
ATOM     28  C   UNL d   1      55.829  -0.695  32.812  0.00  0.00     0.048 C 
ENDBRANCH  25  26
ENDBRANCH  24  25
ENDBRANCH   8  24
TORSDOF 5
ENDMDL
MODEL 2
REMARK VINA RESULT:      -2.3      1.832      3.958
REMARK  5 active torsions:
REMARK  status: ('A' for Active; 'I' for Inactive)
REMARK    1  A    between atoms: C_2  and  C_1 
REMARK    2  A    between atoms: O_16  and  C_13 
REMARK    3  A    between atoms: C_21  and  O_16 
REMARK    4  A    between atoms: O_22  and  C_17 
REMARK    5  A    between atoms: C_20  and  C_21 
ROOT
ATOM      1  C   UNL d   1      56.991  -0.172  31.738  0.00  0.00     0.030 A 
ATOM      2  C   UNL d   1      57.414   0.042  32.413  0.00  0.00     0.027 A 
ATOM      3  C   UNL d   1      57.035   0.054  33.147  0.00  0.00     0.103 A 
ATOM      4  O   UNL d   1      56.238  -0.148  33.208  0.00  0.00    -0.273 OA
ATOM      5  C   UNL d   1      55.815  -0.362  32.534  0.00  0.00     0.300 A 
ATOM      6  C   UNL d   1      56.193  -0.374  31.800  0.00  0.00     0.071 A 
ATOM      7  C   UNL d   1      58.218   0.247  32.362  0.00  0.00     0.027 A 
ATOM      8  C   UNL d   1      58.624   0.457  33.039  0.00  0.00     0.100 A 
ATOM      9  C   UNL d   1      57.457   0.269  33.827  0.00  0.00     0.027 A 
ATOM     10  C   UNL d   1      58.250   0.470  33.775  0.00  0.00     0.025 A 
ATOM     11  O   UNL d   1      55.021  -0.564  32.585  0.00  0.00    -0.259 OA
ATOM     12  C   UNL d   1      58.664   0.681  34.445  0.00  0.00     0.002 C 
ENDROOT
BRANCH   1  13
ATOM     13  C   UNL d   1      57.374  -0.182  31.008  0.00  0.00     0.100 A 
ATOM     14  O   UNL d   1      57.763  -0.833  30.681  0.00  0.00    -0.305 OA
ATOM     15  C   UNL d   1      58.068  -0.609  29.950  0.00  0.00     0.122 A 
ATOM     16  C   UNL d   1      58.500  -1.017  29.382  0.00  0.00     0.117 A 
ATOM     17  C   UNL d   1      57.869   0.181  29.822  0.00  0.00     0.027 A 
ATOM     18  C   UNL d   1      58.734  -0.645  28.693  0.00  0.00     0.026 A 
ATOM     19  C   UNL d   1      58.538   0.146  28.560  0.00  0.00     0.002 A 
ATOM     20  C   UNL d   1      58.104   0.559  29.128  0.00  0.00     0.002 A 
ATOM     21  C   UNL d   1      57.442   0.444  30.475  0.00  0.00     0.027 A 
BRANCH  16  22
ATOM     22  O   UNL d   1      58.697  -1.798  29.508  0.00  0.00    -0.326 OA
ATOM     23  C   UNL d   1      59.396  -2.103  29.196  0.00  0.00     0.181 C 
ENDBRANCH  16  22
ENDBRANCH   1  13
BRANCH   8  24
ATOM     24  O   UNL d   1      59.426   0.660  32.980  0.00  0.00    -0.302 OA
BRANCH  24  25
ATOM     25  C   UNL d   1      59.860   0.430  32.317  0.00  0.00     0.165 C 
BRANCH  25  26
ATOM     26  C   UNL d   1      60.664   0.591  32.274  0.00  0.00     0.220 C 
ATOM     27  O   UNL d   1      61.105   0.663  32.968  0.00  0.00    -0.284 OA
ATOM     28  C   UNL d   1      61.028   0.680  31.556  0.00  0.00     0.048 C 
ENDBRANCH  25  26
ENDBRANCH  24  25
ENDBRANCH   8  24
TORSDOF 5
ENDMDL
