MODEL 1
REMARK VINA RESULT:      -5.4      0.000      0.000
REMARK  6 active torsions:
REMARK  status: ('A' for Active; 'I' for Inactive)
REMARK    1  A    between atoms: C_3  and  C_4 
REMARK    2  A    between atoms: C_9  and  O_18 
REMARK    3  A    between atoms: O_17  and  C_10 
REMARK    4  A    between atoms: C_21  and  O_17 
REMARK    5  A    between atoms: O_18  and  C_20 
REMARK    6  A    between atoms: C_20  and  C_21 
ROOT
ATOM      1  N   UNL d   1     -42.386  15.922  15.732  0.00  0.00    -0.191 NA
ATOM      2  C   UNL d   1     -41.818  15.807  16.290  0.00  0.00     0.101 C 
ATOM      3  C   UNL d   1     -41.238  15.690  16.859  0.00  0.00     0.068 A 
ATOM      4  C   UNL d   1     -40.075  15.455  18.002  0.00  0.00     0.100 A 
ATOM      5  C   UNL d   1     -41.373  15.919  17.636  0.00  0.00     0.012 A 
ATOM      6  C   UNL d   1     -40.519  15.342  16.649  0.00  0.00     0.012 A 
ATOM      7  C   UNL d   1     -39.937  15.224  17.221  0.00  0.00     0.025 A 
ATOM      8  C   UNL d   1     -40.790  15.801  18.209  0.00  0.00     0.025 A 
ENDROOT
BRANCH   4   9
ATOM      9  O   UNL d   1     -39.489  15.337  18.576  0.00  0.00    -0.303 OA
BRANCH   9  10
ATOM     10  C   UNL d   1     -39.406  14.596  18.930  0.00  0.00     0.149 C 
BRANCH  10  11
ATOM     11  C   UNL d   1     -39.115  14.540  19.700  0.00  0.00     0.149 C 
BRANCH  11  12
ATOM     12  O   UNL d   1     -38.902  13.803  20.015  0.00  0.00    -0.303 OA
BRANCH  12  13
ATOM     13  C   UNL d   1     -38.761  13.718  20.843  0.00  0.00     0.100 A 
ATOM     14  C   UNL d   1     -39.314  14.002  21.386  0.00  0.00     0.025 A 
ATOM     15  C   UNL d   1     -39.176  13.918  22.195  0.00  0.00     0.005 A 
ATOM     16  C   UNL d   1     -38.485  13.551  22.458  0.00  0.00     0.039 A 
ATOM     17  C   UNL d   1     -37.940  13.271  21.917  0.00  0.00     0.005 A 
ATOM     18  C   UNL d   1     -38.078  13.355  21.108  0.00  0.00     0.025 A 
BRANCH  16  19
ATOM     19  C   UNL d   1     -38.346  13.467  23.271  0.00  0.00     0.196 C 
ATOM     20  O   UNL d   1     -38.533  12.767  23.649  0.00  0.00    -0.287 OA
ATOM     21  C   UNL d   1     -38.020  14.093  23.698  0.00  0.00     0.045 C 
ENDBRANCH  16  19
ENDBRANCH  12  13
ENDBRANCH  11  12
ENDBRANCH  10  11
ENDBRANCH   9  10
ENDBRANCH   4   9
TORSDOF 6
ENDMDL
MODEL 2
REMARK VINA RESULT:      -4.6      8.215      9.375
REMARK  6 active torsions:
REMARK  status: ('A' for Active; 'I' for Inactive)
REMARK    1  A    between atoms: C_3  and  C_4 
REMARK    2  A    between atoms: C_9  and  O_18 
REMARK    3  A    between atoms: O_17  and  C_10 
REMARK    4  A    between atoms: C_21  and  O_17 
REMARK    5  A    between atoms: O_18  and  C_20 
REMARK    6  A    between atoms: C_20  and  C_21 
ROOT
ATOM      1  N   UNL d   1     -42.386  12.722  21.028  0.00  0.00    -0.191 NA
ATOM      2  C   UNL d   1     -43.104  12.712  21.390  0.00  0.00     0.101 C 
ATOM      3  C   UNL d   1     -43.838  12.701  21.759  0.00  0.00     0.068 A 
ATOM      4  C   UNL d   1     -45.309  12.679  22.500  0.00  0.00     0.100 A 
ATOM      5  C   UNL d   1     -44.015  12.111  22.303  0.00  0.00     0.012 A 
ATOM      6  C   UNL d   1     -44.395  13.283  21.583  0.00  0.00     0.012 A 
ATOM      7  C   UNL d   1     -45.132  13.272  21.954  0.00  0.00     0.025 A 
ATOM      8  C   UNL d   1     -44.752  12.100  22.674  0.00  0.00     0.025 A 
ENDROOT
BRANCH   4   9
ATOM      9  O   UNL d   1     -46.049  12.668  22.873  0.00  0.00    -0.303 OA
BRANCH   9  10
ATOM     10  C   UNL d   1     -46.415  13.378  23.078  0.00  0.00     0.149 C 
BRANCH  10  11
ATOM     11  C   UNL d   1     -47.239  13.423  23.099  0.00  0.00     0.149 C 
BRANCH  11  12
ATOM     12  O   UNL d   1     -47.614  14.109  23.377  0.00  0.00    -0.303 OA
BRANCH  12  13
ATOM     13  C   UNL d   1     -48.394  14.302  23.120  0.00  0.00     0.100 A 
ATOM     14  C   UNL d   1     -48.511  14.928  22.595  0.00  0.00     0.025 A 
ATOM     15  C   UNL d   1     -49.274  15.117  22.344  0.00  0.00     0.005 A 
ATOM     16  C   UNL d   1     -49.917  14.679  22.619  0.00  0.00     0.039 A 
ATOM     17  C   UNL d   1     -49.797  14.060  23.140  0.00  0.00     0.005 A 
ATOM     18  C   UNL d   1     -49.034  13.871  23.391  0.00  0.00     0.025 A 
BRANCH  16  19
ATOM     19  C   UNL d   1     -50.684  14.868  22.367  0.00  0.00     0.196 C 
ATOM     20  O   UNL d   1     -51.062  15.529  22.665  0.00  0.00    -0.287 OA
ATOM     21  C   UNL d   1     -51.064  14.388  21.815  0.00  0.00     0.045 C 
ENDBRANCH  16  19
ENDBRANCH  12  13
ENDBRANCH  11  12
ENDBRANCH  10  11
ENDBRANCH   9  10
ENDBRANCH   4   9
TORSDOF 6
ENDMDL
MODEL 3
REMARK VINA RESULT:      -4.3      2.071      2.384
REMARK  6 active torsions:
REMARK  status: ('A' for Active; 'I' for Inactive)
REMARK    1  A    between atoms: C_3  and  C_4 
REMARK    2  A    between atoms: C_9  and  O_18 
REMARK    3  A    between atoms: O_17  and  C_10 
REMARK    4  A    between atoms: C_21  and  O_17 
REMARK    5  A    between atoms: O_18  and  C_20 
REMARK    6  A    between atoms: C_20  and  C_21 
ROOT
ATOM      1  N   UNL d   1     -37.975  13.513  14.110  0.00  0.00    -0.191 NA
ATOM      2  C   UNL d   1     -38.027  13.732  14.883  0.00  0.00     0.101 C 
ATOM      3  C   UNL d   1     -38.079  13.956  15.672  0.00  0.00     0.068 A 
ATOM      4  C   UNL d   1     -38.184  14.404  17.253  0.00  0.00     0.100 A 
ATOM      5  C   UNL d   1     -38.264  14.731  15.868  0.00  0.00     0.012 A 
ATOM      6  C   UNL d   1     -37.945  13.399  16.266  0.00  0.00     0.012 A 
ATOM      7  C   UNL d   1     -37.998  13.623  17.058  0.00  0.00     0.025 A 
ATOM      8  C   UNL d   1     -38.317  14.956  16.660  0.00  0.00     0.025 A 
ENDROOT
BRANCH   4   9
ATOM      9  O   UNL d   1     -38.237  14.629  18.049  0.00  0.00    -0.303 OA
BRANCH   9  10
ATOM     10  C   UNL d   1     -38.695  14.184  18.572  0.00  0.00     0.149 C 
BRANCH  10  11
ATOM     11  C   UNL d   1     -38.592  14.274  19.385  0.00  0.00     0.149 C 
BRANCH  11  12
ATOM     12  O   UNL d   1     -39.220  14.123  19.906  0.00  0.00    -0.303 OA
BRANCH  12  13
ATOM     13  C   UNL d   1     -39.085  14.088  20.738  0.00  0.00     0.100 A 
ATOM     14  C   UNL d   1     -39.585  14.495  21.254  0.00  0.00     0.025 A 
ATOM     15  C   UNL d   1     -39.452  14.461  22.067  0.00  0.00     0.005 A 
ATOM     16  C   UNL d   1     -38.820  14.020  22.363  0.00  0.00     0.039 A 
ATOM     17  C   UNL d   1     -38.327  13.618  21.849  0.00  0.00     0.005 A 
ATOM     18  C   UNL d   1     -38.460  13.652  21.035  0.00  0.00     0.025 A 
BRANCH  16  19
ATOM     19  C   UNL d   1     -38.687  13.986  23.180  0.00  0.00     0.196 C 
ATOM     20  O   UNL d   1     -38.552  14.672  23.603  0.00  0.00    -0.287 OA
ATOM     21  C   UNL d   1     -38.692  13.256  23.566  0.00  0.00     0.045 C 
ENDBRANCH  16  19
ENDBRANCH  12  13
ENDBRANCH  11  12
ENDBRANCH  10  11
ENDBRANCH   9  10
ENDBRANCH   4   9
TORSDOF 6
ENDMDL
MODEL 4
REMARK VINA RESULT:      -4.1      4.959      5.595
REMARK  6 active torsions:
REMARK  status: ('A' for Active; 'I' for Inactive)
REMARK    1  A    between atoms: C_3  and  C_4 
REMARK    2  A    between atoms: C_9  and  O_18 
REMARK    3  A    between atoms: O_17  and  C_10 
REMARK    4  A    between atoms: C_21  and  O_17 
REMARK    5  A    between atoms: O_18  and  C_20 
REMARK    6  A    between atoms: C_20  and  C_21 
ROOT
ATOM      1  N   UNL d   1     -39.556  15.902  18.705  0.00  0.00    -0.191 NA
ATOM      2  C   UNL d   1     -40.007  15.473  19.215  0.00  0.00     0.101 C 
ATOM      3  C   UNL d   1     -40.468  15.035  19.735  0.00  0.00     0.068 A 
ATOM      4  C   UNL d   1     -41.391  14.158  20.778  0.00  0.00     0.100 A 
ATOM      5  C   UNL d   1     -40.857  15.410  20.353  0.00  0.00     0.012 A 
ATOM      6  C   UNL d   1     -40.538  14.219  19.635  0.00  0.00     0.012 A 
ATOM      7  C   UNL d   1     -41.000  13.779  20.157  0.00  0.00     0.025 A 
ATOM      8  C   UNL d   1     -41.320  14.970  20.876  0.00  0.00     0.025 A 
ENDROOT
BRANCH   4   9
ATOM      9  O   UNL d   1     -41.856  13.716  21.304  0.00  0.00    -0.303 OA
BRANCH   9  10
ATOM     10  C   UNL d   1     -42.569  13.390  21.045  0.00  0.00     0.149 C 
BRANCH  10  11
ATOM     11  C   UNL d   1     -43.115  13.109  21.597  0.00  0.00     0.149 C 
BRANCH  11  12
ATOM     12  O   UNL d   1     -43.830  12.773  21.344  0.00  0.00    -0.303 OA
BRANCH  12  13
ATOM     13  C   UNL d   1     -44.506  12.780  21.849  0.00  0.00     0.100 A 
ATOM     14  C   UNL d   1     -44.636  12.153  22.371  0.00  0.00     0.025 A 
ATOM     15  C   UNL d   1     -45.297  12.159  22.865  0.00  0.00     0.005 A 
ATOM     16  C   UNL d   1     -45.825  12.792  22.835  0.00  0.00     0.039 A 
ATOM     17  C   UNL d   1     -45.693  13.412  22.318  0.00  0.00     0.005 A 
ATOM     18  C   UNL d   1     -45.032  13.405  21.824  0.00  0.00     0.025 A 
BRANCH  16  19
ATOM     19  C   UNL d   1     -46.489  12.799  23.332  0.00  0.00     0.196 C 
ATOM     20  O   UNL d   1     -46.795  13.509  23.599  0.00  0.00    -0.287 OA
ATOM     21  C   UNL d   1     -46.841  12.087  23.555  0.00  0.00     0.045 C 
ENDBRANCH  16  19
ENDBRANCH  12  13
ENDBRANCH  11  12
ENDBRANCH  10  11
ENDBRANCH   9  10
ENDBRANCH   4   9
TORSDOF 6
ENDMDL
MODEL 5
REMARK VINA RESULT:      -4.1      6.170      6.977
REMARK  6 active torsions:
REMARK  status: ('A' for Active; 'I' for Inactive)
REMARK    1  A    between atoms: C_3  and  C_4 
REMARK    2  A    between atoms: C_9  and  O_18 
REMARK    3  A    between atoms: O_17  and  C_10 
REMARK    4  A    between atoms: C_21  and  O_17 
REMARK    5  A    between atoms: O_18  and  C_20 
REMARK    6  A    between atoms: C_20  and  C_21 
ROOT
ATOM      1  N   UNL d   1     -49.017  11.351  23.646  0.00  0.00    -0.191 NA
ATOM      2  C   UNL d   1     -48.328  11.714  23.444  0.00  0.00     0.101 C 
ATOM      3  C   UNL d   1     -47.625  12.085  23.238  0.00  0.00     0.068 A 
ATOM      4  C   UNL d   1     -46.216  12.830  22.824  0.00  0.00     0.100 A 
ATOM      5  C   UNL d   1     -46.912  11.810  23.537  0.00  0.00     0.012 A 
ATOM      6  C   UNL d   1     -47.638  12.736  22.729  0.00  0.00     0.012 A 
ATOM      7  C   UNL d   1     -46.932  13.108  22.522  0.00  0.00     0.025 A 
ATOM      8  C   UNL d   1     -46.206  12.183  23.330  0.00  0.00     0.025 A 
ENDROOT
BRANCH   4   9
ATOM      9  O   UNL d   1     -45.506  13.204  22.616  0.00  0.00    -0.303 OA
BRANCH   9  10
ATOM     10  C   UNL d   1     -45.005  12.855  22.061  0.00  0.00     0.149 C 
BRANCH  10  11
ATOM     11  C   UNL d   1     -44.321  13.248  21.822  0.00  0.00     0.149 C 
BRANCH  11  12
ATOM     12  O   UNL d   1     -43.700  12.829  21.464  0.00  0.00    -0.303 OA
BRANCH  12  13
ATOM     13  C   UNL d   1     -42.962  13.208  21.311  0.00  0.00     0.100 A 
ATOM     14  C   UNL d   1     -42.261  12.773  21.347  0.00  0.00     0.025 A 
ATOM     15  C   UNL d   1     -41.540  13.144  21.197  0.00  0.00     0.005 A 
ATOM     16  C   UNL d   1     -41.522  13.949  21.012  0.00  0.00     0.039 A 
ATOM     17  C   UNL d   1     -42.218  14.376  20.977  0.00  0.00     0.005 A 
ATOM     18  C   UNL d   1     -42.940  14.005  21.127  0.00  0.00     0.025 A 
BRANCH  16  19
ATOM     19  C   UNL d   1     -40.797  14.321  20.861  0.00  0.00     0.196 C 
ATOM     20  O   UNL d   1     -40.263  14.440  21.469  0.00  0.00    -0.287 OA
ATOM     21  C   UNL d   1     -40.616  14.572  20.096  0.00  0.00     0.045 C 
ENDBRANCH  16  19
ENDBRANCH  12  13
ENDBRANCH  11  12
ENDBRANCH  10  11
ENDBRANCH   9  10
ENDBRANCH   4   9
TORSDOF 6
ENDMDL
MODEL 6
REMARK VINA RESULT:      -4.1      6.523      7.263
REMARK  6 active torsions:
REMARK  status: ('A' for Active; 'I' for Inactive)
REMARK    1  A    between atoms: C_3  and  C_4 
REMARK    2  A    between atoms: C_9  and  O_18 
REMARK    3  A    between atoms: O_17  and  C_10 
REMARK    4  A    between atoms: C_21  and  O_17 
REMARK    5  A    between atoms: O_18  and  C_20 
REMARK    6  A    between atoms: C_20  and  C_21 
ROOT
ATOM      1  N   UNL d   1     -40.087  14.748  20.703  0.00  0.00    -0.191 NA
ATOM      2  C   UNL d   1     -40.783  14.372  20.853  0.00  0.00     0.101 C 
ATOM      3  C   UNL d   1     -41.492  13.989  21.007  0.00  0.00     0.068 A 
ATOM      4  C   UNL d   1     -42.916  13.221  21.315  0.00  0.00     0.100 A 
ATOM      5  C   UNL d   1     -42.203  14.393  20.926  0.00  0.00     0.012 A 
ATOM      6  C   UNL d   1     -41.490  13.198  21.242  0.00  0.00     0.012 A 
ATOM      7  C   UNL d   1     -42.203  12.813  21.397  0.00  0.00     0.025 A 
ATOM      8  C   UNL d   1     -42.916  14.008  21.080  0.00  0.00     0.025 A 
ENDROOT
BRANCH   4   9
ATOM      9  O   UNL d   1     -43.633  12.834  21.470  0.00  0.00    -0.303 OA
BRANCH   9  10
ATOM     10  C   UNL d   1     -44.261  13.253  21.803  0.00  0.00     0.149 C 
BRANCH  10  11
ATOM     11  C   UNL d   1     -44.947  12.853  22.028  0.00  0.00     0.149 C 
BRANCH  11  12
ATOM     12  O   UNL d   1     -45.406  13.133  22.660  0.00  0.00    -0.303 OA
BRANCH  12  13
ATOM     13  C   UNL d   1     -46.164  12.795  22.818  0.00  0.00     0.100 A 
ATOM     14  C   UNL d   1     -46.831  13.080  22.423  0.00  0.00     0.025 A 
ATOM     15  C   UNL d   1     -47.571  12.750  22.578  0.00  0.00     0.005 A 
ATOM     16  C   UNL d   1     -47.642  12.137  23.126  0.00  0.00     0.039 A 
ATOM     17  C   UNL d   1     -46.978  11.859  23.515  0.00  0.00     0.005 A 
ATOM     18  C   UNL d   1     -46.238  12.188  23.361  0.00  0.00     0.025 A 
BRANCH  16  19
ATOM     19  C   UNL d   1     -48.386  11.806  23.282  0.00  0.00     0.196 C 
ATOM     20  O   UNL d   1     -48.560  11.051  23.023  0.00  0.00    -0.287 OA
ATOM     21  C   UNL d   1     -48.949  12.242  23.698  0.00  0.00     0.045 C 
ENDBRANCH  16  19
ENDBRANCH  12  13
ENDBRANCH  11  12
ENDBRANCH  10  11
ENDBRANCH   9  10
ENDBRANCH   4   9
TORSDOF 6
ENDMDL
MODEL 7
REMARK VINA RESULT:      -4.0      2.606      3.635
REMARK  6 active torsions:
REMARK  status: ('A' for Active; 'I' for Inactive)
REMARK    1  A    between atoms: C_3  and  C_4 
REMARK    2  A    between atoms: C_9  and  O_18 
REMARK    3  A    between atoms: O_17  and  C_10 
REMARK    4  A    between atoms: C_21  and  O_17 
REMARK    5  A    between atoms: O_18  and  C_20 
REMARK    6  A    between atoms: C_20  and  C_21 
ROOT
ATOM      1  N   UNL d   1     -37.944  13.084  13.079  0.00  0.00    -0.191 NA
ATOM      2  C   UNL d   1     -37.998  13.439  13.799  0.00  0.00     0.101 C 
ATOM      3  C   UNL d   1     -38.052  13.801  14.534  0.00  0.00     0.068 A 
ATOM      4  C   UNL d   1     -38.161  14.528  16.008  0.00  0.00     0.100 A 
ATOM      5  C   UNL d   1     -38.218  13.353  15.202  0.00  0.00     0.012 A 
ATOM      6  C   UNL d   1     -37.940  14.617  14.599  0.00  0.00     0.012 A 
ATOM      7  C   UNL d   1     -37.994  14.981  15.338  0.00  0.00     0.025 A 
ATOM      8  C   UNL d   1     -38.273  13.717  15.940  0.00  0.00     0.025 A 
ENDROOT
BRANCH   4   9
ATOM      9  O   UNL d   1     -38.216  14.894  16.750  0.00  0.00    -0.303 OA
BRANCH   9  10
ATOM     10  C   UNL d   1     -38.910  15.286  16.963  0.00  0.00     0.149 C 
BRANCH  10  11
ATOM     11  C   UNL d   1     -39.143  15.306  17.754  0.00  0.00     0.149 C 
BRANCH  11  12
ATOM     12  O   UNL d   1     -39.939  15.427  17.953  0.00  0.00    -0.303 OA
BRANCH  12  13
ATOM     13  C   UNL d   1     -40.215  15.254  18.732  0.00  0.00     0.100 A 
ATOM     14  C   UNL d   1     -40.216  15.845  19.309  0.00  0.00     0.025 A 
ATOM     15  C   UNL d   1     -40.485  15.676  20.070  0.00  0.00     0.005 A 
ATOM     16  C   UNL d   1     -40.753  14.917  20.252  0.00  0.00     0.039 A 
ATOM     17  C   UNL d   1     -40.751  14.334  19.678  0.00  0.00     0.005 A 
ATOM     18  C   UNL d   1     -40.481  14.503  18.916  0.00  0.00     0.025 A 
BRANCH  16  19
ATOM     19  C   UNL d   1     -41.024  14.747  21.017  0.00  0.00     0.196 C 
ATOM     20  O   UNL d   1     -41.809  14.555  21.141  0.00  0.00    -0.287 OA
ATOM     21  C   UNL d   1     -40.498  14.771  21.652  0.00  0.00     0.045 C 
ENDBRANCH  16  19
ENDBRANCH  12  13
ENDBRANCH  11  12
ENDBRANCH  10  11
ENDBRANCH   9  10
ENDBRANCH   4   9
TORSDOF 6
ENDMDL
MODEL 8
REMARK VINA RESULT:      -3.7      4.796      5.920
REMARK  6 active torsions:
REMARK  status: ('A' for Active; 'I' for Inactive)
REMARK    1  A    between atoms: C_3  and  C_4 
REMARK    2  A    between atoms: C_9  and  O_18 
REMARK    3  A    between atoms: O_17  and  C_10 
REMARK    4  A    between atoms: C_21  and  O_17 
REMARK    5  A    between atoms: O_18  and  C_20 
REMARK    6  A    between atoms: C_20  and  C_21 
ROOT
ATOM      1  N   UNL d   1     -47.445  12.836  23.503  0.00  0.00    -0.191 NA
ATOM      2  C   UNL d   1     -46.730  12.796  23.133  0.00  0.00     0.101 C 
ATOM      3  C   UNL d   1     -46.002  12.755  22.757  0.00  0.00     0.068 A 
ATOM      4  C   UNL d   1     -44.541  12.672  22.001  0.00  0.00     0.100 A 
ATOM      5  C   UNL d   1     -45.482  12.145  22.934  0.00  0.00     0.012 A 
ATOM      6  C   UNL d   1     -45.794  13.327  22.200  0.00  0.00     0.012 A 
ATOM      7  C   UNL d   1     -45.062  13.286  21.821  0.00  0.00     0.025 A 
ATOM      8  C   UNL d   1     -44.750  12.103  22.556  0.00  0.00     0.025 A 
ENDROOT
BRANCH   4   9
ATOM      9  O   UNL d   1     -43.805  12.630  21.621  0.00  0.00    -0.303 OA
BRANCH   9  10
ATOM     10  C   UNL d   1     -43.285  13.269  21.664  0.00  0.00     0.149 C 
BRANCH  10  11
ATOM     11  C   UNL d   1     -42.654  13.320  21.134  0.00  0.00     0.149 C 
BRANCH  11  12
ATOM     12  O   UNL d   1     -41.917  13.603  21.388  0.00  0.00    -0.303 OA
BRANCH  12  13
ATOM     13  C   UNL d   1     -41.459  14.106  20.888  0.00  0.00     0.100 A 
ATOM     14  C   UNL d   1     -41.098  13.798  20.213  0.00  0.00     0.025 A 
ATOM     15  C   UNL d   1     -40.651  14.290  19.725  0.00  0.00     0.005 A 
ATOM     16  C   UNL d   1     -40.565  15.089  19.914  0.00  0.00     0.039 A 
ATOM     17  C   UNL d   1     -40.924  15.391  20.585  0.00  0.00     0.005 A 
ATOM     18  C   UNL d   1     -41.372  14.898  21.073  0.00  0.00     0.025 A 
BRANCH  16  19
ATOM     19  C   UNL d   1     -40.116  15.584  19.424  0.00  0.00     0.196 C 
ATOM     20  O   UNL d   1     -40.361  15.736  18.660  0.00  0.00    -0.287 OA
ATOM     21  C   UNL d   1     -39.420  15.922  19.710  0.00  0.00     0.045 C 
ENDBRANCH  16  19
ENDBRANCH  12  13
ENDBRANCH  11  12
ENDBRANCH  10  11
ENDBRANCH   9  10
ENDBRANCH   4   9
TORSDOF 6
ENDMDL
MODEL 9
REMARK VINA RESULT:      -3.4      7.399      8.007
REMARK  6 active torsions:
REMARK  status: ('A' for Active; 'I' for Inactive)
REMARK    1  A    between atoms: C_3  and  C_4 
REMARK    2  A    between atoms: C_9  and  O_18 
REMARK    3  A    between atoms: O_17  and  C_10 
REMARK    4  A    between atoms: C_21  and  O_17 
REMARK    5  A    between atoms: O_18  and  C_20 
REMARK    6  A    between atoms: C_20  and  C_21 
ROOT
ATOM      1  N   UNL d   1     -51.064  13.849  22.246  0.00  0.00    -0.191 NA
ATOM      2  C   UNL d   1     -50.291  13.777  22.456  0.00  0.00     0.101 C 
ATOM      3  C   UNL d   1     -49.501  13.704  22.670  0.00  0.00     0.068 A 
ATOM      4  C   UNL d   1     -47.918  13.558  23.100  0.00  0.00     0.100 A 
ATOM      5  C   UNL d   1     -49.262  13.082  23.150  0.00  0.00     0.012 A 
ATOM      6  C   UNL d   1     -48.950  14.257  22.403  0.00  0.00     0.012 A 
ATOM      7  C   UNL d   1     -48.157  14.184  22.618  0.00  0.00     0.025 A 
ATOM      8  C   UNL d   1     -48.469  13.009  23.365  0.00  0.00     0.025 A 
ENDROOT
BRANCH   4   9
ATOM      9  O   UNL d   1     -47.121  13.484  23.316  0.00  0.00    -0.303 OA
BRANCH   9  10
ATOM     10  C   UNL d   1     -46.655  12.897  22.971  0.00  0.00     0.149 C 
BRANCH  10  11
ATOM     11  C   UNL d   1     -45.843  13.014  22.890  0.00  0.00     0.149 C 
BRANCH  11  12
ATOM     12  O   UNL d   1     -45.352  12.391  22.646  0.00  0.00    -0.303 OA
BRANCH  12  13
ATOM     13  C   UNL d   1     -44.633  12.551  22.234  0.00  0.00     0.100 A 
ATOM     14  C   UNL d   1     -44.585  13.201  21.728  0.00  0.00     0.025 A 
ATOM     15  C   UNL d   1     -43.882  13.357  21.325  0.00  0.00     0.005 A 
ATOM     16  C   UNL d   1     -43.229  12.862  21.431  0.00  0.00     0.039 A 
ATOM     17  C   UNL d   1     -43.281  12.219  21.934  0.00  0.00     0.005 A 
ATOM     18  C   UNL d   1     -43.984  12.063  22.336  0.00  0.00     0.025 A 
BRANCH  16  19
ATOM     19  C   UNL d   1     -42.523  13.019  21.027  0.00  0.00     0.196 C 
ATOM     20  O   UNL d   1     -42.469  12.874  20.224  0.00  0.00    -0.287 OA
ATOM     21  C   UNL d   1     -41.874  13.322  21.437  0.00  0.00     0.045 C 
ENDBRANCH  16  19
ENDBRANCH  12  13
ENDBRANCH  11  12
ENDBRANCH  10  11
ENDBRANCH   9  10
ENDBRANCH   4   9
TORSDOF 6
ENDMDL
