MODEL 1
REMARK VINA RESULT:      -3.3      0.000      0.000
REMARK  8 active torsions:
REMARK  status: ('A' for Active; 'I' for Inactive)
REMARK    1  A    between atoms: O_10  and  C_1 
REMARK    2  A    between atoms: C_12  and  C_4 
REMARK    3  A    between atoms: N_7  and  C_12 
REMARK    4  A    between atoms: C_15  and  N_8 
REMARK    5  A    between atoms: C_9  and  C_16 
REMARK       I    between atoms: N_11  and  C_9 
REMARK    6  A    between atoms: C_16  and  O_10 
REMARK    7  A    between atoms: C_22  and  N_11 
REMARK    8  A    between atoms: C_21  and  C_15 
ROOT
ATOM      1  C   UNL d   1      59.567  -1.306  29.033  0.00  0.00     0.164 A 
ATOM      2  C   UNL d   1      59.709  -0.032  29.523  0.00  0.00     0.070 A 
ATOM      3  C   UNL d   1      60.045  -0.697  29.222  0.00  0.00     0.222 A 
ATOM      4  C   UNL d   1      58.917   0.016  29.629  0.00  0.00     0.121 A 
ATOM      5  C   UNL d   1      58.775  -1.259  29.139  0.00  0.00     0.150 A 
ATOM      6  O   UNL d   1      58.454  -0.601  29.435  0.00  0.00    -0.301 OA
ATOM      7  O   UNL d   1      60.828  -0.744  29.117  0.00  0.00    -0.284 OA
ENDROOT
BRANCH   4   8
ATOM      8  C   UNL d   1      58.593   0.681  29.929  0.00  0.00     0.105 C 
BRANCH   8   9
ATOM      9  N   UNL d   1      58.132   0.645  30.611  0.00  0.00    -0.298 N 
ATOM     10  C   UNL d   1      57.303   0.682  30.564  0.00  0.00     0.100 A 
ATOM     11  C   UNL d   1      56.841   0.645  31.255  0.00  0.00     0.100 A 
ATOM     12  N   UNL d   1      57.202   0.571  31.993  0.00  0.00    -0.300 N 
ATOM     13  C   UNL d   1      58.036   0.533  32.047  0.00  0.00     0.100 A 
ATOM     14  C   UNL d   1      58.492   0.570  31.358  0.00  0.00     0.100 A 
BRANCH  12  15
ATOM     15  C   UNL d   1      56.947   0.518  32.774  0.00  0.00     0.080 C 
BRANCH  15  16
ATOM     16  C   UNL d   1      56.265   0.219  33.149  0.00  0.00     0.018 A 
ATOM     17  C   UNL d   1      55.859   0.679  33.706  0.00  0.00     0.002 A 
ATOM     18  C   UNL d   1      55.185   0.375  34.073  0.00  0.00     0.000 A 
ATOM     19  C   UNL d   1      54.915  -0.381  33.890  0.00  0.00     0.000 A 
ATOM     20  C   UNL d   1      55.327  -0.846  33.327  0.00  0.00     0.000 A 
ATOM     21  C   UNL d   1      56.002  -0.538  32.961  0.00  0.00     0.002 A 
ENDBRANCH  15  16
ENDBRANCH  12  15
ENDBRANCH   8   9
ENDBRANCH   4   8
BRANCH   1  22
ATOM     22  O   UNL d   1      59.484  -2.048  28.748  0.00  0.00    -0.295 OA
BRANCH  22  23
ATOM     23  C   UNL d   1      59.854  -2.688  29.129  0.00  0.00     0.185 C 
BRANCH  23  24
ATOM     24  C   UNL d   1      59.809  -3.435  28.787  0.00  0.00     0.304 C 
ATOM     25  N   UNL d   1      59.356  -4.102  28.582  0.00  0.00    -0.206 NA
ATOM     26  O   UNL d   1      60.470  -3.797  28.456  0.00  0.00    -0.263 OA
BRANCH  25  27
ATOM     27  C   UNL d   1      58.624  -4.499  28.573  0.00  0.00     0.085 C 
ATOM     28  C   UNL d   1      58.599  -5.316  28.681  0.00  0.00     0.021 C 
ATOM     29  C   UNL d   1      57.922  -4.076  28.455  0.00  0.00     0.021 C 
ENDBRANCH  25  27
ENDBRANCH  23  24
ENDBRANCH  22  23
ENDBRANCH   1  22
TORSDOF 8
ENDMDL
MODEL 2
REMARK VINA RESULT:      -2.2      1.762      5.668
REMARK  8 active torsions:
REMARK  status: ('A' for Active; 'I' for Inactive)
REMARK    1  A    between atoms: O_10  and  C_1 
REMARK    2  A    between atoms: C_12  and  C_4 
REMARK    3  A    between atoms: N_7  and  C_12 
REMARK    4  A    between atoms: C_15  and  N_8 
REMARK    5  A    between atoms: C_9  and  C_16 
REMARK       I    between atoms: N_11  and  C_9 
REMARK    6  A    between atoms: C_16  and  O_10 
REMARK    7  A    between atoms: C_22  and  N_11 
REMARK    8  A    between atoms: C_21  and  C_15 
ROOT
ATOM      1  C   UNL d   1      57.518   0.625  31.504  0.00  0.00     0.164 A 
ATOM      2  C   UNL d   1      58.107   0.624  30.263  0.00  0.00     0.070 A 
ATOM      3  C   UNL d   1      57.439   0.644  30.710  0.00  0.00     0.222 A 
ATOM      4  C   UNL d   1      58.829   0.586  30.606  0.00  0.00     0.121 A 
ATOM      5  C   UNL d   1      58.240   0.586  31.846  0.00  0.00     0.150 A 
ATOM      6  O   UNL d   1      58.890   0.567  31.399  0.00  0.00    -0.301 OA
ATOM      7  O   UNL d   1      56.725   0.682  30.371  0.00  0.00    -0.284 OA
ENDROOT
BRANCH   4   8
ATOM      8  C   UNL d   1      59.486   0.567  30.153  0.00  0.00     0.105 C 
BRANCH   8   9
ATOM      9  N   UNL d   1      59.648  -0.094  29.689  0.00  0.00    -0.298 N 
ATOM     10  C   UNL d   1      59.337  -0.160  28.921  0.00  0.00     0.100 A 
ATOM     11  C   UNL d   1      59.503  -0.829  28.455  0.00  0.00     0.100 A 
ATOM     12  N   UNL d   1      59.979  -1.434  28.752  0.00  0.00    -0.300 N 
ATOM     13  C   UNL d   1      60.295  -1.375  29.524  0.00  0.00     0.100 A 
ATOM     14  C   UNL d   1      60.128  -0.707  29.984  0.00  0.00     0.100 A 
BRANCH  12  15
ATOM     15  C   UNL d   1      60.259  -2.156  28.474  0.00  0.00     0.080 C 
BRANCH  15  16
ATOM     16  C   UNL d   1      59.991  -2.944  28.513  0.00  0.00     0.018 A 
ATOM     17  C   UNL d   1      60.533  -3.565  28.609  0.00  0.00     0.002 A 
ATOM     18  C   UNL d   1      60.259  -4.342  28.647  0.00  0.00     0.000 A 
ATOM     19  C   UNL d   1      59.454  -4.505  28.590  0.00  0.00     0.000 A 
ATOM     20  C   UNL d   1      58.907  -3.877  28.493  0.00  0.00     0.000 A 
ATOM     21  C   UNL d   1      59.185  -3.099  28.455  0.00  0.00     0.002 A 
ENDBRANCH  15  16
ENDBRANCH  12  15
ENDBRANCH   8   9
ENDBRANCH   4   8
BRANCH   1  22
ATOM     22  O   UNL d   1      57.175   0.625  32.225  0.00  0.00    -0.295 OA
BRANCH  22  23
ATOM     23  C   UNL d   1      56.520   0.136  32.379  0.00  0.00     0.185 C 
BRANCH  23  24
ATOM     24  C   UNL d   1      56.275   0.032  33.157  0.00  0.00     0.304 C 
ATOM     25  N   UNL d   1      55.686   0.117  33.739  0.00  0.00    -0.206 NA
ATOM     26  O   UNL d   1      56.766  -0.311  33.721  0.00  0.00    -0.263 OA
BRANCH  25  27
ATOM     27  C   UNL d   1      54.922   0.365  33.958  0.00  0.00     0.085 C 
ATOM     28  C   UNL d   1      54.746   0.495  34.753  0.00  0.00     0.021 C 
ATOM     29  C   UNL d   1      54.340   0.483  33.382  0.00  0.00     0.021 C 
ENDBRANCH  25  27
ENDBRANCH  23  24
ENDBRANCH  22  23
ENDBRANCH   1  22
TORSDOF 8
ENDMDL
