MODEL 1
REMARK VINA RESULT:      13.4      0.000      0.000
REMARK  3 active torsions:
REMARK  status: ('A' for Active; 'I' for Inactive)
REMARK    1  A    between atoms: C_4  and  C_1 
REMARK    2  A    between atoms: O_10  and  C_4 
REMARK    3  A    between atoms: C_13  and  O_10 
ROOT
ATOM      1  C   UNL d   1     -51.332  25.737  33.308  0.00  0.00     0.121 A 
ATOM      2  C   UNL d   1     -51.297  24.896  33.309  0.00  0.00     0.204 A 
ATOM      3  C   UNL d   1     -51.992  24.469  33.308  0.00  0.00     0.057 A 
ATOM      4  N   UNL d   1     -52.756  25.655  33.306  0.00  0.00    -0.244 NA
ATOM      5  C   UNL d   1     -52.063  26.117  33.307  0.00  0.00     0.107 A 
ATOM      6  C   UNL d   1     -52.722  24.849  33.307  0.00  0.00     0.085 A 
ATOM      7  O   UNL d   1     -50.574  24.520  33.310  0.00  0.00    -0.286 OA
ATOM      8  C   UNL d   1     -51.952  23.636  33.309  0.00  0.00     0.005 A 
ATOM      9  C   UNL d   1     -53.411  24.395  33.306  0.00  0.00     0.019 A 
ATOM     10  C   UNL d   1     -52.657  23.190  33.308  0.00  0.00     0.000 A 
ATOM     11  C   UNL d   1     -53.387  23.570  33.307  0.00  0.00     0.002 A 
ENDROOT
BRANCH   1  12
ATOM     12  C   UNL d   1     -50.630  26.181  33.308  0.00  0.00     0.305 C 
ATOM     13  O   UNL d   1     -49.895  25.799  33.311  0.00  0.00    -0.259 OA
BRANCH  12  14
ATOM     14  O   UNL d   1     -50.663  26.985  33.306  0.00  0.00    -0.271 OA
BRANCH  14  15
ATOM     15  C   UNL d   1     -49.970  27.426  33.373  0.00  0.00     0.126 C 
ATOM     16  C   UNL d   1     -50.001  28.258  33.381  0.00  0.00     0.029 C 
ENDBRANCH  14  15
ENDBRANCH  12  14
ENDBRANCH   1  12
TORSDOF 3
ENDMDL
