MODEL 1
REMARK VINA RESULT:      -7.1      0.000      0.000
REMARK  0 active torsions:
REMARK  status: ('A' for Active; 'I' for Inactive)
ROOT
ATOM      1  C   UNL d   1      53.119  35.175  54.534  0.00  0.00     0.311 A 
ATOM      2  N   UNL d   1      53.647  34.808  55.060  0.00  0.00    -0.202 NA
ATOM      3  S   UNL d   1      52.896  34.626  53.963  0.00  0.00    -0.024 SA
ATOM      4  C   UNL d   1      53.748  34.022  54.805  0.00  0.00     0.091 A 
ATOM      5  C   UNL d   1      53.285  33.910  54.130  0.00  0.00     0.052 A 
ATOM      6  O   UNL d   1      52.862  35.964  54.579  0.00  0.00    -0.258 OA
ATOM      7  C   UNL d   1      54.200  33.401  55.104  0.00  0.00     0.020 A 
ATOM      8  C   UNL d   1      53.276  33.176  53.753  0.00  0.00     0.008 A 
ATOM      9  C   UNL d   1      53.728  32.554  54.052  0.00  0.00     0.001 A 
ATOM     10  C   UNL d   1      54.191  32.666  54.727  0.00  0.00     0.002 A 
ENDROOT
TORSDOF 0
ENDMDL
MODEL 2
REMARK VINA RESULT:      -7.1      1.960      2.370
REMARK  0 active torsions:
REMARK  status: ('A' for Active; 'I' for Inactive)
ROOT
ATOM      1  C   UNL d   1      53.002  32.150  53.088  0.00  0.00     0.311 A 
ATOM      2  N   UNL d   1      53.637  31.953  53.586  0.00  0.00    -0.202 NA
ATOM      3  S   UNL d   1      52.749  32.911  53.275  0.00  0.00    -0.024 SA
ATOM      4  C   UNL d   1      53.773  32.605  54.085  0.00  0.00     0.091 A 
ATOM      5  C   UNL d   1      53.227  33.195  53.893  0.00  0.00     0.052 A 
ATOM      6  O   UNL d   1      52.678  31.659  52.500  0.00  0.00    -0.258 OA
ATOM      7  C   UNL d   1      54.324  32.732  54.685  0.00  0.00     0.020 A 
ATOM      8  C   UNL d   1      53.232  33.911  54.302  0.00  0.00     0.008 A 
ATOM      9  C   UNL d   1      53.784  34.039  54.903  0.00  0.00     0.001 A 
ATOM     10  C   UNL d   1      54.330  33.449  55.095  0.00  0.00     0.002 A 
ENDROOT
TORSDOF 0
ENDMDL
MODEL 3
REMARK VINA RESULT:      -6.6      1.074      1.587
REMARK  0 active torsions:
REMARK  status: ('A' for Active; 'I' for Inactive)
ROOT
ATOM      1  C   UNL d   1      53.560  34.131  54.765  0.00  0.00     0.311 A 
ATOM      2  N   UNL d   1      52.984  33.999  54.180  0.00  0.00    -0.202 NA
ATOM      3  S   UNL d   1      54.029  33.457  54.826  0.00  0.00    -0.024 SA
ATOM      4  C   UNL d   1      53.105  33.233  53.880  0.00  0.00     0.091 A 
ATOM      5  C   UNL d   1      53.748  32.899  54.277  0.00  0.00     0.052 A 
ATOM      6  O   UNL d   1      53.645  34.826  55.212  0.00  0.00    -0.258 OA
ATOM      7  C   UNL d   1      52.710  32.802  53.297  0.00  0.00     0.020 A 
ATOM      8  C   UNL d   1      53.996  32.135  54.092  0.00  0.00     0.008 A 
ATOM      9  C   UNL d   1      53.601  31.703  53.509  0.00  0.00     0.001 A 
ATOM     10  C   UNL d   1      52.959  32.037  53.112  0.00  0.00     0.002 A 
ENDROOT
TORSDOF 0
ENDMDL
MODEL 4
REMARK VINA RESULT:      -6.6      3.174      3.758
REMARK  0 active torsions:
REMARK  status: ('A' for Active; 'I' for Inactive)
ROOT
ATOM      1  C   UNL d   1      52.857  30.205  53.270  0.00  0.00     0.311 A 
ATOM      2  N   UNL d   1      52.437  30.837  52.934  0.00  0.00    -0.202 NA
ATOM      3  S   UNL d   1      53.521  30.506  53.651  0.00  0.00    -0.024 SA
ATOM      4  C   UNL d   1      52.852  31.536  53.114  0.00  0.00     0.091 A 
ATOM      5  C   UNL d   1      53.519  31.332  53.556  0.00  0.00     0.052 A 
ATOM      6  O   UNL d   1      52.641  29.404  53.226  0.00  0.00    -0.258 OA
ATOM      7  C   UNL d   1      52.703  32.327  52.931  0.00  0.00     0.020 A 
ATOM      8  C   UNL d   1      54.038  31.918  53.814  0.00  0.00     0.008 A 
ATOM      9  C   UNL d   1      53.891  32.710  53.631  0.00  0.00     0.001 A 
ATOM     10  C   UNL d   1      53.223  32.914  53.189  0.00  0.00     0.002 A 
ENDROOT
TORSDOF 0
ENDMDL
MODEL 5
REMARK VINA RESULT:      -6.2      1.423      1.668
REMARK  0 active torsions:
REMARK  status: ('A' for Active; 'I' for Inactive)
ROOT
ATOM      1  C   UNL d   1      52.078  34.013  53.003  0.00  0.00     0.311 A 
ATOM      2  N   UNL d   1      52.389  34.573  53.533  0.00  0.00    -0.202 NA
ATOM      3  S   UNL d   1      52.428  33.285  53.158  0.00  0.00    -0.024 SA
ATOM      4  C   UNL d   1      52.938  34.178  54.018  0.00  0.00     0.091 A 
ATOM      5  C   UNL d   1      52.961  33.385  53.787  0.00  0.00     0.052 A 
ATOM      6  O   UNL d   1      51.510  34.167  52.417  0.00  0.00    -0.258 OA
ATOM      7  C   UNL d   1      53.415  34.442  54.637  0.00  0.00     0.020 A 
ATOM      8  C   UNL d   1      53.462  32.857  54.176  0.00  0.00     0.008 A 
ATOM      9  C   UNL d   1      53.939  33.121  54.795  0.00  0.00     0.001 A 
ATOM     10  C   UNL d   1      53.916  33.914  55.026  0.00  0.00     0.002 A 
ENDROOT
TORSDOF 0
ENDMDL
MODEL 6
REMARK VINA RESULT:      -5.6      2.012      2.620
REMARK  0 active torsions:
REMARK  status: ('A' for Active; 'I' for Inactive)
ROOT
ATOM      1  C   UNL d   1      53.475  33.424  53.645  0.00  0.00     0.311 A 
ATOM      2  N   UNL d   1      53.176  34.176  53.459  0.00  0.00    -0.202 NA
ATOM      3  S   UNL d   1      52.861  32.879  53.596  0.00  0.00    -0.024 SA
ATOM      4  C   UNL d   1      52.365  34.088  53.294  0.00  0.00     0.091 A 
ATOM      5  C   UNL d   1      52.171  33.289  53.378  0.00  0.00     0.052 A 
ATOM      6  O   UNL d   1      54.263  33.254  53.847  0.00  0.00    -0.258 OA
ATOM      7  C   UNL d   1      51.785  34.633  53.078  0.00  0.00     0.020 A 
ATOM      8  C   UNL d   1      51.397  33.036  53.246  0.00  0.00     0.008 A 
ATOM      9  C   UNL d   1      50.816  33.581  53.031  0.00  0.00     0.001 A 
ATOM     10  C   UNL d   1      51.010  34.380  52.946  0.00  0.00     0.002 A 
ENDROOT
TORSDOF 0
ENDMDL
MODEL 7
REMARK VINA RESULT:      -4.2     10.623     10.871
REMARK  0 active torsions:
REMARK  status: ('A' for Active; 'I' for Inactive)
ROOT
ATOM      1  C   UNL d   1      45.397  27.229  58.304  0.00  0.00     0.311 A 
ATOM      2  N   UNL d   1      45.260  27.979  58.633  0.00  0.00    -0.202 NA
ATOM      3  S   UNL d   1      45.338  27.288  57.485  0.00  0.00    -0.024 SA
ATOM      4  C   UNL d   1      45.115  28.505  58.005  0.00  0.00     0.091 A 
ATOM      5  C   UNL d   1      45.162  28.080  57.298  0.00  0.00     0.052 A 
ATOM      6  O   UNL d   1      45.565  26.536  58.731  0.00  0.00    -0.258 OA
ATOM      7  C   UNL d   1      44.946  29.312  57.991  0.00  0.00     0.020 A 
ATOM      8  C   UNL d   1      45.042  28.462  56.577  0.00  0.00     0.008 A 
ATOM      9  C   UNL d   1      44.873  29.270  56.563  0.00  0.00     0.001 A 
ATOM     10  C   UNL d   1      44.825  29.695  57.269  0.00  0.00     0.002 A 
ENDROOT
TORSDOF 0
ENDMDL
