MODEL 1
REMARK VINA RESULT:      -4.7      0.000      0.000
REMARK  1 active torsions:
REMARK  status: ('A' for Active; 'I' for Inactive)
REMARK       I    between atoms: N_2  and  C_1 
REMARK       I    between atoms: N_4  and  C_1 
REMARK    1  A    between atoms: C_5  and  N_2 
ROOT
ATOM      1  N   UNL d   1      56.221  -0.980  32.666  0.00  0.00    -0.242 NA
ATOM      2  C   UNL d   1      56.330  -0.024  33.755  0.00  0.00     0.105 A 
ATOM      3  C   UNL d   1      57.063   0.203  32.531  0.00  0.00     0.019 A 
ATOM      4  C   UNL d   1      56.746  -0.505  32.213  0.00  0.00     0.082 A 
ATOM      5  C   UNL d   1      56.849   0.440  33.305  0.00  0.00     0.022 A 
ATOM      6  C   UNL d   1      56.020  -0.736  33.435  0.00  0.00     0.118 A 
ATOM      7  C   UNL d   1      57.576   0.670  32.075  0.00  0.00     0.002 A 
ATOM      8  C   UNL d   1      56.951  -0.744  31.447  0.00  0.00     0.019 A 
ATOM      9  C   UNL d   1      57.783   0.427  31.301  0.00  0.00     0.000 A 
ATOM     10  C   UNL d   1      57.475  -0.276  30.987  0.00  0.00     0.002 A 
ENDROOT
BRANCH   2  11
ATOM     11  N   UNL d   1      56.129   0.206  34.525  0.00  0.00    -0.191 NA
ATOM     12  C   UNL d   1      55.352   0.440  34.703  0.00  0.00     0.354 C 
ATOM     13  N   UNL d   1      54.767   0.439  34.108  0.00  0.00    -0.253 N 
ATOM     14  O   UNL d   1      55.149   0.681  35.483  0.00  0.00    -0.244 OA
ATOM     15  C   UNL d   1      54.969   0.212  33.333  0.00  0.00     0.104 C 
ATOM     16  C   UNL d   1      53.991   0.682  34.289  0.00  0.00     0.104 C 
ENDBRANCH   2  11
TORSDOF 1
ENDMDL
MODEL 2
REMARK VINA RESULT:      -4.6      1.792      3.484
REMARK  1 active torsions:
REMARK  status: ('A' for Active; 'I' for Inactive)
REMARK       I    between atoms: N_2  and  C_1 
REMARK       I    between atoms: N_4  and  C_1 
REMARK    1  A    between atoms: C_5  and  N_2 
ROOT
ATOM      1  N   UNL d   1      57.066   0.295  33.365  0.00  0.00    -0.242 NA
ATOM      2  C   UNL d   1      56.827  -0.597  32.242  0.00  0.00     0.105 A 
ATOM      3  C   UNL d   1      55.749  -0.295  33.154  0.00  0.00     0.019 A 
ATOM      4  C   UNL d   1      56.263   0.199  33.595  0.00  0.00     0.082 A 
ATOM      5  C   UNL d   1      56.037  -0.690  32.475  0.00  0.00     0.022 A 
ATOM      6  C   UNL d   1      57.341  -0.107  32.691  0.00  0.00     0.118 A 
ATOM      7  C   UNL d   1      54.956  -0.379  33.385  0.00  0.00     0.002 A 
ATOM      8  C   UNL d   1      55.984   0.595  34.266  0.00  0.00     0.019 A 
ATOM      9  C   UNL d   1      54.675   0.021  34.064  0.00  0.00     0.000 A 
ATOM     10  C   UNL d   1      55.183   0.505  34.505  0.00  0.00     0.002 A 
ENDROOT
BRANCH   2  11
ATOM     11  N   UNL d   1      57.115  -0.998  31.577  0.00  0.00    -0.191 NA
ATOM     12  C   UNL d   1      57.406  -0.575  30.925  0.00  0.00     0.354 C 
ATOM     13  N   UNL d   1      57.419   0.261  30.939  0.00  0.00    -0.253 N 
ATOM     14  O   UNL d   1      57.691  -0.981  30.246  0.00  0.00    -0.244 OA
ATOM     15  C   UNL d   1      57.127   0.664  31.606  0.00  0.00     0.104 C 
ATOM     16  C   UNL d   1      57.705   0.682  30.281  0.00  0.00     0.104 C 
ENDBRANCH   2  11
TORSDOF 1
ENDMDL
MODEL 3
REMARK VINA RESULT:      -4.4      2.063      3.562
REMARK  1 active torsions:
REMARK  status: ('A' for Active; 'I' for Inactive)
REMARK       I    between atoms: N_2  and  C_1 
REMARK       I    between atoms: N_4  and  C_1 
REMARK    1  A    between atoms: C_5  and  N_2 
ROOT
ATOM      1  N   UNL d   1      56.680  -1.151  32.294  0.00  0.00    -0.242 NA
ATOM      2  C   UNL d   1      56.910  -0.096  31.321  0.00  0.00     0.105 A 
ATOM      3  C   UNL d   1      56.068   0.162  32.466  0.00  0.00     0.019 A 
ATOM      4  C   UNL d   1      56.197  -0.622  32.734  0.00  0.00     0.082 A 
ATOM      5  C   UNL d   1      56.430   0.421  31.758  0.00  0.00     0.022 A 
ATOM      6  C   UNL d   1      57.031  -0.882  31.589  0.00  0.00     0.118 A 
ATOM      7  C   UNL d   1      55.594   0.679  32.910  0.00  0.00     0.002 A 
ATOM      8  C   UNL d   1      55.844  -0.885  33.435  0.00  0.00     0.019 A 
ATOM      9  C   UNL d   1      55.238   0.413  33.619  0.00  0.00     0.000 A 
ATOM     10  C   UNL d   1      55.359  -0.364  33.882  0.00  0.00     0.002 A 
ENDROOT
BRANCH   2  11
ATOM     11  N   UNL d   1      57.258   0.159  30.614  0.00  0.00    -0.191 NA
ATOM     12  C   UNL d   1      58.047   0.416  30.603  0.00  0.00     0.354 C 
ATOM     13  N   UNL d   1      58.498   0.414  31.306  0.00  0.00    -0.253 N 
ATOM     14  O   UNL d   1      58.398   0.682  29.886  0.00  0.00    -0.244 OA
ATOM     15  C   UNL d   1      58.148   0.163  32.018  0.00  0.00     0.104 C 
ATOM     16  C   UNL d   1      59.287   0.681  31.292  0.00  0.00     0.104 C 
ENDBRANCH   2  11
TORSDOF 1
ENDMDL
MODEL 4
REMARK VINA RESULT:      -3.2      2.714      4.271
REMARK  1 active torsions:
REMARK  status: ('A' for Active; 'I' for Inactive)
REMARK       I    between atoms: N_2  and  C_1 
REMARK       I    between atoms: N_4  and  C_1 
REMARK    1  A    between atoms: C_5  and  N_2 
ROOT
ATOM      1  N   UNL d   1      56.896   0.520  30.880  0.00  0.00    -0.242 NA
ATOM      2  C   UNL d   1      58.339   0.630  30.744  0.00  0.00     0.105 A 
ATOM      3  C   UNL d   1      57.746   0.617  32.061  0.00  0.00     0.019 A 
ATOM      4  C   UNL d   1      56.985   0.545  31.715  0.00  0.00     0.082 A 
ATOM      5  C   UNL d   1      58.421   0.657  31.569  0.00  0.00     0.022 A 
ATOM      6  C   UNL d   1      57.574   0.565  30.402  0.00  0.00     0.118 A 
ATOM      7  C   UNL d   1      57.825   0.635  32.887  0.00  0.00     0.002 A 
ATOM      8  C   UNL d   1      56.313   0.503  32.196  0.00  0.00     0.019 A 
ATOM      9  C   UNL d   1      57.145   0.593  33.373  0.00  0.00     0.000 A 
ATOM     10  C   UNL d   1      56.392   0.528  33.033  0.00  0.00     0.002 A 
ENDROOT
BRANCH   2  11
ATOM     11  N   UNL d   1      59.007   0.681  30.258  0.00  0.00    -0.191 NA
ATOM     12  C   UNL d   1      59.232   0.038  29.783  0.00  0.00     0.354 C 
ATOM     13  N   UNL d   1      58.779  -0.664  29.788  0.00  0.00    -0.253 N 
ATOM     14  O   UNL d   1      59.915   0.087  29.295  0.00  0.00    -0.244 OA
ATOM     15  C   UNL d   1      58.110  -0.718  30.280  0.00  0.00     0.104 C 
ATOM     16  C   UNL d   1      59.012  -1.310  29.317  0.00  0.00     0.104 C 
ENDBRANCH   2  11
TORSDOF 1
ENDMDL
MODEL 5
REMARK VINA RESULT:      -2.9      9.460     10.438
REMARK  1 active torsions:
REMARK  status: ('A' for Active; 'I' for Inactive)
REMARK       I    between atoms: N_2  and  C_1 
REMARK       I    between atoms: N_4  and  C_1 
REMARK    1  A    between atoms: C_5  and  N_2 
ROOT
ATOM      1  N   UNL d   1      60.763  -9.613  34.830  0.00  0.00    -0.242 NA
ATOM      2  C   UNL d   1      59.767  -9.324  33.812  0.00  0.00     0.105 A 
ATOM      3  C   UNL d   1      59.940  -8.412  34.918  0.00  0.00     0.019 A 
ATOM      4  C   UNL d   1      60.546  -8.904  35.225  0.00  0.00     0.082 A 
ATOM      5  C   UNL d   1      59.555  -8.627  34.207  0.00  0.00     0.022 A 
ATOM      6  C   UNL d   1      60.369  -9.818  34.127  0.00  0.00     0.118 A 
ATOM      7  C   UNL d   1      59.736  -7.711  35.312  0.00  0.00     0.002 A 
ATOM      8  C   UNL d   1      60.934  -8.696  35.927  0.00  0.00     0.019 A 
ATOM      9  C   UNL d   1      60.129  -7.501  36.021  0.00  0.00     0.000 A 
ATOM     10  C   UNL d   1      60.723  -7.989  36.330  0.00  0.00     0.002 A 
ENDROOT
BRANCH   2  11
ATOM     11  N   UNL d   1      59.376  -9.542  33.115  0.00  0.00    -0.191 NA
ATOM     12  C   UNL d   1      59.794  -9.602  32.400  0.00  0.00     0.354 C 
ATOM     13  N   UNL d   1      60.615  -9.450  32.381  0.00  0.00    -0.253 N 
ATOM     14  O   UNL d   1      59.396  -9.816  31.691  0.00  0.00    -0.244 OA
ATOM     15  C   UNL d   1      61.008  -9.227  33.080  0.00  0.00     0.104 C 
ATOM     16  C   UNL d   1      61.029  -9.503  31.661  0.00  0.00     0.104 C 
ENDBRANCH   2  11
TORSDOF 1
ENDMDL
MODEL 6
REMARK VINA RESULT:      -2.9      4.094      5.677
REMARK  1 active torsions:
REMARK  status: ('A' for Active; 'I' for Inactive)
REMARK       I    between atoms: N_2  and  C_1 
REMARK       I    between atoms: N_4  and  C_1 
REMARK    1  A    between atoms: C_5  and  N_2 
ROOT
ATOM      1  N   UNL d   1      60.436  -1.323  28.899  0.00  0.00    -0.242 NA
ATOM      2  C   UNL d   1      59.062  -0.955  28.601  0.00  0.00     0.105 A 
ATOM      3  C   UNL d   1      59.417  -2.350  28.713  0.00  0.00     0.019 A 
ATOM      4  C   UNL d   1      60.211  -2.133  28.876  0.00  0.00     0.082 A 
ATOM      5  C   UNL d   1      58.846  -1.755  28.577  0.00  0.00     0.022 A 
ATOM      6  C   UNL d   1      59.859  -0.741  28.758  0.00  0.00     0.118 A 
ATOM      7  C   UNL d   1      59.202  -3.152  28.698  0.00  0.00     0.002 A 
ATOM      8  C   UNL d   1      60.782  -2.716  29.014  0.00  0.00     0.019 A 
ATOM      9  C   UNL d   1      59.780  -3.742  28.837  0.00  0.00     0.000 A 
ATOM     10  C   UNL d   1      60.566  -3.529  28.993  0.00  0.00     0.002 A 
ENDROOT
BRANCH   2  11
ATOM     11  N   UNL d   1      58.497  -0.367  28.455  0.00  0.00    -0.191 NA
ATOM     12  C   UNL d   1      58.196   0.090  29.079  0.00  0.00     0.354 C 
ATOM     13  N   UNL d   1      58.467  -0.036  29.859  0.00  0.00    -0.253 N 
ATOM     14  O   UNL d   1      57.617   0.682  28.933  0.00  0.00    -0.244 OA
ATOM     15  C   UNL d   1      59.031  -0.630  30.007  0.00  0.00     0.104 C 
ATOM     16  C   UNL d   1      58.156   0.419  30.484  0.00  0.00     0.104 C 
ENDBRANCH   2  11
TORSDOF 1
ENDMDL
