MODEL 1
REMARK VINA RESULT:      -6.7      0.000      0.000
REMARK  3 active torsions:
REMARK  status: ('A' for Active; 'I' for Inactive)
REMARK    1  A    between atoms: C_6  and  N_1 
REMARK       I    between atoms: C_2  and  N_4 
REMARK    2  A    between atoms: C_5  and  C_2 
REMARK    3  A    between atoms: N_4  and  C_12 
ROOT
ATOM      1  C   UNL d   1     -41.573-122.581 -53.419  0.00  0.00     0.067 A 
ATOM      2  C   UNL d   1     -41.410-121.983 -52.870  0.00  0.00     0.019 A 
ATOM      3  C   UNL d   1     -41.658-123.356 -53.156  0.00  0.00     0.019 A 
ATOM      4  C   UNL d   1     -41.418-122.936 -51.806  0.00  0.00     0.085 A 
ATOM      5  C   UNL d   1     -41.581-123.533 -52.354  0.00  0.00     0.021 A 
ATOM      6  C   UNL d   1     -41.333-122.158 -52.075  0.00  0.00     0.021 A 
ENDROOT
BRANCH   4   7
ATOM      7  N   UNL d   1     -41.341-123.111 -51.012  0.00  0.00    -0.208 NA
ATOM      8  C   UNL d   1     -41.956-122.943 -50.491  0.00  0.00     0.279 C 
ATOM      9  O   UNL d   1     -42.649-122.597 -50.773  0.00  0.00    -0.265 OA
BRANCH   8  10
ATOM     10  C   UNL d   1     -41.879-123.118 -49.697  0.00  0.00     0.060 A 
ATOM     11  C   UNL d   1     -42.471-122.885 -49.165  0.00  0.00     0.034 A 
ATOM     12  C   UNL d   1     -42.397-123.062 -48.349  0.00  0.00     0.140 A 
ATOM     13  F   UNL d   1     -42.982-122.832 -47.818  0.00  0.00    -0.204 F 
ATOM     14  C   UNL d   1     -41.723-123.473 -48.085  0.00  0.00     0.030 A 
ATOM     15  C   UNL d   1     -41.135-123.702 -48.625  0.00  0.00     0.003 A 
ATOM     16  C   UNL d   1     -41.216-123.524 -49.427  0.00  0.00     0.005 A 
ENDBRANCH   8  10
ENDBRANCH   4   7
BRANCH   1  17
ATOM     17  N   UNL d   1     -41.650-122.406 -54.212  0.00  0.00    -0.273 N 
ATOM     18  C   UNL d   1     -42.274-121.985 -54.561  0.00  0.00     0.265 A 
ATOM     19  O   UNL d   1     -42.933-121.665 -54.170  0.00  0.00    -0.267 OA
ATOM     20  C   UNL d   1     -42.132-121.934 -55.373  0.00  0.00     0.063 A 
ATOM     21  C   UNL d   1     -41.422-122.324 -55.527  0.00  0.00     0.024 A 
ATOM     22  C   UNL d   1     -41.126-122.612 -54.818  0.00  0.00     0.083 A 
ENDBRANCH   1  17
TORSDOF 3
ENDMDL
MODEL 2
REMARK VINA RESULT:      -6.4      1.888      5.021
REMARK  3 active torsions:
REMARK  status: ('A' for Active; 'I' for Inactive)
REMARK    1  A    between atoms: C_6  and  N_1 
REMARK       I    between atoms: C_2  and  N_4 
REMARK    2  A    between atoms: C_5  and  C_2 
REMARK    3  A    between atoms: N_4  and  C_12 
ROOT
ATOM      1  C   UNL d   1     -41.591-123.201 -50.117  0.00  0.00     0.067 A 
ATOM      2  C   UNL d   1     -41.858-123.815 -50.604  0.00  0.00     0.019 A 
ATOM      3  C   UNL d   1     -41.223-122.548 -50.457  0.00  0.00     0.019 A 
ATOM      4  C   UNL d   1     -41.390-123.121 -51.762  0.00  0.00     0.085 A 
ATOM      5  C   UNL d   1     -41.123-122.508 -51.275  0.00  0.00     0.021 A 
ATOM      6  C   UNL d   1     -41.759-123.776 -51.414  0.00  0.00     0.021 A 
ENDROOT
BRANCH   4   7
ATOM      7  N   UNL d   1     -41.291-123.081 -52.571  0.00  0.00    -0.208 NA
ATOM      8  C   UNL d   1     -41.777-122.594 -53.023  0.00  0.00     0.279 C 
ATOM      9  O   UNL d   1     -42.363-122.146 -52.656  0.00  0.00    -0.265 OA
BRANCH   8  10
ATOM     10  C   UNL d   1     -41.678-122.555 -53.833  0.00  0.00     0.060 A 
ATOM     11  C   UNL d   1     -42.035-121.941 -54.262  0.00  0.00     0.034 A 
ATOM     12  C   UNL d   1     -41.936-121.896 -55.093  0.00  0.00     0.140 A 
ATOM     13  F   UNL d   1     -42.288-121.289 -55.522  0.00  0.00    -0.204 F 
ATOM     14  C   UNL d   1     -41.477-122.475 -55.477  0.00  0.00     0.030 A 
ATOM     15  C   UNL d   1     -41.124-123.086 -55.039  0.00  0.00     0.003 A 
ATOM     16  C   UNL d   1     -41.226-123.123 -54.221  0.00  0.00     0.005 A 
ENDBRANCH   8  10
ENDBRANCH   4   7
BRANCH   1  17
ATOM     17  N   UNL d   1     -41.690-123.241 -49.308  0.00  0.00    -0.273 N 
ATOM     18  C   UNL d   1     -42.367-123.011 -48.887  0.00  0.00     0.265 A 
ATOM     19  O   UNL d   1     -43.066-122.701 -49.210  0.00  0.00    -0.267 OA
ATOM     20  C   UNL d   1     -42.232-123.144 -48.084  0.00  0.00     0.063 A 
ATOM     21  C   UNL d   1     -41.472-123.454 -48.006  0.00  0.00     0.024 A 
ATOM     22  C   UNL d   1     -41.140-123.514 -48.754  0.00  0.00     0.083 A 
ENDBRANCH   1  17
TORSDOF 3
ENDMDL
