MODEL 1
REMARK VINA RESULT:      84.9      0.000      0.000
REMARK  3 active torsions:
REMARK  status: ('A' for Active; 'I' for Inactive)
REMARK    1  A    between atoms: N_9  and  C_3 
REMARK    2  A    between atoms: C_14  and  C_5 
REMARK       I    between atoms: C_10  and  N_11 
REMARK    3  A    between atoms: C_13  and  C_10 
ROOT
ATOM      1  N   UNL d   1      13.859  14.479  -3.593  0.00  0.00    -0.196 N 
ATOM      2  C   UNL d   1      13.888  13.752  -3.214  0.00  0.00     0.167 A 
ATOM      3  C   UNL d   1      13.530  14.542  -4.347  0.00  0.00     0.152 A 
ATOM      4  N   UNL d   1      14.193  15.039  -3.096  0.00  0.00    -0.163 NA
ATOM      5  C   UNL d   1      14.240  13.859  -2.481  0.00  0.00     0.055 A 
ATOM      6  C   UNL d   1      14.426  14.648  -2.410  0.00  0.00     0.104 A 
ATOM      7  N   UNL d   1      13.589  13.077  -3.584  0.00  0.00    -0.227 NA
ATOM      8  C   UNL d   1      13.228  13.864  -4.724  0.00  0.00     0.057 A 
ATOM      9  C   UNL d   1      13.257  13.137  -4.345  0.00  0.00     0.086 A 
ATOM     10  C   UNL d   1      14.792  14.991  -1.750  0.00  0.00     0.023 C 
ATOM     11  C   UNL d   1      12.950  12.458  -4.731  0.00  0.00     0.021 C 
ENDROOT
BRANCH   3  12
ATOM     12  N   UNL d   1      13.501  15.269  -4.727  0.00  0.00    -0.286 N 
ATOM     13  C   UNL d   1      14.097  15.830  -4.608  0.00  0.00     0.101 A 
ATOM     14  C   UNL d   1      14.064  16.556  -4.989  0.00  0.00     0.102 A 
ATOM     15  N   UNL d   1      13.429  16.731  -5.496  0.00  0.00    -0.267 N 
ATOM     16  C   UNL d   1      13.388  17.466  -5.887  0.00  0.00     0.288 C 
ATOM     17  C   UNL d   1      12.840  16.177  -5.613  0.00  0.00     0.102 A 
ATOM     18  O   UNL d   1      12.769  17.650  -6.389  0.00  0.00    -0.264 OA
ATOM     19  C   UNL d   1      12.874  15.442  -5.228  0.00  0.00     0.101 A 
BRANCH  16  20
ATOM     20  C   UNL d   1      13.993  18.026  -5.763  0.00  0.00     0.156 A 
ATOM     21  O   UNL d   1      14.711  17.981  -5.372  0.00  0.00    -0.300 OA
ATOM     22  C   UNL d   1      15.073  18.718  -5.436  0.00  0.00     0.123 A 
ATOM     23  C   UNL d   1      14.594  19.210  -5.856  0.00  0.00     0.029 A 
ATOM     24  C   UNL d   1      13.910  18.783  -6.067  0.00  0.00     0.032 A 
ENDBRANCH  16  20
ENDBRANCH   3  12
BRANCH   5  25
ATOM     25  C   UNL d   1      14.416  13.337  -1.868  0.00  0.00     0.004 A 
ATOM     26  C   UNL d   1      14.896  13.590  -1.235  0.00  0.00     0.001 A 
ATOM     27  C   UNL d   1      15.072  13.068  -0.622  0.00  0.00     0.011 A 
ATOM     28  C   UNL d   1      14.775  12.298  -0.632  0.00  0.00     0.058 A 
ATOM     29  C   UNL d   1      14.296  12.044  -1.260  0.00  0.00     0.011 A 
ATOM     30 CL   UNL d   1      14.954  11.779  -0.014  0.00  0.00    -0.082 Cl
ATOM     31  C   UNL d   1      14.120  12.566  -1.874  0.00  0.00     0.001 A 
ENDBRANCH   5  25
TORSDOF 3
ENDMDL
