MODEL 1
REMARK VINA RESULT:      -8.5      0.000      0.000
REMARK  5 active torsions:
REMARK  status: ('A' for Active; 'I' for Inactive)
REMARK    1  A    between atoms: C_2  and  S_1 
REMARK    2  A    between atoms: N_11  and  S_1 
REMARK    3  A    between atoms: N_3  and  C_17 
REMARK    4  A    between atoms: C_16  and  N_11 
REMARK    5  A    between atoms: C_17  and  C_16 
ROOT
ATOM      1  S   UNL d   1      52.334  34.230  52.876  0.00  0.00     0.285 S 
ATOM      2  O   UNL d   1      53.013  34.391  52.436  0.00  0.00    -0.198 OA
ATOM      3  O   UNL d   1      51.864  34.554  52.276  0.00  0.00    -0.198 OA
ENDROOT
BRANCH   1   4
ATOM      4  C   UNL d   1      52.789  33.901  53.489  0.00  0.00     0.105 A 
ATOM      5  C   UNL d   1      52.940  33.090  53.497  0.00  0.00     0.012 A 
ATOM      6  C   UNL d   1      53.388  32.762  54.100  0.00  0.00     0.001 A 
ATOM      7  C   UNL d   1      52.640  32.602  52.898  0.00  0.00     0.001 C 
ATOM      8  C   UNL d   1      53.691  33.244  54.705  0.00  0.00     0.000 A 
ATOM      9  C   UNL d   1      53.534  34.060  54.688  0.00  0.00     0.001 A 
ATOM     10  C   UNL d   1      54.143  32.927  55.316  0.00  0.00     0.000 C 
ATOM     11  C   UNL d   1      53.082  34.381  54.076  0.00  0.00     0.012 A 
ATOM     12  C   UNL d   1      52.929  35.190  54.065  0.00  0.00     0.001 C 
ENDBRANCH   1   4
BRANCH   1  13
ATOM     13  N   UNL d   1      51.556  34.162  53.138  0.00  0.00    -0.155 NA
BRANCH  13  14
ATOM     14  C   UNL d   1      50.932  34.413  52.661  0.00  0.00     0.131 C 
BRANCH  14  15
ATOM     15  C   UNL d   1      50.173  34.477  52.977  0.00  0.00     0.102 C 
BRANCH  15  16
ATOM     16  N   UNL d   1      49.541  34.687  52.491  0.00  0.00    -0.303 N 
ATOM     17  C   UNL d   1      49.416  34.424  51.716  0.00  0.00     0.080 A 
ATOM     18  C   UNL d   1      48.723  34.768  51.436  0.00  0.00     0.021 A 
ATOM     19  C   UNL d   1      48.412  35.247  52.032  0.00  0.00     0.018 A 
ATOM     20  C   UNL d   1      48.916  35.199  52.685  0.00  0.00     0.064 A 
ATOM     21  C   UNL d   1      47.741  35.721  52.076  0.00  0.00     0.002 A 
ATOM     22  C   UNL d   1      48.754  35.618  53.375  0.00  0.00     0.018 A 
ATOM     23  C   UNL d   1      48.083  36.092  53.418  0.00  0.00     0.002 A 
ATOM     24  C   UNL d   1      47.565  36.151  52.766  0.00  0.00     0.000 A 
ENDBRANCH  15  16
ENDBRANCH  14  15
ENDBRANCH  13  14
ENDBRANCH   1  13
TORSDOF 5
ENDMDL
MODEL 2
REMARK VINA RESULT:      -7.7      2.746      4.048
REMARK  5 active torsions:
REMARK  status: ('A' for Active; 'I' for Inactive)
REMARK    1  A    between atoms: C_2  and  S_1 
REMARK    2  A    between atoms: N_11  and  S_1 
REMARK    3  A    between atoms: N_3  and  C_17 
REMARK    4  A    between atoms: C_16  and  N_11 
REMARK    5  A    between atoms: C_17  and  C_16 
ROOT
ATOM      1  S   UNL d   1      52.760  30.927  52.800  0.00  0.00     0.285 S 
ATOM      2  O   UNL d   1      53.021  30.486  52.153  0.00  0.00    -0.198 OA
ATOM      3  O   UNL d   1      52.547  31.548  52.295  0.00  0.00    -0.198 OA
ENDROOT
BRANCH   1   4
ATOM      4  C   UNL d   1      52.966  30.314  53.322  0.00  0.00     0.105 A 
ATOM      5  C   UNL d   1      52.398  29.762  53.552  0.00  0.00     0.012 A 
ATOM      6  C   UNL d   1      52.598  29.156  54.067  0.00  0.00     0.001 A 
ATOM      7  C   UNL d   1      51.622  29.815  53.265  0.00  0.00     0.001 C 
ATOM      8  C   UNL d   1      53.373  29.096  54.360  0.00  0.00     0.000 A 
ATOM      9  C   UNL d   1      53.939  29.657  54.122  0.00  0.00     0.001 A 
ATOM     10  C   UNL d   1      53.587  28.492  54.877  0.00  0.00     0.000 C 
ATOM     11  C   UNL d   1      53.728  30.263  53.603  0.00  0.00     0.012 A 
ATOM     12  C   UNL d   1      54.293  30.816  53.372  0.00  0.00     0.001 C 
ENDBRANCH   1   4
BRANCH   1  13
ATOM     13  N   UNL d   1      52.452  31.516  53.286  0.00  0.00    -0.155 NA
BRANCH  13  14
ATOM     14  C   UNL d   1      52.376  32.289  53.008  0.00  0.00     0.131 C 
BRANCH  14  15
ATOM     15  C   UNL d   1      52.051  32.870  53.494  0.00  0.00     0.102 C 
BRANCH  15  16
ATOM     16  N   UNL d   1      52.242  33.663  53.370  0.00  0.00    -0.303 N 
ATOM     17  C   UNL d   1      52.079  34.101  52.687  0.00  0.00     0.080 A 
ATOM     18  C   UNL d   1      52.363  34.866  52.798  0.00  0.00     0.021 A 
ATOM     19  C   UNL d   1      52.703  34.910  53.548  0.00  0.00     0.018 A 
ATOM     20  C   UNL d   1      52.629  34.168  53.905  0.00  0.00     0.064 A 
ATOM     21  C   UNL d   1      53.070  35.519  53.962  0.00  0.00     0.002 A 
ATOM     22  C   UNL d   1      52.918  34.034  54.663  0.00  0.00     0.018 A 
ATOM     23  C   UNL d   1      53.286  34.644  55.075  0.00  0.00     0.002 A 
ATOM     24  C   UNL d   1      53.367  35.398  54.729  0.00  0.00     0.000 A 
ENDBRANCH  15  16
ENDBRANCH  14  15
ENDBRANCH  13  14
ENDBRANCH   1  13
TORSDOF 5
ENDMDL
MODEL 3
REMARK VINA RESULT:      -7.2      2.942      5.145
REMARK  5 active torsions:
REMARK  status: ('A' for Active; 'I' for Inactive)
REMARK    1  A    between atoms: C_2  and  S_1 
REMARK    2  A    between atoms: N_11  and  S_1 
REMARK    3  A    between atoms: N_3  and  C_17 
REMARK    4  A    between atoms: C_16  and  N_11 
REMARK    5  A    between atoms: C_17  and  C_16 
ROOT
ATOM      1  S   UNL d   1      53.740  33.277  53.465  0.00  0.00     0.285 S 
ATOM      2  O   UNL d   1      54.376  33.680  53.126  0.00  0.00    -0.198 OA
ATOM      3  O   UNL d   1      53.986  32.575  53.101  0.00  0.00    -0.198 OA
ENDROOT
BRANCH   1   4
ATOM      4  C   UNL d   1      53.478  33.973  53.838  0.00  0.00     0.105 A 
ATOM      5  C   UNL d   1      53.780  34.180  54.577  0.00  0.00     0.012 A 
ATOM      6  C   UNL d   1      53.524  34.864  54.949  0.00  0.00     0.001 A 
ATOM      7  C   UNL d   1      54.343  33.699  54.950  0.00  0.00     0.001 C 
ATOM      8  C   UNL d   1      52.960  35.352  54.582  0.00  0.00     0.000 A 
ATOM      9  C   UNL d   1      52.661  35.135  53.837  0.00  0.00     0.001 A 
ATOM     10  C   UNL d   1      52.694  36.042  54.944  0.00  0.00     0.000 C 
ATOM     11  C   UNL d   1      52.925  34.444  53.472  0.00  0.00     0.012 A 
ATOM     12  C   UNL d   1      52.626  34.233  52.734  0.00  0.00     0.001 C 
ENDBRANCH   1   4
BRANCH   1  13
ATOM     13  N   UNL d   1      53.195  32.704  53.694  0.00  0.00    -0.155 NA
BRANCH  13  14
ATOM     14  C   UNL d   1      53.313  31.913  53.490  0.00  0.00     0.131 C 
BRANCH  14  15
ATOM     15  C   UNL d   1      52.890  31.322  53.880  0.00  0.00     0.102 C 
BRANCH  15  16
ATOM     16  N   UNL d   1      52.997  30.532  53.668  0.00  0.00    -0.303 N 
ATOM     17  C   UNL d   1      52.987  30.230  52.897  0.00  0.00     0.080 A 
ATOM     18  C   UNL d   1      53.116  29.418  52.938  0.00  0.00     0.021 A 
ATOM     19  C   UNL d   1      53.208  29.209  53.730  0.00  0.00     0.018 A 
ATOM     20  C   UNL d   1      53.134  29.896  54.184  0.00  0.00     0.064 A 
ATOM     21  C   UNL d   1      53.347  28.491  54.108  0.00  0.00     0.002 A 
ATOM     22  C   UNL d   1      53.200  29.868  55.004  0.00  0.00     0.018 A 
ATOM     23  C   UNL d   1      53.339  29.150  55.380  0.00  0.00     0.002 A 
ATOM     24  C   UNL d   1      53.415  28.448  54.935  0.00  0.00     0.000 A 
ENDBRANCH  15  16
ENDBRANCH  14  15
ENDBRANCH  13  14
ENDBRANCH   1  13
TORSDOF 5
ENDMDL
MODEL 4
REMARK VINA RESULT:      -6.9      1.681      5.059
REMARK  5 active torsions:
REMARK  status: ('A' for Active; 'I' for Inactive)
REMARK    1  A    between atoms: C_2  and  S_1 
REMARK    2  A    between atoms: N_11  and  S_1 
REMARK    3  A    between atoms: N_3  and  C_17 
REMARK    4  A    between atoms: C_16  and  N_11 
REMARK    5  A    between atoms: C_17  and  C_16 
ROOT
ATOM      1  S   UNL d   1      52.051  34.157  52.974  0.00  0.00     0.285 S 
ATOM      2  O   UNL d   1      52.018  34.929  53.263  0.00  0.00    -0.198 OA
ATOM      3  O   UNL d   1      52.802  34.059  53.310  0.00  0.00    -0.198 OA
ENDROOT
BRANCH   1   4
ATOM      4  C   UNL d   1      51.298  34.235  52.630  0.00  0.00     0.105 A 
ATOM      5  C   UNL d   1      50.624  34.154  53.098  0.00  0.00     0.012 A 
ATOM      6  C   UNL d   1      49.879  34.231  52.763  0.00  0.00     0.001 A 
ATOM      7  C   UNL d   1      50.692  33.995  53.909  0.00  0.00     0.001 C 
ATOM      8  C   UNL d   1      49.802  34.391  51.951  0.00  0.00     0.000 A 
ATOM      9  C   UNL d   1      50.488  34.471  51.488  0.00  0.00     0.001 A 
ATOM     10  C   UNL d   1      49.060  34.471  51.602  0.00  0.00     0.000 C 
ATOM     11  C   UNL d   1      51.232  34.392  51.835  0.00  0.00     0.012 A 
ATOM     12  C   UNL d   1      51.908  34.472  51.371  0.00  0.00     0.001 C 
ENDBRANCH   1   4
BRANCH   1  13
ATOM     13  N   UNL d   1      52.283  33.389  52.786  0.00  0.00    -0.155 NA
BRANCH  13  14
ATOM     14  C   UNL d   1      52.862  33.008  53.233  0.00  0.00     0.131 C 
BRANCH  14  15
ATOM     15  C   UNL d   1      53.176  32.292  52.972  0.00  0.00     0.102 C 
BRANCH  15  16
ATOM     16  N   UNL d   1      53.362  31.701  53.517  0.00  0.00    -0.303 N 
ATOM     17  C   UNL d   1      53.754  31.811  54.238  0.00  0.00     0.080 A 
ATOM     18  C   UNL d   1      53.825  31.078  54.606  0.00  0.00     0.021 A 
ATOM     19  C   UNL d   1      53.480  30.508  54.119  0.00  0.00     0.018 A 
ATOM     20  C   UNL d   1      53.193  30.891  53.445  0.00  0.00     0.064 A 
ATOM     21  C   UNL d   1      53.385  29.694  54.191  0.00  0.00     0.002 A 
ATOM     22  C   UNL d   1      52.816  30.467  52.849  0.00  0.00     0.018 A 
ATOM     23  C   UNL d   1      52.722  29.653  52.921  0.00  0.00     0.002 A 
ATOM     24  C   UNL d   1      53.006  29.253  53.596  0.00  0.00     0.000 A 
ENDBRANCH  15  16
ENDBRANCH  14  15
ENDBRANCH  13  14
ENDBRANCH   1  13
TORSDOF 5
ENDMDL
MODEL 5
REMARK VINA RESULT:      -6.7      1.783      2.683
REMARK  5 active torsions:
REMARK  status: ('A' for Active; 'I' for Inactive)
REMARK    1  A    between atoms: C_2  and  S_1 
REMARK    2  A    between atoms: N_11  and  S_1 
REMARK    3  A    between atoms: N_3  and  C_17 
REMARK    4  A    between atoms: C_16  and  N_11 
REMARK    5  A    between atoms: C_17  and  C_16 
ROOT
ATOM      1  S   UNL d   1      53.399  32.082  53.208  0.00  0.00     0.285 S 
ATOM      2  O   UNL d   1      54.224  32.086  53.250  0.00  0.00    -0.198 OA
ATOM      3  O   UNL d   1      53.409  32.836  52.867  0.00  0.00    -0.198 OA
ENDROOT
BRANCH   1   4
ATOM      4  C   UNL d   1      53.369  31.324  53.550  0.00  0.00     0.105 A 
ATOM      5  C   UNL d   1      53.204  30.668  53.078  0.00  0.00     0.012 A 
ATOM      6  C   UNL d   1      53.173  29.920  53.411  0.00  0.00     0.001 A 
ATOM      7  C   UNL d   1      53.068  30.760  52.265  0.00  0.00     0.001 C 
ATOM      8  C   UNL d   1      53.309  29.819  54.224  0.00  0.00     0.000 A 
ATOM      9  C   UNL d   1      53.475  30.486  54.692  0.00  0.00     0.001 A 
ATOM     10  C   UNL d   1      53.281  29.073  54.572  0.00  0.00     0.000 C 
ATOM     11  C   UNL d   1      53.503  31.236  54.347  0.00  0.00     0.012 A 
ATOM     12  C   UNL d   1      53.668  31.893  54.815  0.00  0.00     0.001 C 
ENDBRANCH   1   4
BRANCH   1  13
ATOM     13  N   UNL d   1      52.611  32.279  53.077  0.00  0.00    -0.155 NA
BRANCH  13  14
ATOM     14  C   UNL d   1      52.381  33.070  53.033  0.00  0.00     0.131 C 
BRANCH  14  15
ATOM     15  C   UNL d   1      51.738  33.285  52.564  0.00  0.00     0.102 C 
BRANCH  15  16
ATOM     16  N   UNL d   1      51.182  33.824  52.849  0.00  0.00    -0.303 N 
ATOM     17  C   UNL d   1      51.186  34.174  53.600  0.00  0.00     0.080 A 
ATOM     18  C   UNL d   1      50.534  34.674  53.653  0.00  0.00     0.021 A 
ATOM     19  C   UNL d   1      50.120  34.638  52.940  0.00  0.00     0.018 A 
ATOM     20  C   UNL d   1      50.519  34.114  52.441  0.00  0.00     0.064 A 
ATOM     21  C   UNL d   1      49.437  35.008  52.670  0.00  0.00     0.002 A 
ATOM     22  C   UNL d   1      50.240  33.959  51.683  0.00  0.00     0.018 A 
ATOM     23  C   UNL d   1      49.556  34.330  51.414  0.00  0.00     0.002 A 
ATOM     24  C   UNL d   1      49.143  34.862  51.906  0.00  0.00     0.000 A 
ENDBRANCH  15  16
ENDBRANCH  14  15
ENDBRANCH  13  14
ENDBRANCH   1  13
TORSDOF 5
ENDMDL
