MODEL 1
REMARK VINA RESULT:      57.0      0.000      0.000
REMARK  8 active torsions:
REMARK  status: ('A' for Active; 'I' for Inactive)
REMARK    1  A    between atoms: C_9  and  N_1 
REMARK    2  A    between atoms: S_10  and  C_6 
REMARK    3  A    between atoms: C_19  and  S_10 
REMARK    4  A    between atoms: C_12  and  C_19 
REMARK       I    between atoms: N_14  and  C_12 
REMARK    5  A    between atoms: C_13  and  C_20 
REMARK    6  A    between atoms: O_24  and  C_13 
REMARK    7  A    between atoms: C_20  and  N_14 
REMARK    8  A    between atoms: C_26  and  O_24 
ROOT
ATOM      1  N   UNL d   1     -51.053  26.500  33.717  0.00  0.00    -0.212 N 
ATOM      2  C   UNL d   1     -50.245  26.596  33.826  0.00  0.00     0.169 A 
ATOM      3  N   UNL d   1     -51.409  27.227  33.733  0.00  0.00    -0.162 NA
ATOM      4  C   UNL d   1     -50.099  27.403  33.911  0.00  0.00     0.081 A 
ATOM      5  C   UNL d   1     -50.819  27.797  33.854  0.00  0.00     0.126 A 
ATOM      6  C   UNL d   1     -49.332  27.674  34.029  0.00  0.00     0.117 A 
ATOM      7  N   UNL d   1     -49.623  26.058  33.858  0.00  0.00    -0.205 NA
ATOM      8  N   UNL d   1     -48.706  27.137  34.062  0.00  0.00    -0.217 NA
ATOM      9  C   UNL d   1     -48.852  26.329  33.977  0.00  0.00     0.201 A 
ENDROOT
BRANCH   6  10
ATOM     10  S   UNL d   1     -49.187  28.481  34.115  0.00  0.00    -0.062 SA
BRANCH  10  11
ATOM     11  C   UNL d   1     -48.448  28.741  34.343  0.00  0.00     0.099 C 
BRANCH  11  12
ATOM     12  C   UNL d   1     -48.337  29.058  35.097  0.00  0.00     0.286 C 
ATOM     13  N   UNL d   1     -48.114  29.848  35.183  0.00  0.00    -0.200 NA
ATOM     14  O   UNL d   1     -48.449  28.586  35.765  0.00  0.00    -0.265 OA
BRANCH  13  15
ATOM     15  C   UNL d   1     -48.002  30.321  34.515  0.00  0.00     0.171 C 
BRANCH  15  16
ATOM     16  C   UNL d   1     -47.705  31.087  34.597  0.00  0.00     0.320 C 
ATOM     17  O   UNL d   1     -47.365  31.324  35.311  0.00  0.00    -0.257 OA
BRANCH  16  18
ATOM     18  O   UNL d   1     -47.749  31.616  33.965  0.00  0.00    -0.270 OA
BRANCH  18  19
ATOM     19  C   UNL d   1     -47.931  32.409  34.104  0.00  0.00     0.126 C 
ATOM     20  C   UNL d   1     -47.681  32.988  33.572  0.00  0.00     0.029 C 
ENDBRANCH  18  19
ENDBRANCH  16  18
ENDBRANCH  15  16
ENDBRANCH  13  15
ENDBRANCH  11  12
ENDBRANCH  10  11
ENDBRANCH   6  10
BRANCH   1  21
ATOM     21  C   UNL d   1     -51.371  25.739  33.614  0.00  0.00     0.085 A 
ATOM     22  C   UNL d   1     -52.161  25.650  33.408  0.00  0.00     0.020 A 
ATOM     23  C   UNL d   1     -52.477  24.902  33.306  0.00  0.00     0.013 A 
ATOM     24  C   UNL d   1     -52.004  24.231  33.409  0.00  0.00     0.058 A 
ATOM     25  C   UNL d   1     -51.202  24.334  33.618  0.00  0.00     0.013 A 
ATOM     26 CL   UNL d   1     -52.321  23.471  33.306  0.00  0.00    -0.082 Cl
ATOM     27  C   UNL d   1     -50.895  25.082  33.718  0.00  0.00     0.020 A 
ENDBRANCH   1  21
TORSDOF 8
ENDMDL
MODEL 2
REMARK VINA RESULT:      58.8      1.121      1.673
REMARK  8 active torsions:
REMARK  status: ('A' for Active; 'I' for Inactive)
REMARK    1  A    between atoms: C_9  and  N_1 
REMARK    2  A    between atoms: S_10  and  C_6 
REMARK    3  A    between atoms: C_19  and  S_10 
REMARK    4  A    between atoms: C_12  and  C_19 
REMARK       I    between atoms: N_14  and  C_12 
REMARK    5  A    between atoms: C_13  and  C_20 
REMARK    6  A    between atoms: O_24  and  C_13 
REMARK    7  A    between atoms: C_20  and  N_14 
REMARK    8  A    between atoms: C_26  and  O_24 
ROOT
ATOM      1  N   UNL d   1     -49.501  27.051  33.863  0.00  0.00    -0.212 N 
ATOM      2  C   UNL d   1     -49.405  27.376  34.611  0.00  0.00     0.169 A 
ATOM      3  N   UNL d   1     -48.940  27.362  33.367  0.00  0.00    -0.162 NA
ATOM      4  C   UNL d   1     -48.769  27.900  34.575  0.00  0.00     0.081 A 
ATOM      5  C   UNL d   1     -48.479  27.893  33.805  0.00  0.00     0.126 A 
ATOM      6  C   UNL d   1     -48.538  28.314  35.246  0.00  0.00     0.117 A 
ATOM      7  N   UNL d   1     -49.809  27.265  35.318  0.00  0.00    -0.205 NA
ATOM      8  N   UNL d   1     -48.942  28.205  35.957  0.00  0.00    -0.217 NA
ATOM      9  C   UNL d   1     -49.578  27.681  35.993  0.00  0.00     0.201 A 
ENDROOT
BRANCH   6  10
ATOM     10  S   UNL d   1     -47.902  28.839  35.211  0.00  0.00    -0.062 SA
BRANCH  10  11
ATOM     11  C   UNL d   1     -48.019  29.632  35.356  0.00  0.00     0.099 C 
BRANCH  11  12
ATOM     12  C   UNL d   1     -47.493  30.045  35.840  0.00  0.00     0.286 C 
ATOM     13  N   UNL d   1     -47.184  30.769  35.590  0.00  0.00    -0.200 NA
ATOM     14  O   UNL d   1     -47.277  29.735  36.574  0.00  0.00    -0.265 OA
BRANCH  13  15
ATOM     15  C   UNL d   1     -47.400  31.079  34.856  0.00  0.00     0.171 C 
BRANCH  15  16
ATOM     16  C   UNL d   1     -47.382  31.895  34.732  0.00  0.00     0.320 C 
ATOM     17  O   UNL d   1     -46.780  32.350  35.066  0.00  0.00    -0.257 OA
BRANCH  16  18
ATOM     18  O   UNL d   1     -47.965  32.255  34.273  0.00  0.00    -0.270 OA
BRANCH  18  19
ATOM     19  C   UNL d   1     -48.082  33.071  34.322  0.00  0.00     0.126 C 
ATOM     20  C   UNL d   1     -48.510  33.461  33.734  0.00  0.00     0.029 C 
ENDBRANCH  18  19
ENDBRANCH  16  18
ENDBRANCH  15  16
ENDBRANCH  13  15
ENDBRANCH  11  12
ENDBRANCH  10  11
ENDBRANCH   6  10
BRANCH   1  21
ATOM     21  C   UNL d   1     -50.104  26.497  33.725  0.00  0.00     0.085 A 
ATOM     22  C   UNL d   1     -49.942  25.693  33.777  0.00  0.00     0.020 A 
ATOM     23  C   UNL d   1     -50.535  25.146  33.642  0.00  0.00     0.013 A 
ATOM     24  C   UNL d   1     -51.300  25.396  33.451  0.00  0.00     0.058 A 
ATOM     25  C   UNL d   1     -51.453  26.215  33.400  0.00  0.00     0.013 A 
ATOM     26 CL   UNL d   1     -51.903  24.843  33.312  0.00  0.00    -0.082 Cl
ATOM     27  C   UNL d   1     -50.857  26.755  33.537  0.00  0.00     0.020 A 
ENDBRANCH   1  21
TORSDOF 8
ENDMDL
