MODEL 1
REMARK VINA RESULT:      62.2      0.000      0.000
REMARK  3 active torsions:
REMARK  status: ('A' for Active; 'I' for Inactive)
REMARK    1  A    between atoms: C_24  and  N_10 
REMARK    2  A    between atoms: C_12  and  N_15 
REMARK       I    between atoms: N_15  and  C_16 
REMARK    3  A    between atoms: C_16  and  C_24 
ROOT
ATOM      1  N   UNL d   1      44.523 -12.859  39.037  0.00  0.00    -0.188 NA
ATOM      2  C   UNL d   1      44.945 -12.754  39.740  0.00  0.00     0.298 C 
ATOM      3  O   UNL d   1      45.646 -13.185  39.861  0.00  0.00    -0.263 OA
ENDROOT
BRANCH   1   4
ATOM      4  C   UNL d   1      44.797 -13.388  38.461  0.00  0.00     0.166 A 
ATOM      5  N   UNL d   1      44.283 -13.948  38.134  0.00  0.00    -0.226 NA
ATOM      6  C   UNL d   1      44.552 -14.476  37.562  0.00  0.00     0.090 A 
ATOM      7  C   UNL d   1      44.043 -15.037  37.232  0.00  0.00     0.041 A 
ATOM      8  C   UNL d   1      45.341 -14.449  37.310  0.00  0.00     0.081 A 
ATOM      9  C   UNL d   1      44.317 -15.566  36.656  0.00  0.00     0.105 A 
ATOM     10  C   UNL d   1      43.255 -15.067  37.480  0.00  0.00     0.004 A 
ATOM     11  C   UNL d   1      43.802 -16.123  36.332  0.00  0.00     0.025 A 
ATOM     12  O   UNL d   1      45.101 -15.535  36.411  0.00  0.00    -0.273 OA
ATOM     13  C   UNL d   1      43.016 -16.155  36.578  0.00  0.00     0.002 A 
ATOM     14  C   UNL d   1      42.740 -15.623  37.156  0.00  0.00     0.000 A 
ATOM     15  C   UNL d   1      45.615 -14.979  36.735  0.00  0.00     0.301 A 
ATOM     16  O   UNL d   1      46.407 -14.947  36.487  0.00  0.00    -0.259 OA
ATOM     17  C   UNL d   1      45.855 -13.890  37.637  0.00  0.00     0.010 A 
ATOM     18  C   UNL d   1      45.587 -13.363  38.207  0.00  0.00     0.039 A 
ATOM     19  C   UNL d   1      46.647 -13.865  37.382  0.00  0.00     0.000 C 
ENDBRANCH   1   4
BRANCH   2  20
ATOM     20  C   UNL d   1      44.678 -12.226  40.321  0.00  0.00     0.143 C 
BRANCH  20  21
ATOM     21  N   UNL d   1      44.870 -12.350  41.111  0.00  0.00    -0.306 N 
ATOM     22  C   UNL d   1      45.592 -12.096  41.283  0.00  0.00     0.059 A 
ATOM     23  C   UNL d   1      46.038 -12.082  41.943  0.00  0.00     0.080 A 
ATOM     24  C   UNL d   1      45.935 -12.311  42.677  0.00  0.00     0.061 A 
ATOM     25  C   UNL d   1      45.021 -12.470  41.823  0.00  0.00     0.024 A 
ATOM     26  N   UNL d   1      45.356 -12.655  43.088  0.00  0.00    -0.280 N 
ATOM     27  C   UNL d   1      44.622 -12.912  42.911  0.00  0.00     0.049 A 
ATOM     28  C   UNL d   1      45.631 -12.731  43.830  0.00  0.00     0.264 A 
ATOM     29  C   UNL d   1      44.189 -12.926  42.268  0.00  0.00     0.079 A 
ATOM     30  C   UNL d   1      44.179 -13.240  43.482  0.00  0.00     0.014 A 
ATOM     31  C   UNL d   1      44.286 -12.694  41.521  0.00  0.00     0.059 A 
ATOM     32  C   UNL d   1      44.452 -13.315  44.215  0.00  0.00     0.006 A 
ATOM     33  C   UNL d   1      45.186 -13.059  44.392  0.00  0.00     0.061 A 
ATOM     34  O   UNL d   1      46.367 -12.472  44.000  0.00  0.00    -0.267 OA
ENDBRANCH  20  21
ENDBRANCH   2  20
TORSDOF 3
ENDMDL
