MODEL 1
REMARK VINA RESULT:      97.7      0.000      0.000
REMARK  7 active torsions:
REMARK  status: ('A' for Active; 'I' for Inactive)
REMARK    1  A    between atoms: C_12  and  C_3 
REMARK    2  A    between atoms: N_9  and  C_5 
REMARK    3  A    between atoms: C_17  and  N_9 
REMARK    4  A    between atoms: N_14  and  C_12 
REMARK    5  A    between atoms: C_18  and  N_14 
REMARK    6  A    between atoms: C_16  and  C_18 
REMARK    7  A    between atoms: C_19  and  C_17 
ROOT
ATOM      1  N   UNL d   1      60.374  48.126  51.612  0.00  0.00    -0.258 N 
ATOM      2  C   UNL d   1      59.752  48.605  51.335  0.00  0.00     0.270 A 
ATOM      3  C   UNL d   1      59.334  49.095  51.851  0.00  0.00     0.111 A 
ATOM      4  N   UNL d   1      60.165  48.629  52.941  0.00  0.00    -0.209 NA
ATOM      5  C   UNL d   1      59.541  49.107  52.655  0.00  0.00     0.170 A 
ATOM      6  C   UNL d   1      60.577  48.138  52.404  0.00  0.00     0.152 A 
ATOM      7  C   UNL d   1      60.775  47.648  51.087  0.00  0.00     0.084 A 
ATOM      8  C   UNL d   1      61.188  47.672  52.692  0.00  0.00     0.038 A 
ATOM      9  C   UNL d   1      61.384  47.178  51.353  0.00  0.00     0.018 A 
ATOM     10  C   UNL d   1      61.591  47.191  52.157  0.00  0.00     0.005 A 
ATOM     11  O   UNL d   1      59.548  48.592  50.543  0.00  0.00    -0.266 OA
ATOM     12  C   UNL d   1      61.795  46.687  50.810  0.00  0.00     0.002 C 
ENDROOT
BRANCH   3  13
ATOM     13  C   UNL d   1      58.725  49.558  51.556  0.00  0.00     0.107 C 
BRANCH  13  14
ATOM     14  N   UNL d   1      58.299  49.319  50.895  0.00  0.00    -0.242 NA
BRANCH  14  15
ATOM     15  C   UNL d   1      57.600  49.708  50.691  0.00  0.00     0.101 C 
BRANCH  15  16
ATOM     16  C   UNL d   1      57.082  49.386  50.146  0.00  0.00     0.038 A 
ATOM     17  C   UNL d   1      56.615  48.729  50.354  0.00  0.00     0.101 A 
ATOM     18  N   UNL d   1      56.097  48.408  49.810  0.00  0.00    -0.242 NA
ATOM     19  C   UNL d   1      56.038  48.736  49.048  0.00  0.00     0.099 A 
ATOM     20  C   UNL d   1      56.490  49.375  48.836  0.00  0.00     0.021 A 
ATOM     21  C   UNL d   1      57.017  49.703  49.390  0.00  0.00     0.005 A 
ENDBRANCH  15  16
ENDBRANCH  14  15
ENDBRANCH  13  14
ENDBRANCH   3  13
BRANCH   5  22
ATOM     22  N   UNL d   1      59.150  49.583  53.207  0.00  0.00    -0.225 NA
BRANCH  22  23
ATOM     23  C   UNL d   1      59.419  49.651  53.991  0.00  0.00     0.101 C 
BRANCH  23  24
ATOM     24  C   UNL d   1      58.879  49.662  54.614  0.00  0.00     0.019 A 
ATOM     25  C   UNL d   1      58.083  49.648  54.468  0.00  0.00     0.002 A 
ATOM     26  C   UNL d   1      57.548  49.659  55.106  0.00  0.00     0.000 A 
ATOM     27  C   UNL d   1      57.810  49.682  55.884  0.00  0.00     0.000 A 
ATOM     28  C   UNL d   1      58.629  49.696  56.028  0.00  0.00     0.000 A 
ATOM     29  C   UNL d   1      59.171  49.685  55.397  0.00  0.00     0.002 A 
ENDBRANCH  23  24
ENDBRANCH  22  23
ENDBRANCH   5  22
TORSDOF 7
ENDMDL
