MODEL 1
REMARK VINA RESULT:      83.4      0.000      0.000
REMARK  3 active torsions:
REMARK  status: ('A' for Active; 'I' for Inactive)
REMARK    1  A    between atoms: S_3  and  N_1 
REMARK    2  A    between atoms: C_5  and  C_4 
REMARK    3  A    between atoms: C_11  and  C_6 
ROOT
ATOM      1  N   UNL d   1      60.613  48.766  50.869  0.00  0.00    -0.155 N 
ATOM      2  N   UNL d   1      61.272  48.290  50.819  0.00  0.00    -0.153 NA
ATOM      3  C   UNL d   1      60.042  48.464  50.379  0.00  0.00     0.098 A 
ATOM      4  C   UNL d   1      61.103  47.689  50.293  0.00  0.00     0.126 A 
ATOM      5  C   UNL d   1      60.346  47.790  50.016  0.00  0.00     0.043 A 
ENDROOT
BRANCH   3   6
ATOM      6  C   UNL d   1      59.288  48.775  50.260  0.00  0.00     0.047 A 
ATOM      7  C   UNL d   1      59.122  49.209  49.577  0.00  0.00     0.140 A 
ATOM      8  N   UNL d   1      58.365  49.519  49.459  0.00  0.00    -0.234 NA
ATOM      9 CL   UNL d   1      59.712  49.331  49.014  0.00  0.00    -0.061 Cl
ATOM     10  C   UNL d   1      57.775  49.397  50.023  0.00  0.00     0.082 A 
ATOM     11  C   UNL d   1      57.940  48.964  50.706  0.00  0.00     0.018 A 
ATOM     12  C   UNL d   1      57.020  49.708  49.904  0.00  0.00     0.019 A 
ATOM     13  C   UNL d   1      58.695  48.653  50.824  0.00  0.00     0.005 A 
ATOM     14  C   UNL d   1      57.351  48.842  51.269  0.00  0.00     0.002 A 
ATOM     15  C   UNL d   1      56.623  49.148  51.141  0.00  0.00     0.000 A 
ATOM     16  C   UNL d   1      56.458  49.582  50.458  0.00  0.00     0.002 A 
ATOM     17  C   UNL d   1      56.033  49.026  51.705  0.00  0.00     0.000 C 
ENDBRANCH   3   6
BRANCH   1  18
ATOM     18  S   UNL d   1      60.965  49.270  51.408  0.00  0.00     0.266 S 
ATOM     19  O   UNL d   1      61.628  49.707  51.213  0.00  0.00    -0.203 OA
ATOM     20  O   UNL d   1      60.511  49.202  52.094  0.00  0.00    -0.203 OA
ATOM     21  C   UNL d   1      61.163  49.707  52.079  0.00  0.00     0.165 C 
ENDBRANCH   1  18
BRANCH   4  22
ATOM     22  C   UNL d   1      61.609  47.088  50.079  0.00  0.00     0.119 A 
ATOM     23  O   UNL d   1      62.386  47.150  49.852  0.00  0.00    -0.304 OA
ATOM     24  C   UNL d   1      62.681  46.409  49.686  0.00  0.00     0.123 A 
ATOM     25  C   UNL d   1      62.086  45.866  49.809  0.00  0.00     0.029 A 
ATOM     26  C   UNL d   1      61.414  46.269  50.053  0.00  0.00     0.028 A 
ENDBRANCH   4  22
TORSDOF 3
ENDMDL
