MODEL 1
REMARK VINA RESULT:      -7.2      0.000      0.000
REMARK  4 active torsions:
REMARK  status: ('A' for Active; 'I' for Inactive)
REMARK    1  A    between atoms: N_4  and  S_1 
REMARK    2  A    between atoms: C_5  and  S_1 
REMARK    3  A    between atoms: S_2  and  N_3 
REMARK    4  A    between atoms: C_6  and  S_2 
ROOT
ATOM      1  N   UNL d   1     -49.408  14.753  22.865  0.00  0.00    -0.226 N 
ATOM      2  N   UNL d   1     -47.927  14.035  22.751  0.00  0.00    -0.226 N 
ATOM      3  C   UNL d   1     -49.176  14.166  23.428  0.00  0.00     0.111 A 
ATOM      4  C   UNL d   1     -48.442  13.815  23.366  0.00  0.00     0.111 A 
ATOM      5  C   UNL d   1     -48.155  14.611  22.200  0.00  0.00     0.111 A 
ATOM      6  C   UNL d   1     -48.900  14.974  22.255  0.00  0.00     0.111 A 
ENDROOT
BRANCH   1   7
ATOM      7  S   UNL d   1     -50.178  15.143  22.903  0.00  0.00     0.277 S 
ATOM      8  O   UNL d   1     -49.836  15.819  23.255  0.00  0.00    -0.199 OA
ATOM      9  O   UNL d   1     -50.937  15.507  22.932  0.00  0.00    -0.199 OA
BRANCH   7  10
ATOM     10  C   UNL d   1     -50.535  14.458  22.545  0.00  0.00     0.133 A 
ATOM     11  S   UNL d   1     -50.745  13.745  22.832  0.00  0.00    -0.074 SA
ATOM     12  C   UNL d   1     -51.064  13.313  22.224  0.00  0.00     0.036 A 
ATOM     13  C   UNL d   1     -51.061  13.754  21.537  0.00  0.00     0.008 A 
ATOM     14  C   UNL d   1     -50.730  14.475  21.729  0.00  0.00     0.020 A 
ENDBRANCH   7  10
ENDBRANCH   1   7
BRANCH   2  15
ATOM     15  S   UNL d   1     -47.174  13.671  22.693  0.00  0.00     0.277 S 
ATOM     16  O   UNL d   1     -46.846  14.293  23.131  0.00  0.00    -0.199 OA
ATOM     17  O   UNL d   1     -47.522  13.052  22.253  0.00  0.00    -0.199 OA
BRANCH  15  18
ATOM     18  C   UNL d   1     -46.436  13.308  22.633  0.00  0.00     0.133 A 
ATOM     19  S   UNL d   1     -46.145  12.587  22.911  0.00  0.00    -0.074 SA
ATOM     20  C   UNL d   1     -45.355  12.527  22.674  0.00  0.00     0.036 A 
ATOM     21  C   UNL d   1     -45.165  13.197  22.259  0.00  0.00     0.008 A 
ATOM     22  C   UNL d   1     -45.822  13.689  22.225  0.00  0.00     0.020 A 
ENDBRANCH  15  18
ENDBRANCH   2  15
TORSDOF 4
ENDMDL
MODEL 2
REMARK VINA RESULT:      -6.8      1.576      1.897
REMARK  4 active torsions:
REMARK  status: ('A' for Active; 'I' for Inactive)
REMARK    1  A    between atoms: N_4  and  S_1 
REMARK    2  A    between atoms: C_5  and  S_1 
REMARK    3  A    between atoms: S_2  and  N_3 
REMARK    4  A    between atoms: C_6  and  S_2 
ROOT
ATOM      1  N   UNL d   1     -49.406  12.340  23.126  0.00  0.00    -0.226 N 
ATOM      2  N   UNL d   1     -47.809  12.633  22.836  0.00  0.00    -0.226 N 
ATOM      3  C   UNL d   1     -48.964  12.839  23.646  0.00  0.00     0.111 A 
ATOM      4  C   UNL d   1     -48.174  12.981  23.497  0.00  0.00     0.111 A 
ATOM      5  C   UNL d   1     -48.241  12.143  22.326  0.00  0.00     0.111 A 
ATOM      6  C   UNL d   1     -49.046  11.994  22.470  0.00  0.00     0.111 A 
ENDROOT
BRANCH   1   7
ATOM      7  S   UNL d   1     -50.243  12.170  23.256  0.00  0.00     0.277 S 
ATOM      8  O   UNL d   1     -50.057  11.434  23.602  0.00  0.00    -0.199 OA
ATOM      9  O   UNL d   1     -51.063  12.024  23.374  0.00  0.00    -0.199 OA
BRANCH   7  10
ATOM     10  C   UNL d   1     -50.442  12.920  22.905  0.00  0.00     0.133 A 
ATOM     11  S   UNL d   1     -50.389  13.671  23.165  0.00  0.00    -0.074 SA
ATOM     12  C   UNL d   1     -50.666  14.160  22.581  0.00  0.00     0.036 A 
ATOM     13  C   UNL d   1     -50.900  13.719  21.935  0.00  0.00     0.008 A 
ATOM     14  C   UNL d   1     -50.763  12.939  22.130  0.00  0.00     0.020 A 
ENDBRANCH   7  10
ENDBRANCH   1   7
BRANCH   2  15
ATOM     15  S   UNL d   1     -46.997  12.782  22.688  0.00  0.00     0.277 S 
ATOM     16  O   UNL d   1     -46.798  12.319  23.345  0.00  0.00    -0.199 OA
ATOM     17  O   UNL d   1     -47.216  13.246  22.029  0.00  0.00    -0.199 OA
BRANCH  15  18
ATOM     18  C   UNL d   1     -46.199  12.933  22.538  0.00  0.00     0.133 A 
ATOM     19  S   UNL d   1     -45.527  12.455  22.570  0.00  0.00    -0.074 SA
ATOM     20  C   UNL d   1     -44.878  12.921  22.357  0.00  0.00     0.036 A 
ATOM     21  C   UNL d   1     -45.146  13.670  22.197  0.00  0.00     0.008 A 
ATOM     22  C   UNL d   1     -45.961  13.692  22.305  0.00  0.00     0.020 A 
ENDBRANCH  15  18
ENDBRANCH   2  15
TORSDOF 4
ENDMDL
MODEL 3
REMARK VINA RESULT:      -6.6      1.554      1.897
REMARK  4 active torsions:
REMARK  status: ('A' for Active; 'I' for Inactive)
REMARK    1  A    between atoms: N_4  and  S_1 
REMARK    2  A    between atoms: C_5  and  S_1 
REMARK    3  A    between atoms: S_2  and  N_3 
REMARK    4  A    between atoms: C_6  and  S_2 
ROOT
ATOM      1  N   UNL d   1     -49.730  13.372  22.185  0.00  0.00    -0.226 N 
ATOM      2  N   UNL d   1     -48.408  12.551  22.731  0.00  0.00    -0.226 N 
ATOM      3  C   UNL d   1     -49.811  12.793  22.795  0.00  0.00     0.111 A 
ATOM      4  C   UNL d   1     -49.153  12.390  23.061  0.00  0.00     0.111 A 
ATOM      5  C   UNL d   1     -48.328  13.119  22.132  0.00  0.00     0.111 A 
ATOM      6  C   UNL d   1     -48.992  13.534  21.855  0.00  0.00     0.111 A 
ENDROOT
BRANCH   1   7
ATOM      7  S   UNL d   1     -50.407  13.815  21.882  0.00  0.00     0.277 S 
ATOM      8  O   UNL d   1     -50.492  13.281  21.245  0.00  0.00    -0.199 OA
ATOM      9  O   UNL d   1     -51.064  14.260  21.602  0.00  0.00    -0.199 OA
BRANCH   7  10
ATOM     10  C   UNL d   1     -50.328  14.364  22.527  0.00  0.00     0.133 A 
ATOM     11  S   UNL d   1     -50.572  14.348  23.285  0.00  0.00    -0.074 SA
ATOM     12  C   UNL d   1     -50.333  15.035  23.642  0.00  0.00     0.036 A 
ATOM     13  C   UNL d   1     -49.929  15.501  23.107  0.00  0.00     0.008 A 
ATOM     14  C   UNL d   1     -49.921  15.088  22.404  0.00  0.00     0.020 A 
ENDBRANCH   7  10
ENDBRANCH   1   7
BRANCH   2  15
ATOM     15  S   UNL d   1     -47.735  12.134  23.008  0.00  0.00     0.277 S 
ATOM     16  O   UNL d   1     -48.233  11.621  23.426  0.00  0.00    -0.199 OA
ATOM     17  O   UNL d   1     -47.248  12.661  22.581  0.00  0.00    -0.199 OA
BRANCH  15  18
ATOM     18  C   UNL d   1     -47.069  11.727  23.278  0.00  0.00     0.133 A 
ATOM     19  S   UNL d   1     -46.932  10.931  23.442  0.00  0.00    -0.074 SA
ATOM     20  C   UNL d   1     -46.149  10.858  23.698  0.00  0.00     0.036 A 
ATOM     21  C   UNL d   1     -45.812  11.596  23.690  0.00  0.00     0.008 A 
ATOM     22  C   UNL d   1     -46.369  12.143  23.433  0.00  0.00     0.020 A 
ENDBRANCH  15  18
ENDBRANCH   2  15
TORSDOF 4
ENDMDL
MODEL 4
REMARK VINA RESULT:      -5.9      9.185      9.891
REMARK  4 active torsions:
REMARK  status: ('A' for Active; 'I' for Inactive)
REMARK    1  A    between atoms: N_4  and  S_1 
REMARK    2  A    between atoms: C_5  and  S_1 
REMARK    3  A    between atoms: S_2  and  N_3 
REMARK    4  A    between atoms: C_6  and  S_2 
ROOT
ATOM      1  N   UNL d   1     -40.475  15.131  18.072  0.00  0.00    -0.226 N 
ATOM      2  N   UNL d   1     -39.957  14.962  19.629  0.00  0.00    -0.226 N 
ATOM      3  C   UNL d   1     -40.281  15.813  18.532  0.00  0.00     0.111 A 
ATOM      4  C   UNL d   1     -40.025  15.723  19.302  0.00  0.00     0.111 A 
ATOM      5  C   UNL d   1     -40.147  14.293  19.178  0.00  0.00     0.111 A 
ATOM      6  C   UNL d   1     -40.408  14.375  18.394  0.00  0.00     0.111 A 
ENDROOT
BRANCH   1   7
ATOM      7  S   UNL d   1     -40.749  15.193  17.255  0.00  0.00     0.277 S 
ATOM      8  O   UNL d   1     -41.543  15.112  17.498  0.00  0.00    -0.199 OA
ATOM      9  O   UNL d   1     -40.996  15.255  16.453  0.00  0.00    -0.199 OA
BRANCH   7  10
ATOM     10  C   UNL d   1     -39.941  15.276  16.998  0.00  0.00     0.133 A 
ATOM     11  S   UNL d   1     -39.428  15.886  17.014  0.00  0.00    -0.074 SA
ATOM     12  C   UNL d   1     -38.730  15.635  16.688  0.00  0.00     0.036 A 
ATOM     13  C   UNL d   1     -38.793  14.854  16.458  0.00  0.00     0.008 A 
ATOM     14  C   UNL d   1     -39.551  14.620  16.649  0.00  0.00     0.020 A 
ENDBRANCH   7  10
ENDBRANCH   1   7
BRANCH   2  15
ATOM     15  S   UNL d   1     -39.693  14.876  20.420  0.00  0.00     0.277 S 
ATOM     16  O   UNL d   1     -38.946  14.654  20.141  0.00  0.00    -0.199 OA
ATOM     17  O   UNL d   1     -40.453  15.101  20.684  0.00  0.00    -0.199 OA
BRANCH  15  18
ATOM     18  C   UNL d   1     -39.440  14.792  21.201  0.00  0.00     0.133 A 
ATOM     19  S   UNL d   1     -39.289  15.341  21.799  0.00  0.00    -0.074 SA
ATOM     20  C   UNL d   1     -39.047  14.921  22.470  0.00  0.00     0.036 A 
ATOM     21  C   UNL d   1     -39.048  14.131  22.286  0.00  0.00     0.008 A 
ATOM     22  C   UNL d   1     -39.289  14.036  21.506  0.00  0.00     0.020 A 
ENDBRANCH  15  18
ENDBRANCH   2  15
TORSDOF 4
ENDMDL
MODEL 5
REMARK VINA RESULT:      -5.1      9.639     10.402
REMARK  4 active torsions:
REMARK  status: ('A' for Active; 'I' for Inactive)
REMARK    1  A    between atoms: N_4  and  S_1 
REMARK    2  A    between atoms: C_5  and  S_1 
REMARK    3  A    between atoms: S_2  and  N_3 
REMARK    4  A    between atoms: C_6  and  S_2 
ROOT
ATOM      1  N   UNL d   1     -38.790  15.009  18.145  0.00  0.00    -0.226 N 
ATOM      2  N   UNL d   1     -38.705  14.407  19.678  0.00  0.00    -0.226 N 
ATOM      3  C   UNL d   1     -38.795  14.174  18.274  0.00  0.00     0.111 A 
ATOM      4  C   UNL d   1     -38.753  13.882  19.036  0.00  0.00     0.111 A 
ATOM      5  C   UNL d   1     -38.700  15.226  19.551  0.00  0.00     0.111 A 
ATOM      6  C   UNL d   1     -38.743  15.532  18.780  0.00  0.00     0.111 A 
ENDROOT
BRANCH   1   7
ATOM      7  S   UNL d   1     -38.834  15.349  17.352  0.00  0.00     0.277 S 
ATOM      8  O   UNL d   1     -38.005  15.452  17.333  0.00  0.00    -0.199 OA
ATOM      9  O   UNL d   1     -38.896  15.678  16.580  0.00  0.00    -0.199 OA
BRANCH   7  10
ATOM     10  C   UNL d   1     -39.679  15.247  17.362  0.00  0.00     0.133 A 
ATOM     11  S   UNL d   1     -40.148  14.605  17.313  0.00  0.00    -0.074 SA
ATOM     12  C   UNL d   1     -40.919  14.853  17.354  0.00  0.00     0.036 A 
ATOM     13  C   UNL d   1     -40.948  15.665  17.430  0.00  0.00     0.008 A 
ATOM     14  C   UNL d   1     -40.173  15.922  17.436  0.00  0.00     0.020 A 
ENDBRANCH   7  10
ENDBRANCH   1   7
BRANCH   2  15
ATOM     15  S   UNL d   1     -38.662  14.102  20.458  0.00  0.00     0.277 S 
ATOM     16  O   UNL d   1     -38.070  13.577  20.213  0.00  0.00    -0.199 OA
ATOM     17  O   UNL d   1     -39.259  14.638  20.687  0.00  0.00    -0.199 OA
BRANCH  15  18
ATOM     18  C   UNL d   1     -38.623  13.805  21.227  0.00  0.00     0.133 A 
ATOM     19  S   UNL d   1     -38.040  13.388  21.635  0.00  0.00    -0.074 SA
ATOM     20  C   UNL d   1     -38.323  13.241  22.398  0.00  0.00     0.036 A 
ATOM     21  C   UNL d   1     -39.065  13.562  22.458  0.00  0.00     0.008 A 
ATOM     22  C   UNL d   1     -39.264  13.914  21.742  0.00  0.00     0.020 A 
ENDBRANCH  15  18
ENDBRANCH   2  15
TORSDOF 4
ENDMDL
MODEL 6
REMARK VINA RESULT:      -5.0      9.178     10.113
REMARK  4 active torsions:
REMARK  status: ('A' for Active; 'I' for Inactive)
REMARK    1  A    between atoms: N_4  and  S_1 
REMARK    2  A    between atoms: C_5  and  S_1 
REMARK    3  A    between atoms: S_2  and  N_3 
REMARK    4  A    between atoms: C_6  and  S_2 
ROOT
ATOM      1  N   UNL d   1     -39.133  15.163  21.309  0.00  0.00    -0.226 N 
ATOM      2  N   UNL d   1     -39.684  15.207  19.755  0.00  0.00    -0.226 N 
ATOM      3  C   UNL d   1     -39.921  14.917  21.131  0.00  0.00     0.111 A 
ATOM      4  C   UNL d   1     -40.188  14.941  20.360  0.00  0.00     0.111 A 
ATOM      5  C   UNL d   1     -38.911  15.449  19.930  0.00  0.00     0.111 A 
ATOM      6  C   UNL d   1     -38.631  15.428  20.712  0.00  0.00     0.111 A 
ENDROOT
BRANCH   1   7
ATOM      7  S   UNL d   1     -38.821  15.150  22.115  0.00  0.00     0.277 S 
ATOM      8  O   UNL d   1     -39.106  15.922  22.256  0.00  0.00    -0.199 OA
ATOM      9  O   UNL d   1     -38.510  15.118  22.896  0.00  0.00    -0.199 OA
BRANCH   7  10
ATOM     10  C   UNL d   1     -38.527  14.362  21.981  0.00  0.00     0.133 A 
ATOM     11  S   UNL d   1     -37.993  14.063  21.470  0.00  0.00    -0.074 SA
ATOM     12  C   UNL d   1     -37.940  13.265  21.601  0.00  0.00     0.036 A 
ATOM     13  C   UNL d   1     -38.446  13.046  22.203  0.00  0.00     0.008 A 
ATOM     14  C   UNL d   1     -38.819  13.729  22.448  0.00  0.00     0.020 A 
ENDBRANCH   7  10
ENDBRANCH   1   7
BRANCH   2  15
ATOM     15  S   UNL d   1     -39.964  15.230  18.965  0.00  0.00     0.277 S 
ATOM     16  O   UNL d   1     -40.419  14.555  19.114  0.00  0.00    -0.199 OA
ATOM     17  O   UNL d   1     -39.498  15.910  18.834  0.00  0.00    -0.199 OA
BRANCH  15  18
ATOM     18  C   UNL d   1     -40.236  15.257  18.187  0.00  0.00     0.133 A 
ATOM     19  S   UNL d   1     -40.669  15.820  17.768  0.00  0.00    -0.074 SA
ATOM     20  C   UNL d   1     -40.774  15.535  16.998  0.00  0.00     0.036 A 
ATOM     21  C   UNL d   1     -40.412  14.812  16.946  0.00  0.00     0.008 A 
ATOM     22  C   UNL d   1     -40.075  14.627  17.673  0.00  0.00     0.020 A 
ENDBRANCH  15  18
ENDBRANCH   2  15
TORSDOF 4
ENDMDL
