MODEL 1
REMARK VINA RESULT:      -8.6      0.000      0.000
REMARK  1 active torsions:
REMARK  status: ('A' for Active; 'I' for Inactive)
REMARK    1  A    between atoms: C_6  and  C_3 
ROOT
ATOM      1  O   UNL d   1      53.586  31.177  53.752  0.00  0.00    -0.260 OA
ATOM      2  N   UNL d   1      53.043  32.176  53.012  0.00  0.00    -0.120 NA
ATOM      3  C   UNL d   1      53.584  31.976  53.638  0.00  0.00     0.205 A 
ATOM      4  N   UNL d   1      52.724  31.499  52.755  0.00  0.00    -0.109 NA
ATOM      5  C   UNL d   1      53.012  30.865  53.161  0.00  0.00     0.262 A 
ATOM      6  S   UNL d   1      52.782  30.106  53.013  0.00  0.00    -0.029 SA
ENDROOT
BRANCH   3   7
ATOM      7  C   UNL d   1      54.033  32.492  54.062  0.00  0.00     0.043 A 
ATOM      8  C   UNL d   1      53.851  32.623  54.869  0.00  0.00     0.004 A 
ATOM      9  C   UNL d   1      54.305  33.150  55.311  0.00  0.00     0.000 A 
ATOM     10  C   UNL d   1      54.947  33.550  54.948  0.00  0.00     0.000 A 
ATOM     11  C   UNL d   1      55.108  33.405  54.152  0.00  0.00     0.000 A 
ATOM     12  C   UNL d   1      54.668  32.886  53.696  0.00  0.00     0.004 A 
ENDBRANCH   3   7
TORSDOF 1
ENDMDL
MODEL 2
REMARK VINA RESULT:      -7.8      1.731      2.926
REMARK  1 active torsions:
REMARK  status: ('A' for Active; 'I' for Inactive)
REMARK    1  A    between atoms: C_6  and  C_3 
ROOT
ATOM      1  O   UNL d   1      53.907  32.445  54.676  0.00  0.00    -0.260 OA
ATOM      2  N   UNL d   1      54.594  32.623  53.520  0.00  0.00    -0.120 NA
ATOM      3  C   UNL d   1      53.996  32.172  53.922  0.00  0.00     0.205 A 
ATOM      4  N   UNL d   1      54.861  33.164  54.032  0.00  0.00    -0.109 NA
ATOM      5  C   UNL d   1      54.486  33.106  54.743  0.00  0.00     0.262 A 
ATOM      6  S   UNL d   1      54.650  33.590  55.368  0.00  0.00    -0.029 SA
ENDROOT
BRANCH   3   7
ATOM      7  C   UNL d   1      53.572  31.560  53.613  0.00  0.00     0.043 A 
ATOM      8  C   UNL d   1      53.789  30.774  53.806  0.00  0.00     0.004 A 
ATOM      9  C   UNL d   1      53.361  30.143  53.495  0.00  0.00     0.000 A 
ATOM     10  C   UNL d   1      52.711  30.294  52.986  0.00  0.00     0.000 A 
ATOM     11  C   UNL d   1      52.515  31.076  52.810  0.00  0.00     0.000 A 
ATOM     12  C   UNL d   1      52.928  31.716  53.109  0.00  0.00     0.004 A 
ENDBRANCH   3   7
TORSDOF 1
ENDMDL
MODEL 3
REMARK VINA RESULT:      -7.4      2.232      2.456
REMARK  1 active torsions:
REMARK  status: ('A' for Active; 'I' for Inactive)
REMARK    1  A    between atoms: C_6  and  C_3 
ROOT
ATOM      1  O   UNL d   1      51.905  33.639  53.706  0.00  0.00    -0.260 OA
ATOM      2  N   UNL d   1      52.728  34.508  53.066  0.00  0.00    -0.120 NA
ATOM      3  C   UNL d   1      52.666  33.904  53.662  0.00  0.00     0.205 A 
ATOM      4  N   UNL d   1      52.006  34.602  52.755  0.00  0.00    -0.109 NA
ATOM      5  C   UNL d   1      51.471  34.107  53.099  0.00  0.00     0.262 A 
ATOM      6  S   UNL d   1      50.691  34.087  52.888  0.00  0.00    -0.029 SA
ENDROOT
BRANCH   3   7
ATOM      7  C   UNL d   1      53.265  33.628  54.123  0.00  0.00     0.043 A 
ATOM      8  C   UNL d   1      53.561  32.855  53.988  0.00  0.00     0.004 A 
ATOM      9  C   UNL d   1      54.174  32.564  54.455  0.00  0.00     0.000 A 
ATOM     10  C   UNL d   1      54.497  33.044  55.062  0.00  0.00     0.000 A 
ATOM     11  C   UNL d   1      54.191  33.802  55.177  0.00  0.00     0.000 A 
ATOM     12  C   UNL d   1      53.582  34.110  54.724  0.00  0.00     0.004 A 
ENDBRANCH   3   7
TORSDOF 1
ENDMDL
MODEL 4
REMARK VINA RESULT:      -7.2      2.623      3.123
REMARK  1 active torsions:
REMARK  status: ('A' for Active; 'I' for Inactive)
REMARK    1  A    between atoms: C_6  and  C_3 
ROOT
ATOM      1  O   UNL d   1      53.362  33.735  54.424  0.00  0.00    -0.260 OA
ATOM      2  N   UNL d   1      53.673  32.947  53.365  0.00  0.00    -0.120 NA
ATOM      3  C   UNL d   1      53.096  33.468  53.711  0.00  0.00     0.205 A 
ATOM      4  N   UNL d   1      54.279  32.902  53.870  0.00  0.00    -0.109 NA
ATOM      5  C   UNL d   1      54.150  33.355  54.525  0.00  0.00     0.262 A 
ATOM      6  S   UNL d   1      54.679  33.412  55.133  0.00  0.00    -0.029 SA
ENDROOT
BRANCH   3   7
ATOM      7  C   UNL d   1      52.388  33.676  53.388  0.00  0.00     0.043 A 
ATOM      8  C   UNL d   1      51.719  33.191  53.525  0.00  0.00     0.004 A 
ATOM      9  C   UNL d   1      50.991  33.395  53.200  0.00  0.00     0.000 A 
ATOM     10  C   UNL d   1      50.926  34.089  52.733  0.00  0.00     0.000 A 
ATOM     11  C   UNL d   1      51.598  34.552  52.611  0.00  0.00     0.000 A 
ATOM     12  C   UNL d   1      52.330  34.366  52.925  0.00  0.00     0.004 A 
ENDBRANCH   3   7
TORSDOF 1
ENDMDL
MODEL 5
REMARK VINA RESULT:      -7.0      2.159      2.877
REMARK  1 active torsions:
REMARK  status: ('A' for Active; 'I' for Inactive)
REMARK    1  A    between atoms: C_6  and  C_3 
ROOT
ATOM      1  O   UNL d   1      53.174  33.590  53.968  0.00  0.00    -0.260 OA
ATOM      2  N   UNL d   1      52.371  33.511  52.877  0.00  0.00    -0.120 NA
ATOM      3  C   UNL d   1      52.873  33.085  53.415  0.00  0.00     0.205 A 
ATOM      4  N   UNL d   1      52.371  34.267  53.108  0.00  0.00    -0.109 NA
ATOM      5  C   UNL d   1      52.836  34.376  53.759  0.00  0.00     0.262 A 
ATOM      6  S   UNL d   1      52.937  35.095  54.112  0.00  0.00    -0.029 SA
ENDROOT
BRANCH   3   7
ATOM      7  C   UNL d   1      53.036  32.296  53.391  0.00  0.00     0.043 A 
ATOM      8  C   UNL d   1      52.541  31.791  52.942  0.00  0.00     0.004 A 
ATOM      9  C   UNL d   1      52.700  30.983  52.912  0.00  0.00     0.000 A 
ATOM     10  C   UNL d   1      53.357  30.674  53.332  0.00  0.00     0.000 A 
ATOM     11  C   UNL d   1      53.831  31.190  53.767  0.00  0.00     0.000 A 
ATOM     12  C   UNL d   1      53.690  31.995  53.810  0.00  0.00     0.004 A 
ENDBRANCH   3   7
TORSDOF 1
ENDMDL
MODEL 6
REMARK VINA RESULT:      -6.6      0.975      1.178
REMARK  1 active torsions:
REMARK  status: ('A' for Active; 'I' for Inactive)
REMARK    1  A    between atoms: C_6  and  C_3 
ROOT
ATOM      1  O   UNL d   1      53.248  31.667  53.380  0.00  0.00    -0.260 OA
ATOM      2  N   UNL d   1      53.745  31.063  54.489  0.00  0.00    -0.120 NA
ATOM      3  C   UNL d   1      53.616  31.800  54.086  0.00  0.00     0.205 A 
ATOM      4  N   UNL d   1      53.454  30.491  54.026  0.00  0.00    -0.109 NA
ATOM      5  C   UNL d   1      53.142  30.793  53.346  0.00  0.00     0.262 A 
ATOM      6  S   UNL d   1      52.807  30.333  52.773  0.00  0.00    -0.029 SA
ENDROOT
BRANCH   3   7
ATOM      7  C   UNL d   1      53.825  32.531  54.352  0.00  0.00     0.043 A 
ATOM      8  C   UNL d   1      54.636  32.734  54.396  0.00  0.00     0.004 A 
ATOM      9  C   UNL d   1      54.859  33.479  54.668  0.00  0.00     0.000 A 
ATOM     10  C   UNL d   1      54.269  34.029  54.899  0.00  0.00     0.000 A 
ATOM     11  C   UNL d   1      53.475  33.808  54.847  0.00  0.00     0.000 A 
ATOM     12  C   UNL d   1      53.234  33.073  54.580  0.00  0.00     0.004 A 
ENDBRANCH   3   7
TORSDOF 1
ENDMDL
MODEL 7
REMARK VINA RESULT:      -6.5      2.664      3.277
REMARK  1 active torsions:
REMARK  status: ('A' for Active; 'I' for Inactive)
REMARK    1  A    between atoms: C_6  and  C_3 
ROOT
ATOM      1  O   UNL d   1      52.922  32.667  53.240  0.00  0.00    -0.260 OA
ATOM      2  N   UNL d   1      53.212  33.898  53.731  0.00  0.00    -0.120 NA
ATOM      3  C   UNL d   1      52.646  33.422  53.311  0.00  0.00     0.205 A 
ATOM      4  N   UNL d   1      53.824  33.429  53.910  0.00  0.00    -0.109 NA
ATOM      5  C   UNL d   1      53.707  32.678  53.640  0.00  0.00     0.262 A 
ATOM      6  S   UNL d   1      54.243  32.084  53.746  0.00  0.00    -0.029 SA
ENDROOT
BRANCH   3   7
ATOM      7  C   UNL d   1      51.937  33.670  53.022  0.00  0.00     0.043 A 
ATOM      8  C   UNL d   1      51.919  34.115  52.312  0.00  0.00     0.004 A 
ATOM      9  C   UNL d   1      51.198  34.373  52.008  0.00  0.00     0.000 A 
ATOM     10  C   UNL d   1      50.487  34.188  52.414  0.00  0.00     0.000 A 
ATOM     11  C   UNL d   1      50.528  33.749  53.111  0.00  0.00     0.000 A 
ATOM     12  C   UNL d   1      51.235  33.483  53.429  0.00  0.00     0.004 A 
ENDBRANCH   3   7
TORSDOF 1
ENDMDL
