MODEL 1
REMARK VINA RESULT:      -5.5      0.000      0.000
REMARK  8 active torsions:
REMARK  status: ('A' for Active; 'I' for Inactive)
REMARK    1  A    between atoms: N_6  and  S_1 
REMARK    2  A    between atoms: C_18  and  S_1 
REMARK    3  A    between atoms: N_2  and  C_4 
REMARK    4  A    between atoms: C_7  and  N_3 
REMARK    5  A    between atoms: C_4  and  C_5 
REMARK    6  A    between atoms: C_10  and  C_4 
REMARK    7  A    between atoms: C_5  and  N_6 
REMARK    8  A    between atoms: O_23  and  C_19 
ROOT
ATOM      1  N   UNL d   1     -47.771  13.120  22.883  0.00  0.00    -0.300 N 
ATOM      2  N   UNL d   1     -46.190  12.919  22.470  0.00  0.00    -0.301 N 
ATOM      3  C   UNL d   1     -47.548  13.138  22.093  0.00  0.00     0.100 A 
ATOM      4  C   UNL d   1     -47.205  13.002  23.468  0.00  0.00     0.100 A 
ATOM      5  C   UNL d   1     -46.416  12.901  23.264  0.00  0.00     0.100 A 
ATOM      6  C   UNL d   1     -46.756  13.037  21.885  0.00  0.00     0.100 A 
ENDROOT
BRANCH   1   7
ATOM      7  C   UNL d   1     -48.572  13.222  23.087  0.00  0.00     0.086 C 
BRANCH   7   8
ATOM      8  C   UNL d   1     -48.837  13.958  23.350  0.00  0.00     0.130 C 
BRANCH   8   9
ATOM      9  N   UNL d   1     -49.245  14.463  22.831  0.00  0.00    -0.155 NA
BRANCH   9  10
ATOM     10  S   UNL d   1     -49.555  15.173  23.105  0.00  0.00     0.286 S 
ATOM     11  O   UNL d   1     -48.806  15.386  23.388  0.00  0.00    -0.198 OA
ATOM     12  O   UNL d   1     -50.301  14.955  22.822  0.00  0.00    -0.198 OA
BRANCH  10  13
ATOM     13  C   UNL d   1     -49.869  15.883  23.379  0.00  0.00     0.117 C 
ATOM     14  C   UNL d   1     -50.664  15.921  23.622  0.00  0.00     0.014 C 
ENDBRANCH  10  13
ENDBRANCH   9  10
ENDBRANCH   8   9
ENDBRANCH   7   8
BRANCH   7  15
ATOM     15  C   UNL d   1     -49.099  12.593  23.027  0.00  0.00     0.037 A 
ATOM     16  C   UNL d   1     -49.295  12.156  23.698  0.00  0.00     0.100 A 
ATOM     17  N   UNL d   1     -49.826  11.523  23.638  0.00  0.00    -0.242 NA
ATOM     18  C   UNL d   1     -50.156  11.332  22.907  0.00  0.00     0.099 A 
ATOM     19  C   UNL d   1     -49.960  11.769  22.239  0.00  0.00     0.021 A 
ATOM     20  C   UNL d   1     -49.430  12.402  22.300  0.00  0.00     0.005 A 
ENDBRANCH   7  15
ENDBRANCH   1   7
BRANCH   2  21
ATOM     21  C   UNL d   1     -45.401  12.818  22.267  0.00  0.00     0.064 A 
ATOM     22  C   UNL d   1     -45.045  13.328  21.722  0.00  0.00     0.020 A 
ATOM     23  C   UNL d   1     -44.255  13.227  21.518  0.00  0.00     0.026 A 
ATOM     24  C   UNL d   1     -43.814  12.614  21.858  0.00  0.00     0.094 A 
ATOM     25  C   UNL d   1     -44.170  12.104  22.404  0.00  0.00     0.026 A 
ATOM     26  C   UNL d   1     -44.959  12.205  22.607  0.00  0.00     0.020 A 
BRANCH  24  27
ATOM     27  O   UNL d   1     -43.013  12.506  21.656  0.00  0.00    -0.328 OA
ATOM     28  C   UNL d   1     -42.600  13.091  21.231  0.00  0.00     0.181 C 
ENDBRANCH  24  27
ENDBRANCH   2  21
TORSDOF 8
ENDMDL
MODEL 2
REMARK VINA RESULT:      -4.9      1.262      2.417
REMARK  8 active torsions:
REMARK  status: ('A' for Active; 'I' for Inactive)
REMARK    1  A    between atoms: N_6  and  S_1 
REMARK    2  A    between atoms: C_18  and  S_1 
REMARK    3  A    between atoms: N_2  and  C_4 
REMARK    4  A    between atoms: C_7  and  N_3 
REMARK    5  A    between atoms: C_4  and  C_5 
REMARK    6  A    between atoms: C_10  and  C_4 
REMARK    7  A    between atoms: C_5  and  N_6 
REMARK    8  A    between atoms: O_23  and  C_19 
ROOT
ATOM      1  N   UNL d   1     -47.600  13.455  22.768  0.00  0.00    -0.300 N 
ATOM      2  N   UNL d   1     -46.036  13.170  22.340  0.00  0.00    -0.301 N 
ATOM      3  C   UNL d   1     -46.990  13.663  23.278  0.00  0.00     0.100 A 
ATOM      4  C   UNL d   1     -47.429  13.105  22.043  0.00  0.00     0.100 A 
ATOM      5  C   UNL d   1     -46.649  12.962  21.828  0.00  0.00     0.100 A 
ATOM      6  C   UNL d   1     -46.206  13.521  23.065  0.00  0.00     0.100 A 
ENDROOT
BRANCH   1   7
ATOM      7  C   UNL d   1     -48.389  13.601  22.989  0.00  0.00     0.086 C 
BRANCH   7   8
ATOM      8  C   UNL d   1     -48.818  13.019  23.387  0.00  0.00     0.130 C 
BRANCH   8   9
ATOM      9  N   UNL d   1     -49.169  12.398  22.961  0.00  0.00    -0.155 NA
BRANCH   9  10
ATOM     10  S   UNL d   1     -49.710  11.901  23.328  0.00  0.00     0.286 S 
ATOM     11  O   UNL d   1     -50.330  12.362  23.029  0.00  0.00    -0.198 OA
ATOM     12  O   UNL d   1     -49.088  11.444  23.625  0.00  0.00    -0.198 OA
BRANCH  10  13
ATOM     13  C   UNL d   1     -50.251  11.401  23.698  0.00  0.00     0.117 C 
ATOM     14  C   UNL d   1     -51.064  11.574  23.668  0.00  0.00     0.014 C 
ENDBRANCH  10  13
ENDBRANCH   9  10
ENDBRANCH   8   9
ENDBRANCH   7   8
BRANCH   7  15
ATOM     15  C   UNL d   1     -48.743  14.323  22.811  0.00  0.00     0.037 A 
ATOM     16  C   UNL d   1     -48.913  14.515  22.027  0.00  0.00     0.100 A 
ATOM     17  N   UNL d   1     -49.269  15.241  21.848  0.00  0.00    -0.242 NA
ATOM     18  C   UNL d   1     -49.453  15.769  22.455  0.00  0.00     0.099 A 
ATOM     19  C   UNL d   1     -49.283  15.576  23.234  0.00  0.00     0.021 A 
ATOM     20  C   UNL d   1     -48.927  14.850  23.413  0.00  0.00     0.005 A 
ENDBRANCH   7  15
ENDBRANCH   1   7
BRANCH   2  21
ATOM     21  C   UNL d   1     -45.256  13.027  22.125  0.00  0.00     0.064 A 
ATOM     22  C   UNL d   1     -44.814  13.618  21.750  0.00  0.00     0.020 A 
ATOM     23  C   UNL d   1     -44.034  13.474  21.535  0.00  0.00     0.026 A 
ATOM     24  C   UNL d   1     -43.689  12.738  21.692  0.00  0.00     0.094 A 
ATOM     25  C   UNL d   1     -44.131  12.147  22.067  0.00  0.00     0.026 A 
ATOM     26  C   UNL d   1     -44.910  12.290  22.282  0.00  0.00     0.020 A 
BRANCH  24  27
ATOM     27  O   UNL d   1     -42.898  12.586  21.477  0.00  0.00    -0.328 OA
ATOM     28  C   UNL d   1     -42.335  13.198  21.472  0.00  0.00     0.181 C 
ENDBRANCH  24  27
ENDBRANCH   2  21
TORSDOF 8
ENDMDL
MODEL 3
REMARK VINA RESULT:      -4.4      7.103      9.464
REMARK  8 active torsions:
REMARK  status: ('A' for Active; 'I' for Inactive)
REMARK    1  A    between atoms: N_6  and  S_1 
REMARK    2  A    between atoms: C_18  and  S_1 
REMARK    3  A    between atoms: N_2  and  C_4 
REMARK    4  A    between atoms: C_7  and  N_3 
REMARK    5  A    between atoms: C_4  and  C_5 
REMARK    6  A    between atoms: C_10  and  C_4 
REMARK    7  A    between atoms: C_5  and  N_6 
REMARK    8  A    between atoms: O_23  and  C_19 
ROOT
ATOM      1  N   UNL d   1     -39.485  14.796  19.718  0.00  0.00    -0.300 N 
ATOM      2  N   UNL d   1     -38.971  14.573  18.169  0.00  0.00    -0.301 N 
ATOM      3  C   UNL d   1     -39.521  14.050  19.377  0.00  0.00     0.100 A 
ATOM      4  C   UNL d   1     -39.192  15.432  19.286  0.00  0.00     0.100 A 
ATOM      5  C   UNL d   1     -38.935  15.322  18.513  0.00  0.00     0.100 A 
ATOM      6  C   UNL d   1     -39.264  13.937  18.601  0.00  0.00     0.100 A 
ENDROOT
BRANCH   1   7
ATOM      7  C   UNL d   1     -39.746  14.905  20.501  0.00  0.00     0.086 C 
BRANCH   7   8
ATOM      8  C   UNL d   1     -39.202  14.882  21.121  0.00  0.00     0.130 C 
BRANCH   8   9
ATOM      9  N   UNL d   1     -39.069  14.171  21.530  0.00  0.00    -0.155 NA
BRANCH   9  10
ATOM     10  S   UNL d   1     -38.518  14.144  22.139  0.00  0.00     0.286 S 
ATOM     11  O   UNL d   1     -38.588  14.964  22.234  0.00  0.00    -0.198 OA
ATOM     12  O   UNL d   1     -38.452  13.325  22.041  0.00  0.00    -0.198 OA
BRANCH  10  13
ATOM     13  C   UNL d   1     -37.966  14.112  22.750  0.00  0.00     0.117 C 
ATOM     14  C   UNL d   1     -38.211  14.220  23.538  0.00  0.00     0.014 C 
ENDBRANCH  10  13
ENDBRANCH   9  10
ENDBRANCH   8   9
ENDBRANCH   7   8
BRANCH   7  15
ATOM     15  C   UNL d   1     -40.544  15.035  20.658  0.00  0.00     0.037 A 
ATOM     16  C   UNL d   1     -41.082  14.414  20.592  0.00  0.00     0.100 A 
ATOM     17  N   UNL d   1     -41.884  14.544  20.751  0.00  0.00    -0.242 NA
ATOM     18  C   UNL d   1     -42.142  15.295  20.974  0.00  0.00     0.099 A 
ATOM     19  C   UNL d   1     -41.604  15.912  21.040  0.00  0.00     0.021 A 
ATOM     20  C   UNL d   1     -40.802  15.782  20.881  0.00  0.00     0.005 A 
ENDBRANCH   7  15
ENDBRANCH   1   7
BRANCH   2  21
ATOM     21  C   UNL d   1     -38.714  14.463  17.397  0.00  0.00     0.064 A 
ATOM     22  C   UNL d   1     -38.268  13.796  17.199  0.00  0.00     0.020 A 
ATOM     23  C   UNL d   1     -38.011  13.687  16.426  0.00  0.00     0.026 A 
ATOM     24  C   UNL d   1     -38.199  14.245  15.843  0.00  0.00     0.094 A 
ATOM     25  C   UNL d   1     -38.645  14.913  16.042  0.00  0.00     0.026 A 
ATOM     26  C   UNL d   1     -38.901  15.022  16.814  0.00  0.00     0.020 A 
BRANCH  24  27
ATOM     27  O   UNL d   1     -37.941  14.140  15.058  0.00  0.00    -0.328 OA
ATOM     28  C   UNL d   1     -38.246  13.523  14.590  0.00  0.00     0.181 C 
ENDBRANCH  24  27
ENDBRANCH   2  21
TORSDOF 8
ENDMDL
MODEL 4
REMARK VINA RESULT:      -4.1      5.844      9.025
REMARK  8 active torsions:
REMARK  status: ('A' for Active; 'I' for Inactive)
REMARK    1  A    between atoms: N_6  and  S_1 
REMARK    2  A    between atoms: C_18  and  S_1 
REMARK    3  A    between atoms: N_2  and  C_4 
REMARK    4  A    between atoms: C_7  and  N_3 
REMARK    5  A    between atoms: C_4  and  C_5 
REMARK    6  A    between atoms: C_10  and  C_4 
REMARK    7  A    between atoms: C_5  and  N_6 
REMARK    8  A    between atoms: O_23  and  C_19 
ROOT
ATOM      1  N   UNL d   1     -39.763  14.770  19.883  0.00  0.00    -0.300 N 
ATOM      2  N   UNL d   1     -39.159  14.681  18.354  0.00  0.00    -0.301 N 
ATOM      3  C   UNL d   1     -39.365  14.095  19.638  0.00  0.00     0.100 A 
ATOM      4  C   UNL d   1     -39.860  15.402  19.365  0.00  0.00     0.100 A 
ATOM      5  C   UNL d   1     -39.559  15.359  18.601  0.00  0.00     0.100 A 
ATOM      6  C   UNL d   1     -39.062  14.049  18.872  0.00  0.00     0.100 A 
ENDROOT
BRANCH   1   7
ATOM      7  C   UNL d   1     -40.067  14.812  20.657  0.00  0.00     0.086 C 
BRANCH   7   8
ATOM      8  C   UNL d   1     -40.871  14.681  20.789  0.00  0.00     0.130 C 
BRANCH   8   9
ATOM      9  N   UNL d   1     -41.155  13.907  20.887  0.00  0.00    -0.155 NA
BRANCH   9  10
ATOM     10  S   UNL d   1     -41.937  13.779  21.107  0.00  0.00     0.286 S 
ATOM     11  O   UNL d   1     -41.762  12.982  21.250  0.00  0.00    -0.198 OA
ATOM     12  O   UNL d   1     -42.106  14.576  20.962  0.00  0.00    -0.198 OA
BRANCH  10  13
ATOM     13  C   UNL d   1     -42.721  13.655  21.326  0.00  0.00     0.117 C 
ATOM     14  C   UNL d   1     -43.093  12.932  21.148  0.00  0.00     0.014 C 
ENDBRANCH  10  13
ENDBRANCH   9  10
ENDBRANCH   8   9
ENDBRANCH   7   8
BRANCH   7  15
ATOM     15  C   UNL d   1     -39.569  14.981  21.290  0.00  0.00     0.037 A 
ATOM     16  C   UNL d   1     -39.096  14.387  21.612  0.00  0.00     0.100 A 
ATOM     17  N   UNL d   1     -38.595  14.558  22.248  0.00  0.00    -0.242 NA
ATOM     18  C   UNL d   1     -38.571  15.322  22.559  0.00  0.00     0.099 A 
ATOM     19  C   UNL d   1     -39.042  15.912  22.237  0.00  0.00     0.021 A 
ATOM     20  C   UNL d   1     -39.543  15.741  21.600  0.00  0.00     0.005 A 
ENDBRANCH   7  15
ENDBRANCH   1   7
BRANCH   2  21
ATOM     21  C   UNL d   1     -38.859  14.638  17.591  0.00  0.00     0.064 A 
ATOM     22  C   UNL d   1     -39.113  14.041  17.078  0.00  0.00     0.020 A 
ATOM     23  C   UNL d   1     -38.812  13.999  16.314  0.00  0.00     0.026 A 
ATOM     24  C   UNL d   1     -38.253  14.554  16.056  0.00  0.00     0.094 A 
ATOM     25  C   UNL d   1     -37.999  15.151  16.570  0.00  0.00     0.026 A 
ATOM     26  C   UNL d   1     -38.299  15.193  17.332  0.00  0.00     0.020 A 
BRANCH  24  27
ATOM     27  O   UNL d   1     -37.944  14.516  15.284  0.00  0.00    -0.328 OA
ATOM     28  C   UNL d   1     -37.944  13.799  14.861  0.00  0.00     0.181 C 
ENDBRANCH  24  27
ENDBRANCH   2  21
TORSDOF 8
ENDMDL
MODEL 5
REMARK VINA RESULT:      -2.7      1.533      2.674
REMARK  8 active torsions:
REMARK  status: ('A' for Active; 'I' for Inactive)
REMARK    1  A    between atoms: N_6  and  S_1 
REMARK    2  A    between atoms: C_18  and  S_1 
REMARK    3  A    between atoms: N_2  and  C_4 
REMARK    4  A    between atoms: C_7  and  N_3 
REMARK    5  A    between atoms: C_4  and  C_5 
REMARK    6  A    between atoms: C_10  and  C_4 
REMARK    7  A    between atoms: C_5  and  N_6 
REMARK    8  A    between atoms: O_23  and  C_19 
ROOT
ATOM      1  N   UNL d   1     -47.737  13.247  23.033  0.00  0.00    -0.300 N 
ATOM      2  N   UNL d   1     -46.341  12.374  23.045  0.00  0.00    -0.301 N 
ATOM      3  C   UNL d   1     -47.244  13.270  23.690  0.00  0.00     0.100 A 
ATOM      4  C   UNL d   1     -47.533  12.788  22.381  0.00  0.00     0.100 A 
ATOM      5  C   UNL d   1     -46.837  12.352  22.386  0.00  0.00     0.100 A 
ATOM      6  C   UNL d   1     -46.545  12.833  23.697  0.00  0.00     0.100 A 
ENDROOT
BRANCH   1   7
ATOM      7  C   UNL d   1     -48.442  13.690  23.031  0.00  0.00     0.086 C 
BRANCH   7   8
ATOM      8  C   UNL d   1     -49.115  13.391  23.403  0.00  0.00     0.130 C 
BRANCH   8   9
ATOM      9  N   UNL d   1     -49.719  13.043  22.951  0.00  0.00    -0.155 NA
BRANCH   9  10
ATOM     10  S   UNL d   1     -50.278  12.560  23.312  0.00  0.00     0.286 S 
ATOM     11  O   UNL d   1     -50.882  12.994  22.947  0.00  0.00    -0.198 OA
ATOM     12  O   UNL d   1     -49.670  12.131  23.675  0.00  0.00    -0.198 OA
BRANCH  10  13
ATOM     13  C   UNL d   1     -50.835  12.075  23.675  0.00  0.00     0.117 C 
ATOM     14  C   UNL d   1     -50.717  11.251  23.698  0.00  0.00     0.014 C 
ENDBRANCH  10  13
ENDBRANCH   9  10
ENDBRANCH   8   9
ENDBRANCH   7   8
BRANCH   7  15
ATOM     15  C   UNL d   1     -48.470  14.424  22.659  0.00  0.00     0.037 A 
ATOM     16  C   UNL d   1     -48.546  14.467  21.839  0.00  0.00     0.100 A 
ATOM     17  N   UNL d   1     -48.575  15.205  21.466  0.00  0.00    -0.242 NA
ATOM     18  C   UNL d   1     -48.526  15.895  21.915  0.00  0.00     0.099 A 
ATOM     19  C   UNL d   1     -48.450  15.851  22.731  0.00  0.00     0.021 A 
ATOM     20  C   UNL d   1     -48.422  15.112  23.105  0.00  0.00     0.005 A 
ENDBRANCH   7  15
ENDBRANCH   1   7
BRANCH   2  21
ATOM     21  C   UNL d   1     -45.646  11.938  23.049  0.00  0.00     0.064 A 
ATOM     22  C   UNL d   1     -45.001  12.181  22.592  0.00  0.00     0.020 A 
ATOM     23  C   UNL d   1     -44.305  11.744  22.596  0.00  0.00     0.026 A 
ATOM     24  C   UNL d   1     -44.247  11.059  23.059  0.00  0.00     0.094 A 
ATOM     25  C   UNL d   1     -44.892  10.816  23.516  0.00  0.00     0.026 A 
ATOM     26  C   UNL d   1     -45.587  11.252  23.512  0.00  0.00     0.020 A 
BRANCH  24  27
ATOM     27  O   UNL d   1     -43.544  10.612  23.068  0.00  0.00    -0.328 OA
ATOM     28  C   UNL d   1     -43.419  10.028  23.647  0.00  0.00     0.181 C 
ENDBRANCH  24  27
ENDBRANCH   2  21
TORSDOF 8
ENDMDL
