MODEL 1
REMARK VINA RESULT:      -8.7      0.000      0.000
REMARK  4 active torsions:
REMARK  status: ('A' for Active; 'I' for Inactive)
REMARK    1  A    between atoms: C_3  and  N_1 
REMARK       I    between atoms: C_2  and  N_5 
REMARK       I    between atoms: N_4  and  C_2 
REMARK    2  A    between atoms: C_17  and  N_4 
REMARK    3  A    between atoms: N_5  and  C_16 
REMARK    4  A    between atoms: C_8  and  C_9 
ROOT
ATOM      1  C   UNL d   1      52.912  32.308  53.130  0.00  0.00     0.369 C 
ATOM      2  N   UNL d   1      52.930  31.557  52.743  0.00  0.00    -0.191 NA
ATOM      3  N   UNL d   1      52.824  32.986  52.706  0.00  0.00    -0.191 NA
ATOM      4  O   UNL d   1      52.986  32.312  53.945  0.00  0.00    -0.242 OA
ENDROOT
BRANCH   3   5
ATOM      5  C   UNL d   1      52.810  33.720  53.130  0.00  0.00     0.086 A 
ATOM      6  C   UNL d   1      53.505  34.023  53.462  0.00  0.00     0.021 A 
ATOM      7  C   UNL d   1      53.506  34.737  53.879  0.00  0.00     0.025 A 
ATOM      8  C   UNL d   1      52.789  35.127  53.946  0.00  0.00     0.127 A 
ATOM      9  C   UNL d   1      52.061  34.848  53.620  0.00  0.00     0.025 A 
ATOM     10  C   UNL d   1      52.107  34.132  53.213  0.00  0.00     0.021 A 
BRANCH   8  11
ATOM     11  N   UNL d   1      52.793  35.886  54.389  0.00  0.00    -0.114 N 
ATOM     12  O   UNL d   1      52.111  36.118  54.787  0.00  0.00    -0.532 OA
ATOM     13  O   UNL d   1      53.476  36.356  54.403  0.00  0.00    -0.532 OA
ENDBRANCH   8  11
ENDBRANCH   3   5
BRANCH   2  14
ATOM     14  C   UNL d   1      53.019  30.856  53.164  0.00  0.00     0.086 A 
ATOM     15  C   UNL d   1      52.370  30.359  53.278  0.00  0.00     0.019 A 
ATOM     16  C   UNL d   1      52.456  29.669  53.691  0.00  0.00     0.005 A 
ATOM     17  C   UNL d   1      53.201  29.437  54.017  0.00  0.00     0.039 A 
ATOM     18  C   UNL d   1      53.836  29.941  53.895  0.00  0.00     0.005 A 
ATOM     19  C   UNL d   1      53.746  30.647  53.471  0.00  0.00     0.019 A 
BRANCH  17  20
ATOM     20  C   UNL d   1      53.311  28.759  54.430  0.00  0.00     0.196 C 
ATOM     21  O   UNL d   1      53.363  28.053  54.048  0.00  0.00    -0.287 OA
ATOM     22  C   UNL d   1      53.373  28.771  55.246  0.00  0.00     0.045 C 
ENDBRANCH  17  20
ENDBRANCH   2  14
TORSDOF 4
ENDMDL
MODEL 2
REMARK VINA RESULT:      -8.4      1.847      2.251
REMARK  4 active torsions:
REMARK  status: ('A' for Active; 'I' for Inactive)
REMARK    1  A    between atoms: C_3  and  N_1 
REMARK       I    between atoms: C_2  and  N_5 
REMARK       I    between atoms: N_4  and  C_2 
REMARK    2  A    between atoms: C_17  and  N_4 
REMARK    3  A    between atoms: N_5  and  C_16 
REMARK    4  A    between atoms: C_8  and  C_9 
ROOT
ATOM      1  C   UNL d   1      52.254  32.851  52.850  0.00  0.00     0.369 C 
ATOM      2  N   UNL d   1      52.989  32.434  52.842  0.00  0.00    -0.191 NA
ATOM      3  N   UNL d   1      52.205  33.602  52.566  0.00  0.00    -0.191 NA
ATOM      4  O   UNL d   1      51.604  32.458  53.156  0.00  0.00    -0.242 OA
ENDROOT
BRANCH   3   5
ATOM      5  C   UNL d   1      51.450  33.987  52.591  0.00  0.00     0.086 A 
ATOM      6  C   UNL d   1      51.183  34.338  53.291  0.00  0.00     0.021 A 
ATOM      7  C   UNL d   1      50.450  34.716  53.330  0.00  0.00     0.025 A 
ATOM      8  C   UNL d   1      50.002  34.726  52.644  0.00  0.00     0.127 A 
ATOM      9  C   UNL d   1      50.241  34.378  51.912  0.00  0.00     0.025 A 
ATOM     10  C   UNL d   1      50.981  34.011  51.920  0.00  0.00     0.021 A 
BRANCH   8  11
ATOM     11  N   UNL d   1      49.223  35.128  52.688  0.00  0.00    -0.114 N 
ATOM     12  O   UNL d   1      48.661  34.975  52.105  0.00  0.00    -0.532 OA
ATOM     13  O   UNL d   1      49.059  35.653  53.309  0.00  0.00    -0.532 OA
ENDBRANCH   8  11
ENDBRANCH   3   5
BRANCH   2  14
ATOM     14  C   UNL d   1      53.053  31.666  53.129  0.00  0.00     0.086 A 
ATOM     15  C   UNL d   1      53.409  31.528  53.861  0.00  0.00     0.019 A 
ATOM     16  C   UNL d   1      53.473  30.773  54.144  0.00  0.00     0.005 A 
ATOM     17  C   UNL d   1      53.183  30.109  53.708  0.00  0.00     0.039 A 
ATOM     18  C   UNL d   1      52.832  30.262  52.983  0.00  0.00     0.005 A 
ATOM     19  C   UNL d   1      52.768  31.037  52.695  0.00  0.00     0.019 A 
BRANCH  17  20
ATOM     20  C   UNL d   1      53.235  29.353  53.967  0.00  0.00     0.196 C 
ATOM     21  O   UNL d   1      52.849  28.762  53.582  0.00  0.00    -0.287 OA
ATOM     22  C   UNL d   1      53.680  29.166  54.628  0.00  0.00     0.045 C 
ENDBRANCH  17  20
ENDBRANCH   2  14
TORSDOF 4
ENDMDL
MODEL 3
REMARK VINA RESULT:      -8.2      1.752      5.251
REMARK  4 active torsions:
REMARK  status: ('A' for Active; 'I' for Inactive)
REMARK    1  A    between atoms: C_3  and  N_1 
REMARK       I    between atoms: C_2  and  N_5 
REMARK       I    between atoms: N_4  and  C_2 
REMARK    2  A    between atoms: C_17  and  N_4 
REMARK    3  A    between atoms: N_5  and  C_16 
REMARK    4  A    between atoms: C_8  and  C_9 
ROOT
ATOM      1  C   UNL d   1      52.338  32.587  52.848  0.00  0.00     0.369 C 
ATOM      2  N   UNL d   1      52.252  33.352  52.501  0.00  0.00    -0.191 NA
ATOM      3  N   UNL d   1      53.036  32.190  52.797  0.00  0.00    -0.191 NA
ATOM      4  O   UNL d   1      51.687  32.275  53.234  0.00  0.00    -0.242 OA
ENDROOT
BRANCH   3   5
ATOM      5  C   UNL d   1      53.083  31.424  53.159  0.00  0.00     0.086 A 
ATOM      6  C   UNL d   1      52.726  30.770  52.800  0.00  0.00     0.021 A 
ATOM      7  C   UNL d   1      52.763  30.019  53.140  0.00  0.00     0.025 A 
ATOM      8  C   UNL d   1      53.170  29.954  53.849  0.00  0.00     0.127 A 
ATOM      9  C   UNL d   1      53.546  30.598  54.244  0.00  0.00     0.025 A 
ATOM     10  C   UNL d   1      53.483  31.330  53.867  0.00  0.00     0.021 A 
BRANCH   8  11
ATOM     11  N   UNL d   1      53.208  29.153  54.209  0.00  0.00    -0.114 N 
ATOM     12  O   UNL d   1      53.158  28.493  53.718  0.00  0.00    -0.532 OA
ATOM     13  O   UNL d   1      53.293  29.069  55.029  0.00  0.00    -0.532 OA
ENDBRANCH   8  11
ENDBRANCH   3   5
BRANCH   2  14
ATOM     14  C   UNL d   1      51.545  33.771  52.545  0.00  0.00     0.086 A 
ATOM     15  C   UNL d   1      51.045  33.804  51.890  0.00  0.00     0.019 A 
ATOM     16  C   UNL d   1      50.349  34.215  51.932  0.00  0.00     0.005 A 
ATOM     17  C   UNL d   1      50.114  34.618  52.638  0.00  0.00     0.039 A 
ATOM     18  C   UNL d   1      50.621  34.575  53.280  0.00  0.00     0.005 A 
ATOM     19  C   UNL d   1      51.334  34.154  53.234  0.00  0.00     0.019 A 
BRANCH  17  20
ATOM     20  C   UNL d   1      49.431  35.031  52.704  0.00  0.00     0.196 C 
ATOM     21  O   UNL d   1      49.307  35.517  53.333  0.00  0.00    -0.287 OA
ATOM     22  C   UNL d   1      48.845  34.967  52.136  0.00  0.00     0.045 C 
ENDBRANCH  17  20
ENDBRANCH   2  14
TORSDOF 4
ENDMDL
MODEL 4
REMARK VINA RESULT:      -8.0      0.893      5.180
REMARK  4 active torsions:
REMARK  status: ('A' for Active; 'I' for Inactive)
REMARK    1  A    between atoms: C_3  and  N_1 
REMARK       I    between atoms: C_2  and  N_5 
REMARK       I    between atoms: N_4  and  C_2 
REMARK    2  A    between atoms: C_17  and  N_4 
REMARK    3  A    between atoms: N_5  and  C_16 
REMARK    4  A    between atoms: C_8  and  C_9 
ROOT
ATOM      1  C   UNL d   1      52.986  32.094  53.175  0.00  0.00     0.369 C 
ATOM      2  N   UNL d   1      52.910  32.827  52.763  0.00  0.00    -0.191 NA
ATOM      3  N   UNL d   1      52.972  31.396  52.775  0.00  0.00    -0.191 NA
ATOM      4  O   UNL d   1      53.071  32.128  53.988  0.00  0.00    -0.242 OA
ENDROOT
BRANCH   3   5
ATOM      5  C   UNL d   1      53.051  30.681  53.224  0.00  0.00     0.086 A 
ATOM      6  C   UNL d   1      53.785  30.463  53.537  0.00  0.00     0.021 A 
ATOM      7  C   UNL d   1      53.877  29.770  53.976  0.00  0.00     0.025 A 
ATOM      8  C   UNL d   1      53.207  29.310  54.086  0.00  0.00     0.127 A 
ATOM      9  C   UNL d   1      52.442  29.501  53.783  0.00  0.00     0.025 A 
ATOM     10  C   UNL d   1      52.399  30.202  53.350  0.00  0.00     0.021 A 
BRANCH   8  11
ATOM     11  N   UNL d   1      53.308  28.574  54.554  0.00  0.00    -0.114 N 
ATOM     12  O   UNL d   1      53.437  27.863  54.156  0.00  0.00    -0.532 OA
ATOM     13  O   UNL d   1      53.273  28.597  55.382  0.00  0.00    -0.532 OA
ENDBRANCH   8  11
ENDBRANCH   3   5
BRANCH   2  14
ATOM     14  C   UNL d   1      52.922  33.549  53.158  0.00  0.00     0.086 A 
ATOM     15  C   UNL d   1      52.263  34.046  53.127  0.00  0.00     0.019 A 
ATOM     16  C   UNL d   1      52.274  34.756  53.516  0.00  0.00     0.005 A 
ATOM     17  C   UNL d   1      52.948  35.009  53.960  0.00  0.00     0.039 A 
ATOM     18  C   UNL d   1      53.593  34.504  53.981  0.00  0.00     0.005 A 
ATOM     19  C   UNL d   1      53.580  33.777  53.582  0.00  0.00     0.019 A 
BRANCH  17  20
ATOM     20  C   UNL d   1      52.982  35.706  54.353  0.00  0.00     0.196 C 
ATOM     21  O   UNL d   1      53.439  36.307  54.078  0.00  0.00    -0.287 OA
ATOM     22  C   UNL d   1      52.552  35.822  55.040  0.00  0.00     0.045 C 
ENDBRANCH  17  20
ENDBRANCH   2  14
TORSDOF 4
ENDMDL
MODEL 5
REMARK VINA RESULT:      -6.8      3.181      5.378
REMARK  4 active torsions:
REMARK  status: ('A' for Active; 'I' for Inactive)
REMARK    1  A    between atoms: C_3  and  N_1 
REMARK       I    between atoms: C_2  and  N_5 
REMARK       I    between atoms: N_4  and  C_2 
REMARK    2  A    between atoms: C_17  and  N_4 
REMARK    3  A    between atoms: N_5  and  C_16 
REMARK    4  A    between atoms: C_8  and  C_9 
ROOT
ATOM      1  C   UNL d   1      50.800  34.281  52.322  0.00  0.00     0.369 C 
ATOM      2  N   UNL d   1      50.261  34.157  51.683  0.00  0.00    -0.191 NA
ATOM      3  N   UNL d   1      51.525  33.932  52.322  0.00  0.00    -0.191 NA
ATOM      4  O   UNL d   1      50.551  34.767  52.932  0.00  0.00    -0.242 OA
ENDROOT
BRANCH   3   5
ATOM      5  C   UNL d   1      52.037  34.081  52.981  0.00  0.00     0.086 A 
ATOM      6  C   UNL d   1      52.445  34.798  53.039  0.00  0.00     0.021 A 
ATOM      7  C   UNL d   1      52.947  34.958  53.675  0.00  0.00     0.025 A 
ATOM      8  C   UNL d   1      53.020  34.373  54.244  0.00  0.00     0.127 A 
ATOM      9  C   UNL d   1      52.619  33.629  54.218  0.00  0.00     0.025 A 
ATOM     10  C   UNL d   1      52.129  33.514  53.565  0.00  0.00     0.021 A 
BRANCH   8  11
ATOM     11  N   UNL d   1      53.554  34.545  54.919  0.00  0.00    -0.114 N 
ATOM     12  O   UNL d   1      54.273  34.144  54.971  0.00  0.00    -0.532 OA
ATOM     13  O   UNL d   1      53.335  35.101  55.493  0.00  0.00    -0.532 OA
ENDBRANCH   8  11
ENDBRANCH   3   5
BRANCH   2  14
ATOM     14  C   UNL d   1      49.517  34.507  51.670  0.00  0.00     0.086 A 
ATOM     15  C   UNL d   1      49.082  34.524  50.969  0.00  0.00     0.019 A 
ATOM     16  C   UNL d   1      48.350  34.868  50.955  0.00  0.00     0.005 A 
ATOM     17  C   UNL d   1      48.010  35.217  51.647  0.00  0.00     0.039 A 
ATOM     18  C   UNL d   1      48.454  35.192  52.335  0.00  0.00     0.005 A 
ATOM     19  C   UNL d   1      49.204  34.839  52.347  0.00  0.00     0.019 A 
BRANCH  17  20
ATOM     20  C   UNL d   1      47.288  35.563  51.658  0.00  0.00     0.196 C 
ATOM     21  O   UNL d   1      46.672  35.233  51.261  0.00  0.00    -0.287 OA
ATOM     22  C   UNL d   1      47.163  36.258  52.071  0.00  0.00     0.045 C 
ENDBRANCH  17  20
ENDBRANCH   2  14
TORSDOF 4
ENDMDL
MODEL 6
REMARK VINA RESULT:      -6.8      3.306      4.812
REMARK  4 active torsions:
REMARK  status: ('A' for Active; 'I' for Inactive)
REMARK    1  A    between atoms: C_3  and  N_1 
REMARK       I    between atoms: C_2  and  N_5 
REMARK       I    between atoms: N_4  and  C_2 
REMARK    2  A    between atoms: C_17  and  N_4 
REMARK    3  A    between atoms: N_5  and  C_16 
REMARK    4  A    between atoms: C_8  and  C_9 
ROOT
ATOM      1  C   UNL d   1      50.664  34.314  52.248  0.00  0.00     0.369 C 
ATOM      2  N   UNL d   1      51.434  33.967  52.257  0.00  0.00    -0.191 NA
ATOM      3  N   UNL d   1      50.180  34.221  51.612  0.00  0.00    -0.191 NA
ATOM      4  O   UNL d   1      50.437  34.740  52.909  0.00  0.00    -0.242 OA
ENDROOT
BRANCH   3   5
ATOM      5  C   UNL d   1      49.414  34.584  51.642  0.00  0.00     0.086 A 
ATOM      6  C   UNL d   1      49.129  34.901  52.350  0.00  0.00     0.021 A 
ATOM      7  C   UNL d   1      48.385  35.257  52.394  0.00  0.00     0.025 A 
ATOM      8  C   UNL d   1      47.945  35.281  51.703  0.00  0.00     0.127 A 
ATOM      9  C   UNL d   1      48.203  34.968  50.962  0.00  0.00     0.025 A 
ATOM     10  C   UNL d   1      48.953  34.622  50.966  0.00  0.00     0.021 A 
BRANCH   8  11
ATOM     11  N   UNL d   1      47.154  35.660  51.752  0.00  0.00    -0.114 N 
ATOM     12  O   UNL d   1      46.509  35.281  51.407  0.00  0.00    -0.532 OA
ATOM     13  O   UNL d   1      47.064  36.387  52.139  0.00  0.00    -0.532 OA
ENDBRANCH   8  11
ENDBRANCH   3   5
BRANCH   2  14
ATOM     14  C   UNL d   1      51.940  34.053  52.901  0.00  0.00     0.086 A 
ATOM     15  C   UNL d   1      52.033  33.432  53.436  0.00  0.00     0.019 A 
ATOM     16  C   UNL d   1      52.530  33.516  54.070  0.00  0.00     0.005 A 
ATOM     17  C   UNL d   1      52.964  34.230  54.203  0.00  0.00     0.039 A 
ATOM     18  C   UNL d   1      52.860  34.836  53.662  0.00  0.00     0.005 A 
ATOM     19  C   UNL d   1      52.351  34.749  53.014  0.00  0.00     0.019 A 
BRANCH  17  20
ATOM     20  C   UNL d   1      53.461  34.335  54.822  0.00  0.00     0.196 C 
ATOM     21  O   UNL d   1      53.372  34.966  55.312  0.00  0.00    -0.287 OA
ATOM     22  C   UNL d   1      54.067  33.806  54.968  0.00  0.00     0.045 C 
ENDBRANCH  17  20
ENDBRANCH   2  14
TORSDOF 4
ENDMDL
