MODEL 1
REMARK VINA RESULT:      48.3      0.000      0.000
REMARK  5 active torsions:
REMARK  status: ('A' for Active; 'I' for Inactive)
REMARK    1  A    between atoms: N_10  and  C_4 
REMARK    2  A    between atoms: C_20  and  N_5 
REMARK    3  A    between atoms: C_12  and  S_19 
REMARK    4  A    between atoms: S_19  and  C_23 
REMARK    5  A    between atoms: C_23  and  C_20 
ROOT
ATOM      1  C   UNL d   1      46.316 -18.931  43.123  0.00  0.00     0.191 A 
ATOM      2  C   UNL d   1      46.301 -18.162  43.419  0.00  0.00     0.174 A 
ATOM      3  N   UNL d   1      46.203 -18.890  42.310  0.00  0.00    -0.042 NA
ATOM      4  C   UNL d   1      46.119 -18.105  42.102  0.00  0.00     0.722 A 
ATOM      5  N   UNL d   1      46.179 -17.646  42.789  0.00  0.00    -0.132 N 
ATOM      6  N   UNL d   1      46.431 -19.568  43.636  0.00  0.00    -0.239 N 
ATOM      7  C   UNL d   1      46.531 -19.436  44.444  0.00  0.00     0.358 A 
ATOM      8  N   UNL d   1      46.516 -18.667  44.740  0.00  0.00    -0.152 NA
ATOM      9  C   UNL d   1      46.401 -18.029  44.228  0.00  0.00     0.303 A 
ATOM     10  O   UNL d   1      46.645 -20.077  44.954  0.00  0.00    -0.244 OA
ATOM     11  O   UNL d   1      46.387 -17.260  44.524  0.00  0.00    -0.263 OA
ATOM     12  C   UNL d   1      46.445 -20.329  43.342  0.00  0.00     0.105 C 
ENDROOT
BRANCH   5  13
ATOM     13  C   UNL d   1      46.127 -16.821  42.835  0.00  0.00     0.105 C 
BRANCH  13  14
ATOM     14  C   UNL d   1      45.798 -16.462  43.507  0.00  0.00     0.058 C 
BRANCH  14  15
ATOM     15  S   UNL d   1      46.245 -15.901  43.937  0.00  0.00    -0.041 SA
BRANCH  15  16
ATOM     16  C   UNL d   1      45.966 -15.124  43.993  0.00  0.00     0.215 A 
ATOM     17  N   UNL d   1      46.221 -14.630  44.593  0.00  0.00    -0.214 NA
ATOM     18  C   UNL d   1      45.855 -13.911  44.505  0.00  0.00     0.107 A 
ATOM     19  C   UNL d   1      45.910 -13.215  44.954  0.00  0.00     0.021 A 
ATOM     20  C   UNL d   1      45.370 -13.939  43.858  0.00  0.00     0.120 A 
ATOM     21  C   UNL d   1      45.466 -12.549  44.736  0.00  0.00     0.002 A 
ATOM     22  C   UNL d   1      44.982 -12.581  44.088  0.00  0.00     0.002 A 
ATOM     23  C   UNL d   1      44.933 -13.278  43.647  0.00  0.00     0.026 A 
ATOM     24  O   UNL d   1      45.436 -14.703  43.531  0.00  0.00    -0.283 OA
ENDBRANCH  15  16
ENDBRANCH  14  15
ENDBRANCH  13  14
ENDBRANCH   5  13
BRANCH   4  25
ATOM     25  N   UNL d   1      45.997 -17.854  41.330  0.00  0.00    -0.139 N 
ATOM     26  C   UNL d   1      45.230 -17.771  41.044  0.00  0.00     0.098 A 
ATOM     27  C   UNL d   1      45.098 -17.519  40.269  0.00  0.00     0.018 A 
ATOM     28  C   UNL d   1      44.332 -17.428  39.960  0.00  0.00     0.002 C 
ATOM     29  C   UNL d   1      45.736 -17.350  39.780  0.00  0.00     0.003 A 
ATOM     30  C   UNL d   1      46.511 -17.432  40.061  0.00  0.00     0.020 A 
ATOM     31  C   UNL d   1      46.636 -17.687  40.846  0.00  0.00     0.098 A 
ENDBRANCH   4  25
TORSDOF 5
ENDMDL
