MODEL 1
REMARK VINA RESULT:      -5.5      0.000      0.000
REMARK  2 active torsions:
REMARK  status: ('A' for Active; 'I' for Inactive)
REMARK    1  A    between atoms: C_12  and  C_4 
REMARK    2  A    between atoms: O_14  and  C_10 
ROOT
ATOM      1  C   UNL d   1      58.438  -0.755  29.731  0.00  0.00     0.101 A 
ATOM      2  C   UNL d   1      58.268  -0.003  30.031  0.00  0.00     0.203 A 
ATOM      3  C   UNL d   1      57.757   0.071  30.676  0.00  0.00     0.067 A 
ATOM      4  C   UNL d   1      57.423  -0.592  31.015  0.00  0.00     0.103 A 
ATOM      5  C   UNL d   1      58.103  -1.419  30.070  0.00  0.00     0.108 A 
ATOM      6  O   UNL d   1      57.592  -1.343  30.716  0.00  0.00    -0.307 OA
ATOM      7  C   UNL d   1      58.946  -0.827  29.088  0.00  0.00     0.203 A 
ATOM      8  C   UNL d   1      58.270  -2.167  29.774  0.00  0.00     0.049 A 
ATOM      9  C   UNL d   1      59.124  -1.589  28.778  0.00  0.00     0.066 A 
ATOM     10  C   UNL d   1      58.789  -2.252  29.117  0.00  0.00     0.099 A 
ATOM     11  O   UNL d   1      58.612   0.680  29.682  0.00  0.00    -0.286 OA
ATOM     12  O   UNL d   1      59.290  -0.145  28.739  0.00  0.00    -0.286 OA
ENDROOT
BRANCH   4  13
ATOM     13  C   UNL d   1      56.917  -0.522  31.654  0.00  0.00     0.023 A 
ATOM     14  C   UNL d   1      56.715   0.230  31.927  0.00  0.00     0.002 A 
ATOM     15  C   UNL d   1      56.207   0.302  32.569  0.00  0.00     0.000 A 
ATOM     16  C   UNL d   1      55.900  -0.371  32.938  0.00  0.00     0.000 A 
ATOM     17  C   UNL d   1      56.099  -1.124  32.669  0.00  0.00     0.000 A 
ATOM     18  C   UNL d   1      56.610  -1.196  32.023  0.00  0.00     0.002 A 
ENDBRANCH   4  13
BRANCH  10  19
ATOM     19  O   UNL d   1      58.955  -3.030  28.819  0.00  0.00    -0.328 OA
ATOM     20  C   UNL d   1      59.665  -3.396  28.995  0.00  0.00     0.181 C 
ENDBRANCH  10  19
TORSDOF 2
ENDMDL
MODEL 2
REMARK VINA RESULT:      -5.2      1.649      3.101
REMARK  2 active torsions:
REMARK  status: ('A' for Active; 'I' for Inactive)
REMARK    1  A    between atoms: C_12  and  C_4 
REMARK    2  A    between atoms: O_14  and  C_10 
ROOT
ATOM      1  C   UNL d   1      56.829  -0.816  31.792  0.00  0.00     0.101 A 
ATOM      2  C   UNL d   1      56.319  -1.313  32.215  0.00  0.00     0.203 A 
ATOM      3  C   UNL d   1      55.900  -1.011  32.859  0.00  0.00     0.067 A 
ATOM      4  C   UNL d   1      55.987  -0.228  33.077  0.00  0.00     0.103 A 
ATOM      5  C   UNL d   1      56.916  -0.034  32.010  0.00  0.00     0.108 A 
ATOM      6  O   UNL d   1      56.495   0.267  32.656  0.00  0.00    -0.307 OA
ATOM      7  C   UNL d   1      57.246  -1.119  31.151  0.00  0.00     0.203 A 
ATOM      8  C   UNL d   1      57.421   0.461  31.592  0.00  0.00     0.049 A 
ATOM      9  C   UNL d   1      57.766  -0.620  30.716  0.00  0.00     0.066 A 
ATOM     10  C   UNL d   1      57.853   0.162  30.934  0.00  0.00     0.099 A 
ATOM     11  O   UNL d   1      56.230  -2.117  31.990  0.00  0.00    -0.286 OA
ATOM     12  O   UNL d   1      57.156  -1.923  30.926  0.00  0.00    -0.286 OA
ENDROOT
BRANCH   4  13
ATOM     13  C   UNL d   1      55.573   0.074  33.715  0.00  0.00     0.023 A 
ATOM     14  C   UNL d   1      55.940   0.106  34.454  0.00  0.00     0.002 A 
ATOM     15  C   UNL d   1      55.526   0.410  35.096  0.00  0.00     0.000 A 
ATOM     16  C   UNL d   1      54.750   0.681  35.003  0.00  0.00     0.000 A 
ATOM     17  C   UNL d   1      54.381   0.651  34.268  0.00  0.00     0.000 A 
ATOM     18  C   UNL d   1      54.797   0.345  33.622  0.00  0.00     0.002 A 
ENDBRANCH   4  13
BRANCH  10  19
ATOM     19  O   UNL d   1      58.372   0.682  30.509  0.00  0.00    -0.328 OA
ATOM     20  C   UNL d   1      59.176   0.535  30.488  0.00  0.00     0.181 C 
ENDBRANCH  10  19
TORSDOF 2
ENDMDL
MODEL 3
REMARK VINA RESULT:      -4.9      1.343      2.118
REMARK  2 active torsions:
REMARK  status: ('A' for Active; 'I' for Inactive)
REMARK    1  A    between atoms: C_12  and  C_4 
REMARK    2  A    between atoms: O_14  and  C_10 
ROOT
ATOM      1  C   UNL d   1      58.444   0.324  31.322  0.00  0.00     0.101 A 
ATOM      2  C   UNL d   1      58.452   0.439  32.142  0.00  0.00     0.203 A 
ATOM      3  C   UNL d   1      57.759   0.319  32.575  0.00  0.00     0.067 A 
ATOM      4  C   UNL d   1      57.072   0.088  32.198  0.00  0.00     0.103 A 
ATOM      5  C   UNL d   1      57.757   0.093  30.945  0.00  0.00     0.108 A 
ATOM      6  O   UNL d   1      57.064  -0.026  31.381  0.00  0.00    -0.307 OA
ATOM      7  C   UNL d   1      59.135   0.444  30.893  0.00  0.00     0.203 A 
ATOM      8  C   UNL d   1      57.747  -0.022  30.132  0.00  0.00     0.049 A 
ATOM      9  C   UNL d   1      59.135   0.328  30.059  0.00  0.00     0.066 A 
ATOM     10  C   UNL d   1      58.448   0.098  29.682  0.00  0.00     0.099 A 
ATOM     11  O   UNL d   1      59.159   0.676  32.529  0.00  0.00    -0.286 OA
ATOM     12  O   UNL d   1      59.842   0.680  31.280  0.00  0.00    -0.286 OA
ENDROOT
BRANCH   4  13
ATOM     13  C   UNL d   1      56.384  -0.031  32.624  0.00  0.00     0.023 A 
ATOM     14  C   UNL d   1      56.213  -0.788  32.907  0.00  0.00     0.002 A 
ATOM     15  C   UNL d   1      55.522  -0.910  33.335  0.00  0.00     0.000 A 
ATOM     16  C   UNL d   1      55.003  -0.283  33.482  0.00  0.00     0.000 A 
ATOM     17  C   UNL d   1      55.170   0.473  33.201  0.00  0.00     0.000 A 
ATOM     18  C   UNL d   1      55.865   0.596  32.771  0.00  0.00     0.002 A 
ENDBRANCH   4  13
BRANCH  10  19
ATOM     19  O   UNL d   1      58.428  -0.023  28.842  0.00  0.00    -0.328 OA
ATOM     20  C   UNL d   1      58.615  -0.754  28.526  0.00  0.00     0.181 C 
ENDBRANCH  10  19
TORSDOF 2
ENDMDL
MODEL 4
REMARK VINA RESULT:      -4.9      2.099      4.479
REMARK  2 active torsions:
REMARK  status: ('A' for Active; 'I' for Inactive)
REMARK    1  A    between atoms: C_12  and  C_4 
REMARK    2  A    between atoms: O_14  and  C_10 
ROOT
ATOM      1  C   UNL d   1      56.442  -0.735  32.483  0.00  0.00     0.101 A 
ATOM      2  C   UNL d   1      56.636  -1.205  31.830  0.00  0.00     0.203 A 
ATOM      3  C   UNL d   1      57.170  -0.919  31.268  0.00  0.00     0.067 A 
ATOM      4  C   UNL d   1      57.504  -0.179  31.356  0.00  0.00     0.103 A 
ATOM      5  C   UNL d   1      56.776   0.005  32.571  0.00  0.00     0.108 A 
ATOM      6  O   UNL d   1      57.311   0.290  32.008  0.00  0.00    -0.307 OA
ATOM      7  C   UNL d   1      55.910  -1.022  33.041  0.00  0.00     0.203 A 
ATOM      8  C   UNL d   1      56.585   0.473  33.219  0.00  0.00     0.049 A 
ATOM      9  C   UNL d   1      55.708  -0.550  33.708  0.00  0.00     0.066 A 
ATOM     10  C   UNL d   1      56.042   0.191  33.796  0.00  0.00     0.099 A 
ATOM     11  O   UNL d   1      56.292  -1.966  31.739  0.00  0.00    -0.286 OA
ATOM     12  O   UNL d   1      55.567  -1.783  32.950  0.00  0.00    -0.286 OA
ENDROOT
BRANCH   4  13
ATOM     13  C   UNL d   1      58.033   0.108  30.802  0.00  0.00     0.023 A 
ATOM     14  C   UNL d   1      58.839   0.114  30.981  0.00  0.00     0.002 A 
ATOM     15  C   UNL d   1      59.372   0.401  30.426  0.00  0.00     0.000 A 
ATOM     16  C   UNL d   1      59.106   0.682  29.695  0.00  0.00     0.000 A 
ATOM     17  C   UNL d   1      58.303   0.678  29.513  0.00  0.00     0.000 A 
ATOM     18  C   UNL d   1      57.766   0.388  30.072  0.00  0.00     0.002 A 
ENDBRANCH   4  13
BRANCH  10  19
ATOM     19  O   UNL d   1      55.851   0.682  34.462  0.00  0.00    -0.328 OA
ATOM     20  C   UNL d   1      55.120   0.621  34.823  0.00  0.00     0.181 C 
ENDBRANCH  10  19
TORSDOF 2
ENDMDL
MODEL 5
REMARK VINA RESULT:      -3.8      1.806      1.998
REMARK  2 active torsions:
REMARK  status: ('A' for Active; 'I' for Inactive)
REMARK    1  A    between atoms: C_12  and  C_4 
REMARK    2  A    between atoms: O_14  and  C_10 
ROOT
ATOM      1  C   UNL d   1      58.258   0.478  29.995  0.00  0.00     0.101 A 
ATOM      2  C   UNL d   1      57.432   0.521  30.002  0.00  0.00     0.203 A 
ATOM      3  C   UNL d   1      57.028   0.441  30.719  0.00  0.00     0.067 A 
ATOM      4  C   UNL d   1      57.440   0.321  31.413  0.00  0.00     0.103 A 
ATOM      5  C   UNL d   1      58.671   0.358  30.690  0.00  0.00     0.108 A 
ATOM      6  O   UNL d   1      58.265   0.278  31.406  0.00  0.00    -0.307 OA
ATOM      7  C   UNL d   1      58.659   0.558  29.281  0.00  0.00     0.203 A 
ATOM      8  C   UNL d   1      59.492   0.315  30.684  0.00  0.00     0.049 A 
ATOM      9  C   UNL d   1      59.499   0.516  29.265  0.00  0.00     0.066 A 
ATOM     10  C   UNL d   1      59.911   0.395  29.960  0.00  0.00     0.099 A 
ATOM     11  O   UNL d   1      57.008   0.645  29.288  0.00  0.00    -0.286 OA
ATOM     12  O   UNL d   1      58.235   0.682  28.566  0.00  0.00    -0.286 OA
ENDROOT
BRANCH   4  13
ATOM     13  C   UNL d   1      57.044   0.241  32.124  0.00  0.00     0.023 A 
ATOM     14  C   UNL d   1      56.385  -0.254  32.164  0.00  0.00     0.002 A 
ATOM     15  C   UNL d   1      55.984  -0.336  32.877  0.00  0.00     0.000 A 
ATOM     16  C   UNL d   1      56.239   0.074  33.549  0.00  0.00     0.000 A 
ATOM     17  C   UNL d   1      56.896   0.569  33.514  0.00  0.00     0.000 A 
ATOM     18  C   UNL d   1      57.298   0.651  32.796  0.00  0.00     0.002 A 
ENDBRANCH   4  13
BRANCH  10  19
ATOM     19  O   UNL d   1      60.759   0.350  29.964  0.00  0.00    -0.328 OA
ATOM     20  C   UNL d   1      61.133  -0.377  29.950  0.00  0.00     0.181 C 
ENDBRANCH  10  19
TORSDOF 2
ENDMDL
MODEL 6
REMARK VINA RESULT:      -3.2      2.486      5.172
REMARK  2 active torsions:
REMARK  status: ('A' for Active; 'I' for Inactive)
REMARK    1  A    between atoms: C_12  and  C_4 
REMARK    2  A    between atoms: O_14  and  C_10 
ROOT
ATOM      1  C   UNL d   1      56.325   0.484  34.033  0.00  0.00     0.101 A 
ATOM      2  C   UNL d   1      57.146   0.419  33.951  0.00  0.00     0.203 A 
ATOM      3  C   UNL d   1      57.470   0.288  33.203  0.00  0.00     0.067 A 
ATOM      4  C   UNL d   1      56.985   0.223  32.548  0.00  0.00     0.103 A 
ATOM      5  C   UNL d   1      55.840   0.419  33.379  0.00  0.00     0.108 A 
ATOM      6  O   UNL d   1      56.166   0.288  32.630  0.00  0.00    -0.307 OA
ATOM      7  C   UNL d   1      56.004   0.615  34.779  0.00  0.00     0.203 A 
ATOM      8  C   UNL d   1      55.024   0.483  33.458  0.00  0.00     0.049 A 
ATOM      9  C   UNL d   1      55.170   0.682  34.870  0.00  0.00     0.066 A 
ATOM     10  C   UNL d   1      54.685   0.617  34.216  0.00  0.00     0.099 A 
ATOM     11  O   UNL d   1      57.645   0.486  34.623  0.00  0.00    -0.286 OA
ATOM     12  O   UNL d   1      56.503   0.682  35.451  0.00  0.00    -0.286 OA
ENDROOT
BRANCH   4  13
ATOM     13  C   UNL d   1      57.302   0.093  31.806  0.00  0.00     0.023 A 
ATOM     14  C   UNL d   1      57.098  -0.593  31.396  0.00  0.00     0.002 A 
ATOM     15  C   UNL d   1      57.416  -0.726  30.649  0.00  0.00     0.000 A 
ATOM     16  C   UNL d   1      57.936  -0.178  30.312  0.00  0.00     0.000 A 
ATOM     17  C   UNL d   1      58.142   0.508  30.718  0.00  0.00     0.000 A 
ATOM     18  C   UNL d   1      57.822   0.641  31.469  0.00  0.00     0.002 A 
ENDBRANCH   4  13
BRANCH  10  19
ATOM     19  O   UNL d   1      53.841   0.682  34.287  0.00  0.00    -0.328 OA
ATOM     20  C   UNL d   1      53.472   0.507  34.995  0.00  0.00     0.181 C 
ENDBRANCH  10  19
TORSDOF 2
ENDMDL
MODEL 7
REMARK VINA RESULT:      -3.0      1.661      2.766
REMARK  2 active torsions:
REMARK  status: ('A' for Active; 'I' for Inactive)
REMARK    1  A    between atoms: C_12  and  C_4 
REMARK    2  A    between atoms: O_14  and  C_10 
ROOT
ATOM      1  C   UNL d   1      59.730  -2.649  28.842  0.00  0.00     0.101 A 
ATOM      2  C   UNL d   1      60.141  -1.942  28.970  0.00  0.00     0.203 A 
ATOM      3  C   UNL d   1      59.727  -1.272  29.218  0.00  0.00     0.067 A 
ATOM      4  C   UNL d   1      58.919  -1.306  29.337  0.00  0.00     0.103 A 
ATOM      5  C   UNL d   1      58.923  -2.684  28.961  0.00  0.00     0.108 A 
ATOM      6  O   UNL d   1      58.510  -2.011  29.210  0.00  0.00    -0.307 OA
ATOM      7  C   UNL d   1      60.144  -3.316  28.595  0.00  0.00     0.203 A 
ATOM      8  C   UNL d   1      58.513  -3.385  28.835  0.00  0.00     0.049 A 
ATOM      9  C   UNL d   1      59.734  -4.039  28.464  0.00  0.00     0.066 A 
ATOM     10  C   UNL d   1      58.926  -4.073  28.582  0.00  0.00     0.099 A 
ATOM     11  O   UNL d   1      60.971  -1.907  28.848  0.00  0.00    -0.286 OA
ATOM     12  O   UNL d   1      60.974  -3.281  28.473  0.00  0.00    -0.286 OA
ENDROOT
BRANCH   4  13
ATOM     13  C   UNL d   1      58.506  -0.644  29.582  0.00  0.00     0.023 A 
ATOM     14  C   UNL d   1      58.163  -0.640  30.333  0.00  0.00     0.002 A 
ATOM     15  C   UNL d   1      57.747   0.024  30.582  0.00  0.00     0.000 A 
ATOM     16  C   UNL d   1      57.674   0.682  30.086  0.00  0.00     0.000 A 
ATOM     17  C   UNL d   1      58.015   0.682  29.337  0.00  0.00     0.000 A 
ATOM     18  C   UNL d   1      58.432   0.014  29.086  0.00  0.00     0.002 A 
ENDBRANCH   4  13
BRANCH  10  19
ATOM     19  O   UNL d   1      58.494  -4.793  28.455  0.00  0.00    -0.328 OA
ATOM     20  C   UNL d   1      57.676  -4.792  28.471  0.00  0.00     0.181 C 
ENDBRANCH  10  19
TORSDOF 2
ENDMDL
