MODEL 1
REMARK VINA RESULT:      62.8      0.000      0.000
REMARK  5 active torsions:
REMARK  status: ('A' for Active; 'I' for Inactive)
REMARK    1  A    between atoms: S_9  and  C_2 
REMARK    2  A    between atoms: C_19  and  S_9 
REMARK    3  A    between atoms: C_11  and  C_19 
REMARK       I    between atoms: N_16  and  C_11 
REMARK    4  A    between atoms: C_22  and  N_16 
REMARK    5  A    between atoms: C_21  and  C_22 
ROOT
ATOM      1  C   UNL d   1      14.256  13.494  -2.183  0.00  0.00     0.092 A 
ATOM      2  C   UNL d   1      14.372  14.304  -2.331  0.00  0.00     0.120 A 
ATOM      3  N   UNL d   1      14.719  14.774  -1.758  0.00  0.00    -0.238 NA
ATOM      4  C   UNL d   1      14.486  13.156  -1.463  0.00  0.00     0.013 A 
ATOM      5  C   UNL d   1      14.837  13.646  -0.889  0.00  0.00     0.018 A 
ATOM      6  C   UNL d   1      14.953  14.449  -1.036  0.00  0.00     0.082 A 
ATOM      7  C   UNL d   1      13.903  13.015  -2.767  0.00  0.00     0.103 C 
ATOM      8  N   UNL d   1      13.554  12.533  -3.338  0.00  0.00    -0.191 NA
ATOM      9  C   UNL d   1      14.370  12.353  -1.316  0.00  0.00     0.001 A 
ATOM     10  C   UNL d   1      15.072  13.318  -0.162  0.00  0.00     0.002 A 
ATOM     11  C   UNL d   1      15.301  14.926  -0.463  0.00  0.00     0.021 C 
ATOM     12  C   UNL d   1      14.603  12.028  -0.597  0.00  0.00     0.000 A 
ATOM     13  C   UNL d   1      14.955  12.507  -0.014  0.00  0.00     0.000 A 
ENDROOT
BRANCH   2  14
ATOM     14  S   UNL d   1      14.137  14.629  -3.058  0.00  0.00    -0.062 SA
BRANCH  14  15
ATOM     15  C   UNL d   1      14.396  15.384  -3.272  0.00  0.00     0.099 C 
BRANCH  15  16
ATOM     16  C   UNL d   1      14.305  15.641  -4.049  0.00  0.00     0.286 C 
ATOM     17  N   UNL d   1      14.623  16.369  -4.279  0.00  0.00    -0.206 NA
ATOM     18  O   UNL d   1      13.897  15.176  -4.599  0.00  0.00    -0.265 OA
BRANCH  17  19
ATOM     19  C   UNL d   1      14.537  16.638  -5.056  0.00  0.00     0.102 C 
BRANCH  19  20
ATOM     20  C   UNL d   1      14.524  17.448  -5.216  0.00  0.00     0.021 A 
ATOM     21  C   UNL d   1      13.970  17.752  -5.739  0.00  0.00     0.028 A 
ATOM     22  C   UNL d   1      13.957  18.561  -5.898  0.00  0.00     0.119 A 
ATOM     23  O   UNL d   1      13.475  19.015  -6.388  0.00  0.00    -0.300 OA
ATOM     24  C   UNL d   1      14.492  19.058  -5.535  0.00  0.00     0.119 A 
ATOM     25  C   UNL d   1      13.719  19.800  -6.325  0.00  0.00     0.304 A 
ATOM     26  O   UNL d   1      14.349  19.827  -5.797  0.00  0.00    -0.300 OA
ATOM     27  C   UNL d   1      15.057  18.747  -5.001  0.00  0.00     0.026 A 
ATOM     28  C   UNL d   1      15.062  17.938  -4.849  0.00  0.00     0.004 A 
ENDBRANCH  19  20
ENDBRANCH  17  19
ENDBRANCH  15  16
ENDBRANCH  14  15
ENDBRANCH   2  14
TORSDOF 5
ENDMDL
