MODEL 1
REMARK VINA RESULT:      50.2      0.000      0.000
REMARK  7 active torsions:
REMARK  status: ('A' for Active; 'I' for Inactive)
REMARK    1  A    between atoms: N_4  and  C_1 
REMARK    2  A    between atoms: C_9  and  C_2 
REMARK    3  A    between atoms: C_7  and  N_4 
REMARK    4  A    between atoms: N_8  and  C_7 
REMARK       I    between atoms: C_10  and  N_8 
REMARK    5  A    between atoms: C_15  and  C_10 
REMARK    6  A    between atoms: C_18  and  C_15 
REMARK    7  A    between atoms: C_19  and  C_18 
ROOT
ATOM      1  C   UNL d   1     -56.314 -99.176 -45.081  0.00  0.00     0.224 C 
ATOM      2  S   UNL d   1     -55.718 -98.933 -45.600  0.00  0.00    -0.037 SA
ENDROOT
BRANCH   1   3
ATOM      3  N   UNL d   1     -57.001 -98.758 -45.018  0.00  0.00    -0.211 NA
BRANCH   3   4
ATOM      4  C   UNL d   1     -57.427 -98.778 -44.323  0.00  0.00     0.118 A 
ATOM      5  C   UNL d   1     -58.250 -98.813 -44.256  0.00  0.00     0.084 A 
ATOM      6  C   UNL d   1     -58.432 -98.822 -43.478  0.00  0.00     0.013 A 
ATOM      7  C   UNL d   1     -59.204 -98.855 -43.160  0.00  0.00     0.001 C 
ATOM      8  C   UNL d   1     -57.771 -98.795 -43.053  0.00  0.00     0.031 A 
ATOM      9  S   UNL d   1     -57.141 -98.767 -43.559  0.00  0.00    -0.068 SA
ATOM     10  C   UNL d   1     -57.750 -98.796 -42.224  0.00  0.00     0.007 C 
BRANCH   5  11
ATOM     11  C   UNL d   1     -58.788 -98.834 -44.892  0.00  0.00     0.299 C 
ATOM     12  O   UNL d   1     -59.601 -98.847 -44.747  0.00  0.00    -0.264 OA
ATOM     13  N   UNL d   1     -58.514 -98.842 -45.681  0.00  0.00    -0.102 N 
ENDBRANCH   5  11
ENDBRANCH   3   4
ENDBRANCH   1   3
BRANCH   1  14
ATOM     14  N   UNL d   1     -56.213 -99.849 -44.620  0.00  0.00    -0.179 NA
ATOM     15  C   UNL d   1     -55.671 -99.872 -44.025  0.00  0.00     0.281 C 
ATOM     16  O   UNL d   1     -55.209 -99.224 -43.870  0.00  0.00    -0.265 OA
BRANCH  15  17
ATOM     17  C   UNL d   1     -55.567-100.557 -43.556  0.00  0.00     0.063 C 
BRANCH  17  18
ATOM     18  C   UNL d   1     -54.875-100.675 -43.159  0.00  0.00     0.005 C 
BRANCH  18  19
ATOM     19  C   UNL d   1     -54.823-101.312 -42.638  0.00  0.00     0.000 A 
ATOM     20  C   UNL d   1     -54.769-102.094 -42.917  0.00  0.00     0.000 A 
ATOM     21  C   UNL d   1     -54.718-102.712 -42.392  0.00  0.00     0.000 A 
ATOM     22  C   UNL d   1     -54.720-102.569 -41.568  0.00  0.00     0.000 A 
ATOM     23  C   UNL d   1     -54.774-101.797 -41.298  0.00  0.00     0.000 A 
ATOM     24  C   UNL d   1     -54.825-101.173 -41.845  0.00  0.00     0.000 A 
ENDBRANCH  18  19
ENDBRANCH  17  18
ENDBRANCH  15  17
ENDBRANCH   1  14
TORSDOF 7
ENDMDL
