MODEL 1
REMARK VINA RESULT:       1.7      0.000      0.000
REMARK  2 active torsions:
REMARK  status: ('A' for Active; 'I' for Inactive)
REMARK    1  A    between atoms: C_6  and  C_1 
REMARK       I    between atoms: N_10  and  C_6 
REMARK    2  A    between atoms: C_12  and  N_10 
ROOT
ATOM      1  C   UNL d   1     -42.019-122.614 -51.764  0.00  0.00     0.108 A 
ATOM      2  C   UNL d   1     -41.952-122.390 -50.460  0.00  0.00     0.044 A 
ATOM      3  C   UNL d   1     -42.475-123.022 -50.591  0.00  0.00     0.112 A 
ATOM      4  S   UNL d   1     -42.509-123.152 -51.405  0.00  0.00    -0.061 SA
ATOM      5  C   UNL d   1     -41.668-122.137 -51.193  0.00  0.00     0.116 A 
ATOM      6  N   UNL d   1     -42.844-123.385 -49.941  0.00  0.00    -0.239 NA
ATOM      7  C   UNL d   1     -42.176-122.498 -49.049  0.00  0.00     0.056 A 
ATOM      8  C   UNL d   1     -42.699-123.130 -49.180  0.00  0.00     0.081 A 
ATOM      9  C   UNL d   1     -41.806-122.132 -49.680  0.00  0.00     0.008 A 
ATOM     10  C   UNL d   1     -42.027-122.238 -48.287  0.00  0.00     0.193 A 
ATOM     11  C   UNL d   1     -42.924-123.238 -47.768  0.00  0.00     0.042 A 
ATOM     12  C   UNL d   1     -43.066-123.492 -48.548  0.00  0.00    -0.003 A 
ATOM     13  C   UNL d   1     -42.400-122.606 -47.636  0.00  0.00     0.019 A 
ATOM     14  O   UNL d   1     -41.499-121.601 -48.154  0.00  0.00    -0.287 OA
ATOM     15  N   UNL d   1     -41.123-121.509 -51.331  0.00  0.00    -0.147 N 
ATOM     16  C   UNL d   1     -43.432-123.806 -47.487  0.00  0.00     0.009 C 
ATOM     17  C   UNL d   1     -43.138-123.404 -46.990  0.00  0.00     0.009 C 
ENDROOT
BRANCH   1  18
ATOM     18  C   UNL d   1     -41.902-122.567 -52.580  0.00  0.00     0.287 C 
ATOM     19  N   UNL d   1     -42.486-122.255 -53.079  0.00  0.00    -0.208 NA
ATOM     20  O   UNL d   1     -41.196-122.835 -52.893  0.00  0.00    -0.265 OA
BRANCH  19  21
ATOM     21  C   UNL d   1     -42.370-122.208 -53.888  0.00  0.00     0.085 A 
ATOM     22  C   UNL d   1     -42.304-122.887 -54.352  0.00  0.00     0.018 A 
ATOM     23  C   UNL d   1     -42.189-122.842 -55.154  0.00  0.00     0.002 A 
ATOM     24  C   UNL d   1     -42.357-123.644 -54.002  0.00  0.00     0.002 C 
ATOM     25  C   UNL d   1     -42.137-122.078 -55.503  0.00  0.00     0.000 A 
ATOM     26  C   UNL d   1     -42.202-121.406 -55.040  0.00  0.00     0.002 A 
ATOM     27  C   UNL d   1     -42.020-121.980 -56.315  0.00  0.00     0.000 C 
ATOM     28  C   UNL d   1     -42.317-121.471 -54.239  0.00  0.00     0.018 A 
ATOM     29  C   UNL d   1     -42.385-120.781 -53.762  0.00  0.00     0.002 C 
ENDBRANCH  19  21
ENDBRANCH   1  18
TORSDOF 2
ENDMDL
