MODEL 1
REMARK VINA RESULT:      36.0      0.000      0.000
REMARK  1 active torsions:
REMARK  status: ('A' for Active; 'I' for Inactive)
REMARK    1  A    between atoms: C_8  and  C_1 
ROOT
ATOM      1  C   UNL d   1      58.897  49.681  51.312  0.00  0.00     0.010 A 
ATOM      2  C   UNL d   1      59.605  49.687  50.882  0.00  0.00     0.062 A 
ATOM      3  C   UNL d   1      60.329  49.700  51.286  0.00  0.00     0.106 A 
ATOM      4  C   UNL d   1      59.595  49.680  50.060  0.00  0.00     0.198 A 
ATOM      5  O   UNL d   1      60.342  49.706  52.109  0.00  0.00    -0.273 OA
ATOM      6  C   UNL d   1      58.907  49.687  52.134  0.00  0.00     0.069 A 
ATOM      7  C   UNL d   1      59.628  49.700  52.536  0.00  0.00     0.300 A 
ATOM      8  C   UNL d   1      61.036  49.705  50.864  0.00  0.00     0.025 A 
ATOM      9  C   UNL d   1      60.301  49.686  49.634  0.00  0.00     0.042 A 
ATOM     10  O   UNL d   1      59.642  49.707  53.364  0.00  0.00    -0.259 OA
ATOM     11  C   UNL d   1      61.021  49.699  50.036  0.00  0.00     0.005 A 
ATOM     12  O   UNL d   1      58.871  49.667  49.657  0.00  0.00    -0.286 OA
ATOM     13  C   UNL d   1      61.730  49.705  49.619  0.00  0.00     0.000 C 
ENDROOT
BRANCH   1  14
ATOM     14  C   UNL d   1      58.173  49.668  50.908  0.00  0.00     0.000 A 
ATOM     15  C   UNL d   1      57.464  49.616  51.336  0.00  0.00     0.000 A 
ATOM     16  C   UNL d   1      56.732  49.603  50.928  0.00  0.00     0.000 A 
ATOM     17  C   UNL d   1      56.718  49.642  50.106  0.00  0.00     0.000 A 
ATOM     18  C   UNL d   1      57.439  49.693  49.684  0.00  0.00     0.000 A 
ATOM     19  C   UNL d   1      58.159  49.706  50.086  0.00  0.00     0.000 A 
ENDBRANCH   1  14
TORSDOF 1
ENDMDL
MODEL 2
REMARK VINA RESULT:      36.7      1.031      2.194
REMARK  1 active torsions:
REMARK  status: ('A' for Active; 'I' for Inactive)
REMARK    1  A    between atoms: C_8  and  C_1 
ROOT
ATOM      1  C   UNL d   1      59.601  49.597  50.406  0.00  0.00     0.010 A 
ATOM      2  C   UNL d   1      59.988  49.618  51.138  0.00  0.00     0.062 A 
ATOM      3  C   UNL d   1      60.817  49.616  51.162  0.00  0.00     0.106 A 
ATOM      4  C   UNL d   1      59.558  49.640  51.838  0.00  0.00     0.198 A 
ATOM      5  O   UNL d   1      61.250  49.594  50.463  0.00  0.00    -0.273 OA
ATOM      6  C   UNL d   1      60.031  49.575  49.706  0.00  0.00     0.069 A 
ATOM      7  C   UNL d   1      60.856  49.574  49.731  0.00  0.00     0.300 A 
ATOM      8  C   UNL d   1      61.207  49.637  51.887  0.00  0.00     0.025 A 
ATOM      9  C   UNL d   1      59.946  49.660  52.565  0.00  0.00     0.042 A 
ATOM     10  O   UNL d   1      61.293  49.551  49.027  0.00  0.00    -0.259 OA
ATOM     11  C   UNL d   1      60.770  49.659  52.590  0.00  0.00     0.005 A 
ATOM     12  O   UNL d   1      58.730  49.641  51.813  0.00  0.00    -0.286 OA
ATOM     13  C   UNL d   1      61.165  49.680  53.311  0.00  0.00     0.000 C 
ENDROOT
BRANCH   1  14
ATOM     14  C   UNL d   1      58.772  49.598  50.381  0.00  0.00     0.000 A 
ATOM     15  C   UNL d   1      58.382  49.689  49.655  0.00  0.00     0.000 A 
ATOM     16  C   UNL d   1      57.544  49.690  49.630  0.00  0.00     0.000 A 
ATOM     17  C   UNL d   1      57.111  49.602  50.324  0.00  0.00     0.000 A 
ATOM     18  C   UNL d   1      57.515  49.511  51.052  0.00  0.00     0.000 A 
ATOM     19  C   UNL d   1      58.339  49.510  51.076  0.00  0.00     0.000 A 
ENDBRANCH   1  14
TORSDOF 1
ENDMDL
