MODEL 1
REMARK VINA RESULT:      -9.1      0.000      0.000
REMARK  3 active torsions:
REMARK  status: ('A' for Active; 'I' for Inactive)
REMARK    1  A    between atoms: C_8  and  C_1 
REMARK       I    between atoms: C_5  and  N_7 
REMARK    2  A    between atoms: C_10  and  C_5 
REMARK    3  A    between atoms: N_7  and  C_15 
ROOT
ATOM      1  C   UNL d   1      51.797  33.943  53.225  0.00  0.00     0.024 A 
ATOM      2  C   UNL d   1      51.835  34.365  52.528  0.00  0.00     0.004 A 
ATOM      3  C   UNL d   1      51.080  33.642  53.495  0.00  0.00     0.004 A 
ATOM      4  C   UNL d   1      50.425  34.193  52.353  0.00  0.00     0.085 A 
ATOM      5  C   UNL d   1      50.390  33.765  53.060  0.00  0.00     0.019 A 
ATOM      6  C   UNL d   1      51.149  34.493  52.088  0.00  0.00     0.019 A 
ENDROOT
BRANCH   1   7
ATOM      7  C   UNL d   1      52.490  33.817  53.666  0.00  0.00     0.112 A 
ATOM      8  S   UNL d   1      52.854  34.376  54.170  0.00  0.00    -0.047 SA
ATOM      9  C   UNL d   1      53.531  34.017  54.498  0.00  0.00     0.130 A 
ATOM     10  N   UNL d   1      54.101  34.294  55.026  0.00  0.00    -0.236 NA
ATOM     11  C   UNL d   1      53.585  33.242  54.198  0.00  0.00     0.106 A 
ATOM     12  C   UNL d   1      54.725  33.802  55.258  0.00  0.00     0.100 A 
ATOM     13  C   UNL d   1      54.776  33.024  54.955  0.00  0.00     0.022 A 
ATOM     14  C   UNL d   1      54.205  32.751  54.428  0.00  0.00     0.023 A 
ATOM     15  N   UNL d   1      52.931  33.127  53.680  0.00  0.00    -0.237 NA
ENDBRANCH   1   7
BRANCH   4  16
ATOM     16  N   UNL d   1      49.736  34.321  51.911  0.00  0.00    -0.206 NA
ATOM     17  C   UNL d   1      49.177  34.865  52.176  0.00  0.00     0.302 C 
ATOM     18  O   UNL d   1      49.295  35.283  52.876  0.00  0.00    -0.263 OA
BRANCH  17  19
ATOM     19  C   UNL d   1      48.495  34.991  51.738  0.00  0.00     0.158 A 
ATOM     20  O   UNL d   1      48.289  34.614  51.032  0.00  0.00    -0.300 OA
ATOM     21  C   UNL d   1      47.562  34.914  50.793  0.00  0.00     0.123 A 
ATOM     22  C   UNL d   1      47.311  35.478  51.347  0.00  0.00     0.029 A 
ATOM     23  C   UNL d   1      47.886  35.527  51.932  0.00  0.00     0.032 A 
ENDBRANCH  17  19
ENDBRANCH   4  16
TORSDOF 3
ENDMDL
MODEL 2
REMARK VINA RESULT:      -8.6      1.804      5.546
REMARK  3 active torsions:
REMARK  status: ('A' for Active; 'I' for Inactive)
REMARK    1  A    between atoms: C_8  and  C_1 
REMARK       I    between atoms: C_5  and  N_7 
REMARK    2  A    between atoms: C_10  and  C_5 
REMARK    3  A    between atoms: N_7  and  C_15 
ROOT
ATOM      1  C   UNL d   1      50.286  34.329  52.548  0.00  0.00     0.024 A 
ATOM      2  C   UNL d   1      50.327  33.891  53.236  0.00  0.00     0.004 A 
ATOM      3  C   UNL d   1      50.960  34.461  52.094  0.00  0.00     0.004 A 
ATOM      4  C   UNL d   1      51.731  33.705  53.028  0.00  0.00     0.085 A 
ATOM      5  C   UNL d   1      51.686  34.150  52.332  0.00  0.00     0.019 A 
ATOM      6  C   UNL d   1      51.050  33.577  53.480  0.00  0.00     0.019 A 
ENDROOT
BRANCH   1   7
ATOM      7  C   UNL d   1      49.557  34.644  52.306  0.00  0.00     0.112 A 
ATOM      8  S   UNL d   1      49.159  34.458  51.594  0.00  0.00    -0.047 SA
ATOM      9  C   UNL d   1      48.453  34.898  51.578  0.00  0.00     0.130 A 
ATOM     10  N   UNL d   1      47.844  34.943  51.022  0.00  0.00    -0.236 NA
ATOM     11  C   UNL d   1      48.413  35.353  52.274  0.00  0.00     0.106 A 
ATOM     12  C   UNL d   1      47.195  35.440  51.157  0.00  0.00     0.100 A 
ATOM     13  C   UNL d   1      47.159  35.896  51.858  0.00  0.00     0.022 A 
ATOM     14  C   UNL d   1      47.769  35.848  52.410  0.00  0.00     0.023 A 
ATOM     15  N   UNL d   1      49.107  35.188  52.722  0.00  0.00    -0.237 NA
ENDBRANCH   1   7
BRANCH   4  16
ATOM     16  N   UNL d   1      52.457  33.389  53.273  0.00  0.00    -0.206 NA
ATOM     17  C   UNL d   1      52.934  33.818  53.790  0.00  0.00     0.302 C 
ATOM     18  O   UNL d   1      52.697  34.557  54.067  0.00  0.00    -0.263 OA
BRANCH  17  19
ATOM     19  C   UNL d   1      53.653  33.505  54.033  0.00  0.00     0.158 A 
ATOM     20  O   UNL d   1      54.167  33.047  53.576  0.00  0.00    -0.300 OA
ATOM     21  C   UNL d   1      54.815  32.857  54.044  0.00  0.00     0.123 A 
ATOM     22  C   UNL d   1      54.709  33.195  54.794  0.00  0.00     0.029 A 
ATOM     23  C   UNL d   1      53.991  33.596  54.789  0.00  0.00     0.032 A 
ENDBRANCH  17  19
ENDBRANCH   4  16
TORSDOF 3
ENDMDL
MODEL 3
REMARK VINA RESULT:      -6.4     10.097     10.979
REMARK  3 active torsions:
REMARK  status: ('A' for Active; 'I' for Inactive)
REMARK    1  A    between atoms: C_8  and  C_1 
REMARK       I    between atoms: C_5  and  N_7 
REMARK    2  A    between atoms: C_10  and  C_5 
REMARK    3  A    between atoms: N_7  and  C_15 
ROOT
ATOM      1  C   UNL d   1      44.984  28.014  57.600  0.00  0.00     0.024 A 
ATOM      2  C   UNL d   1      45.577  27.467  57.723  0.00  0.00     0.004 A 
ATOM      3  C   UNL d   1      44.426  27.900  57.005  0.00  0.00     0.004 A 
ATOM      4  C   UNL d   1      45.062  26.673  56.650  0.00  0.00     0.085 A 
ATOM      5  C   UNL d   1      44.462  27.228  56.527  0.00  0.00     0.019 A 
ATOM      6  C   UNL d   1      45.620  26.793  57.249  0.00  0.00     0.019 A 
ENDROOT
BRANCH   1   7
ATOM      7  C   UNL d   1      44.944  28.690  58.079  0.00  0.00     0.112 A 
ATOM      8  S   UNL d   1      44.810  28.694  58.905  0.00  0.00    -0.047 SA
ATOM      9  C   UNL d   1      44.814  29.488  59.157  0.00  0.00     0.130 A 
ATOM     10  N   UNL d   1      44.712  29.831  59.901  0.00  0.00    -0.236 NA
ATOM     11  C   UNL d   1      44.949  29.971  58.493  0.00  0.00     0.106 A 
ATOM     12  C   UNL d   1      44.745  30.653  59.986  0.00  0.00     0.100 A 
ATOM     13  C   UNL d   1      44.881  31.136  59.316  0.00  0.00     0.022 A 
ATOM     14  C   UNL d   1      44.982  30.790  58.576  0.00  0.00     0.023 A 
ATOM     15  N   UNL d   1      45.029  29.464  57.825  0.00  0.00    -0.237 NA
ENDBRANCH   1   7
BRANCH   4  16
ATOM     16  N   UNL d   1      45.105  25.996  56.173  0.00  0.00    -0.206 NA
ATOM     17  C   UNL d   1      44.731  25.303  56.415  0.00  0.00     0.302 C 
ATOM     18  O   UNL d   1      44.315  25.275  57.125  0.00  0.00    -0.263 OA
BRANCH  17  19
ATOM     19  C   UNL d   1      44.773  24.633  55.943  0.00  0.00     0.158 A 
ATOM     20  O   UNL d   1      45.253  24.533  55.277  0.00  0.00    -0.300 OA
ATOM     21  C   UNL d   1      45.113  23.779  54.982  0.00  0.00     0.123 A 
ATOM     22  C   UNL d   1      44.548  23.406  55.460  0.00  0.00     0.029 A 
ATOM     23  C   UNL d   1      44.336  23.932  56.055  0.00  0.00     0.032 A 
ENDBRANCH  17  19
ENDBRANCH   4  16
TORSDOF 3
ENDMDL
