MODEL 1
REMARK VINA RESULT:       0.7      0.000      0.000
REMARK  4 active torsions:
REMARK  status: ('A' for Active; 'I' for Inactive)
REMARK    1  A    between atoms: C_11  and  C_3 
REMARK    2  A    between atoms: N_10  and  C_4 
REMARK    3  A    between atoms: C_15  and  N_10 
REMARK    4  A    between atoms: C_16  and  C_15 
ROOT
ATOM      1  C   UNL d   1      56.889  -0.731  32.093  0.00  0.00     0.167 A 
ATOM      2  N   UNL d   1      57.104  -1.142  31.382  0.00  0.00    -0.195 N 
ATOM      3  C   UNL d   1      56.205  -0.925  32.482  0.00  0.00     0.057 A 
ATOM      4  C   UNL d   1      57.786  -0.938  31.007  0.00  0.00     0.167 A 
ATOM      5  N   UNL d   1      55.924  -1.925  31.494  0.00  0.00    -0.161 NA
ATOM      6  N   UNL d   1      57.370  -0.143  32.382  0.00  0.00    -0.227 NA
ATOM      7  C   UNL d   1      58.280  -0.344  31.292  0.00  0.00     0.058 A 
ATOM      8  C   UNL d   1      55.716  -1.527  32.183  0.00  0.00     0.124 A 
ATOM      9  C   UNL d   1      58.068   0.061  31.992  0.00  0.00     0.086 A 
ATOM     10  C   UNL d   1      58.577   0.682  32.297  0.00  0.00     0.021 C 
ENDROOT
BRANCH   4  11
ATOM     11  N   UNL d   1      58.007  -1.350  30.288  0.00  0.00    -0.224 NA
BRANCH  11  12
ATOM     12  C   UNL d   1      58.464  -1.253  29.569  0.00  0.00     0.120 C 
BRANCH  12  13
ATOM     13  C   UNL d   1      58.849  -1.929  29.211  0.00  0.00     0.101 A 
ATOM     14  N   UNL d   1      58.383  -2.637  29.046  0.00  0.00    -0.242 NA
ATOM     15  C   UNL d   1      58.768  -3.313  28.688  0.00  0.00     0.099 A 
ATOM     16  C   UNL d   1      59.605  -3.284  28.497  0.00  0.00     0.021 A 
ATOM     17  C   UNL d   1      60.058  -2.579  28.664  0.00  0.00     0.003 A 
ATOM     18  C   UNL d   1      59.674  -1.901  29.022  0.00  0.00     0.021 A 
ENDBRANCH  12  13
ENDBRANCH  11  12
ENDBRANCH   4  11
BRANCH   3  19
ATOM     19  C   UNL d   1      55.996  -0.526  33.172  0.00  0.00     0.005 A 
ATOM     20  C   UNL d   1      56.241  -0.810  33.894  0.00  0.00     0.001 A 
ATOM     21  C   UNL d   1      56.033  -0.411  34.583  0.00  0.00     0.011 A 
ATOM     22  C   UNL d   1      55.582   0.265  34.540  0.00  0.00     0.058 A 
ATOM     23  C   UNL d   1      55.340   0.543  33.807  0.00  0.00     0.011 A 
ATOM     24 CL   UNL d   1      55.364   0.682  35.262  0.00  0.00    -0.082 Cl
ATOM     25  C   UNL d   1      55.545   0.150  33.129  0.00  0.00     0.001 A 
ENDBRANCH   3  19
TORSDOF 4
ENDMDL
MODEL 2
REMARK VINA RESULT:       3.1      2.350      5.193
REMARK  4 active torsions:
REMARK  status: ('A' for Active; 'I' for Inactive)
REMARK    1  A    between atoms: C_11  and  C_3 
REMARK    2  A    between atoms: N_10  and  C_4 
REMARK    3  A    between atoms: C_15  and  N_10 
REMARK    4  A    between atoms: C_16  and  C_15 
ROOT
ATOM      1  C   UNL d   1      58.813  -1.185  29.945  0.00  0.00     0.167 A 
ATOM      2  N   UNL d   1      58.241  -0.672  30.305  0.00  0.00    -0.195 N 
ATOM      3  C   UNL d   1      58.654  -1.976  29.864  0.00  0.00     0.057 A 
ATOM      4  C   UNL d   1      58.414   0.110  30.379  0.00  0.00     0.167 A 
ATOM      5  N   UNL d   1      57.375  -1.783  30.482  0.00  0.00    -0.161 NA
ATOM      6  N   UNL d   1      59.521  -0.882  29.683  0.00  0.00    -0.227 NA
ATOM      7  C   UNL d   1      59.127   0.427  30.117  0.00  0.00     0.058 A 
ATOM      8  C   UNL d   1      57.930  -2.281  30.133  0.00  0.00     0.124 A 
ATOM      9  C   UNL d   1      59.691  -0.079  29.762  0.00  0.00     0.086 A 
ATOM     10  C   UNL d   1      60.438   0.242  29.485  0.00  0.00     0.021 C 
ENDROOT
BRANCH   4  11
ATOM     11  N   UNL d   1      57.839   0.633  30.743  0.00  0.00    -0.224 NA
BRANCH  11  12
ATOM     12  C   UNL d   1      57.013   0.671  30.972  0.00  0.00     0.120 C 
BRANCH  12  13
ATOM     13  C   UNL d   1      56.797   0.670  31.800  0.00  0.00     0.101 A 
ATOM     14  N   UNL d   1      57.422   0.682  32.396  0.00  0.00    -0.242 NA
ATOM     15  C   UNL d   1      57.206   0.680  33.225  0.00  0.00     0.099 A 
ATOM     16  C   UNL d   1      56.378   0.667  33.456  0.00  0.00     0.021 A 
ATOM     17  C   UNL d   1      55.767   0.656  32.859  0.00  0.00     0.003 A 
ATOM     18  C   UNL d   1      55.982   0.657  32.029  0.00  0.00     0.021 A 
ENDBRANCH  12  13
ENDBRANCH  11  12
ENDBRANCH   4  11
BRANCH   3  19
ATOM     19  C   UNL d   1      59.209  -2.474  29.514  0.00  0.00     0.005 A 
ATOM     20  C   UNL d   1      59.924  -2.603  29.879  0.00  0.00     0.001 A 
ATOM     21  C   UNL d   1      60.479  -3.101  29.530  0.00  0.00     0.011 A 
ATOM     22  C   UNL d   1      60.310  -3.461  28.821  0.00  0.00     0.058 A 
ATOM     23  C   UNL d   1      59.585  -3.325  28.461  0.00  0.00     0.011 A 
ATOM     24 CL   UNL d   1      60.891  -3.983  28.455  0.00  0.00    -0.082 Cl
ATOM     25  C   UNL d   1      59.040  -2.835  28.804  0.00  0.00     0.001 A 
ENDBRANCH   3  19
TORSDOF 4
ENDMDL
