MODEL 1
REMARK VINA RESULT:      54.2      0.000      0.000
REMARK  3 active torsions:
REMARK  status: ('A' for Active; 'I' for Inactive)
REMARK    1  A    between atoms: S_8  and  C_1 
REMARK       I    between atoms: N_4  and  C_5 
REMARK    2  A    between atoms: C_5  and  C_9 
REMARK    3  A    between atoms: C_9  and  S_8 
ROOT
ATOM      1  S   UNL d   1     -49.141  27.846  33.892  0.00  0.00    -0.056 SA
ENDROOT
BRANCH   1   2
ATOM      2  C   UNL d   1     -49.725  27.295  33.757  0.00  0.00     0.141 A 
ATOM      3  N   UNL d   1     -49.624  26.483  33.683  0.00  0.00    -0.232 NA
ATOM      4  C   UNL d   1     -50.356  26.138  33.551  0.00  0.00     0.088 A 
ATOM      5  C   UNL d   1     -50.580  25.355  33.438  0.00  0.00     0.020 A 
ATOM      6  C   UNL d   1     -50.930  26.748  33.542  0.00  0.00     0.049 A 
ATOM      7  C   UNL d   1     -51.393  25.180  33.314  0.00  0.00     0.002 A 
ATOM      8  C   UNL d   1     -51.943  25.765  33.306  0.00  0.00     0.001 A 
ATOM      9  C   UNL d   1     -51.718  26.565  33.421  0.00  0.00     0.008 A 
ATOM     10  S   UNL d   1     -50.533  27.449  33.669  0.00  0.00    -0.060 SA
ENDBRANCH   1   2
BRANCH   1  11
ATOM     11  C   UNL d   1     -49.110  28.252  34.607  0.00  0.00     0.098 C 
BRANCH  11  12
ATOM     12  C   UNL d   1     -48.390  28.342  35.027  0.00  0.00     0.271 C 
ATOM     13  N   UNL d   1     -48.061  29.105  35.164  0.00  0.00    -0.272 N 
ATOM     14  C   UNL d   1     -47.358  29.178  35.575  0.00  0.00     0.083 A 
ATOM     15  C   UNL d   1     -48.452  29.761  34.883  0.00  0.00     0.083 A 
ATOM     16  C   UNL d   1     -47.038  29.908  35.710  0.00  0.00     0.019 A 
ATOM     17  C   UNL d   1     -47.440  30.591  35.420  0.00  0.00     0.003 A 
ATOM     18  C   UNL d   1     -48.124  30.520  35.020  0.00  0.00     0.019 A 
ATOM     19  O   UNL d   1     -48.015  27.657  35.301  0.00  0.00    -0.266 OA
ENDBRANCH  11  12
ENDBRANCH   1  11
TORSDOF 3
ENDMDL
MODEL 2
REMARK VINA RESULT:      54.7      1.763      4.999
REMARK  3 active torsions:
REMARK  status: ('A' for Active; 'I' for Inactive)
REMARK    1  A    between atoms: S_8  and  C_1 
REMARK       I    between atoms: N_4  and  C_5 
REMARK    2  A    between atoms: C_5  and  C_9 
REMARK    3  A    between atoms: C_9  and  S_8 
ROOT
ATOM      1  S   UNL d   1     -49.810  25.638  33.952  0.00  0.00    -0.056 SA
ENDROOT
BRANCH   1   2
ATOM      2  C   UNL d   1     -49.641  26.435  33.952  0.00  0.00     0.141 A 
ATOM      3  N   UNL d   1     -49.021  26.804  34.345  0.00  0.00    -0.232 NA
ATOM      4  C   UNL d   1     -49.057  27.609  34.194  0.00  0.00     0.088 A 
ATOM      5  C   UNL d   1     -48.583  28.234  34.442  0.00  0.00     0.020 A 
ATOM      6  C   UNL d   1     -49.715  27.748  33.695  0.00  0.00     0.049 A 
ATOM      7  C   UNL d   1     -48.771  29.012  34.184  0.00  0.00     0.002 A 
ATOM      8  C   UNL d   1     -49.402  29.146  33.706  0.00  0.00     0.001 A 
ATOM      9  C   UNL d   1     -49.888  28.511  33.451  0.00  0.00     0.008 A 
ATOM     10  S   UNL d   1     -50.063  27.025  33.554  0.00  0.00    -0.060 SA
ENDBRANCH   1   2
BRANCH   1  11
ATOM     11  C   UNL d   1     -50.221  25.301  33.324  0.00  0.00     0.098 C 
BRANCH  11  12
ATOM     12  C   UNL d   1     -50.418  24.485  33.319  0.00  0.00     0.271 C 
ATOM     13  N   UNL d   1     -51.221  24.235  33.315  0.00  0.00    -0.272 N 
ATOM     14  C   UNL d   1     -51.399  23.436  33.311  0.00  0.00     0.083 A 
ATOM     15  C   UNL d   1     -51.812  24.795  33.316  0.00  0.00     0.083 A 
ATOM     16  C   UNL d   1     -52.168  23.189  33.307  0.00  0.00     0.019 A 
ATOM     17  C   UNL d   1     -52.784  23.768  33.307  0.00  0.00     0.003 A 
ATOM     18  C   UNL d   1     -52.611  24.544  33.312  0.00  0.00     0.019 A 
ATOM     19  O   UNL d   1     -49.796  23.939  33.319  0.00  0.00    -0.266 OA
ENDBRANCH  11  12
ENDBRANCH   1  11
TORSDOF 3
ENDMDL
MODEL 3
REMARK VINA RESULT:      55.1      1.361      4.892
REMARK  3 active torsions:
REMARK  status: ('A' for Active; 'I' for Inactive)
REMARK    1  A    between atoms: S_8  and  C_1 
REMARK       I    between atoms: N_4  and  C_5 
REMARK    2  A    between atoms: C_5  and  C_9 
REMARK    3  A    between atoms: C_9  and  S_8 
ROOT
ATOM      1  S   UNL d   1     -50.123  27.005  33.366  0.00  0.00    -0.056 SA
ENDROOT
BRANCH   1   2
ATOM      2  C   UNL d   1     -49.590  27.452  33.791  0.00  0.00     0.141 A 
ATOM      3  N   UNL d   1     -49.126  27.193  34.419  0.00  0.00    -0.232 NA
ATOM      4  C   UNL d   1     -48.671  27.821  34.684  0.00  0.00     0.088 A 
ATOM      5  C   UNL d   1     -48.116  27.880  35.288  0.00  0.00     0.020 A 
ATOM      6  C   UNL d   1     -48.853  28.489  34.211  0.00  0.00     0.049 A 
ATOM      7  C   UNL d   1     -47.738  28.618  35.422  0.00  0.00     0.002 A 
ATOM      8  C   UNL d   1     -47.912  29.258  34.969  0.00  0.00     0.001 A 
ATOM      9  C   UNL d   1     -48.477  29.203  34.351  0.00  0.00     0.008 A 
ATOM     10  S   UNL d   1     -49.415  28.251  33.670  0.00  0.00    -0.060 SA
ENDBRANCH   1   2
BRANCH   1  11
ATOM     11  C   UNL d   1     -50.421  26.305  33.679  0.00  0.00     0.098 C 
BRANCH  11  12
ATOM     12  C   UNL d   1     -51.230  26.100  33.595  0.00  0.00     0.271 C 
ATOM     13  N   UNL d   1     -51.464  25.297  33.500  0.00  0.00    -0.272 N 
ATOM     14  C   UNL d   1     -52.257  25.111  33.420  0.00  0.00     0.083 A 
ATOM     15  C   UNL d   1     -50.894  24.716  33.489  0.00  0.00     0.083 A 
ATOM     16  C   UNL d   1     -52.488  24.342  33.327  0.00  0.00     0.019 A 
ATOM     17  C   UNL d   1     -51.900  23.737  33.315  0.00  0.00     0.003 A 
ATOM     18  C   UNL d   1     -51.130  23.917  33.393  0.00  0.00     0.019 A 
ATOM     19  O   UNL d   1     -51.787  26.712  33.611  0.00  0.00    -0.266 OA
ENDBRANCH  11  12
ENDBRANCH   1  11
TORSDOF 3
ENDMDL
