MODEL 1
REMARK VINA RESULT:      95.4      0.000      0.000
REMARK  5 active torsions:
REMARK  status: ('A' for Active; 'I' for Inactive)
REMARK    1  A    between atoms: N_9  and  C_2 
REMARK    2  A    between atoms: N_12  and  C_6 
REMARK    3  A    between atoms: C_13  and  N_11 
REMARK    4  A    between atoms: C_18  and  N_12 
REMARK    5  A    between atoms: O_28  and  C_23 
ROOT
ATOM      1  N   UNL d   1     -48.201  29.171  35.721  0.00  0.00    -0.041 NA
ATOM      2  C   UNL d   1     -48.357  29.068  34.965  0.00  0.00     0.738 A 
ATOM      3  C   UNL d   1     -47.702  29.727  35.943  0.00  0.00     0.187 A 
ATOM      4  N   UNL d   1     -48.013  29.525  34.427  0.00  0.00    -0.041 NA
ATOM      5  C   UNL d   1     -47.356  30.186  35.408  0.00  0.00     0.094 A 
ATOM      6  C   UNL d   1     -47.511  30.085  34.643  0.00  0.00     0.185 A 
ATOM      7  N   UNL d   1     -47.040  30.394  36.932  0.00  0.00    -0.162 NA
ATOM      8  N   UNL d   1     -47.548  29.827  36.707  0.00  0.00    -0.208 N 
ATOM      9  C   UNL d   1     -46.696  30.850  36.394  0.00  0.00     0.127 A 
ATOM     10  C   UNL d   1     -47.890  29.373  37.242  0.00  0.00     0.123 C 
ENDROOT
BRANCH   2  11
ATOM     11  N   UNL d   1     -48.885  28.480  34.726  0.00  0.00    -0.134 N 
ATOM     12  C   UNL d   1     -49.448  28.640  34.143  0.00  0.00     0.117 A 
ATOM     13  C   UNL d   1     -49.973  28.045  33.909  0.00  0.00     0.100 A 
ATOM     14  N   UNL d   1     -49.936  27.294  34.256  0.00  0.00    -0.301 N 
ATOM     15  C   UNL d   1     -49.373  27.138  34.837  0.00  0.00     0.100 A 
ATOM     16  C   UNL d   1     -48.848  27.729  35.073  0.00  0.00     0.117 A 
BRANCH  14  17
ATOM     17  C   UNL d   1     -50.463  26.701  34.019  0.00  0.00     0.064 A 
ATOM     18  C   UNL d   1     -51.255  26.902  33.865  0.00  0.00     0.020 A 
ATOM     19  C   UNL d   1     -51.783  26.310  33.628  0.00  0.00     0.031 A 
ATOM     20  C   UNL d   1     -51.517  25.522  33.545  0.00  0.00     0.140 A 
ATOM     21  C   UNL d   1     -50.718  25.344  33.706  0.00  0.00     0.031 A 
ATOM     22  F   UNL d   1     -52.042  24.930  33.309  0.00  0.00    -0.204 F 
ATOM     23  C   UNL d   1     -50.197  25.934  33.941  0.00  0.00     0.020 A 
ENDBRANCH  14  17
ENDBRANCH   2  11
BRANCH   6  24
ATOM     24  N   UNL d   1     -47.156  30.556  34.079  0.00  0.00    -0.226 NA
BRANCH  24  25
ATOM     25  C   UNL d   1     -47.297  31.362  34.067  0.00  0.00     0.085 A 
ATOM     26  C   UNL d   1     -47.986  31.668  33.723  0.00  0.00     0.043 A 
ATOM     27  C   UNL d   1     -48.128  32.476  33.710  0.00  0.00     0.096 A 
ATOM     28  C   UNL d   1     -47.574  32.992  34.046  0.00  0.00     0.024 A 
ATOM     29  C   UNL d   1     -46.893  32.696  34.387  0.00  0.00     0.004 A 
ATOM     30  C   UNL d   1     -46.753  31.879  34.397  0.00  0.00     0.019 A 
BRANCH  27  31
ATOM     31  O   UNL d   1     -48.813  32.776  33.369  0.00  0.00    -0.328 OA
ATOM     32  C   UNL d   1     -49.157  33.525  33.345  0.00  0.00     0.181 C 
ENDBRANCH  27  31
ENDBRANCH  24  25
ENDBRANCH   6  24
TORSDOF 5
ENDMDL
