MODEL 1
REMARK VINA RESULT:      41.4      0.000      0.000
REMARK  4 active torsions:
REMARK  status: ('A' for Active; 'I' for Inactive)
REMARK    1  A    between atoms: S_2  and  N_1 
REMARK    2  A    between atoms: C_6  and  S_2 
REMARK    3  A    between atoms: C_10  and  C_6 
REMARK    4  A    between atoms: C_11  and  C_10 
ROOT
ATOM      1  S   UNL d   1     -49.869  26.665  33.712  0.00  0.00     0.287 S 
ATOM      2  O   UNL d   1     -50.578  26.823  34.107  0.00  0.00    -0.198 OA
ATOM      3  O   UNL d   1     -49.172  26.496  33.316  0.00  0.00    -0.198 OA
ENDROOT
BRANCH   1   4
ATOM      4  N   UNL d   1     -49.556  27.387  33.944  0.00  0.00    -0.152 N 
ATOM      5  N   UNL d   1     -48.875  27.487  34.407  0.00  0.00    -0.155 NA
ATOM      6  C   UNL d   1     -48.762  28.302  34.507  0.00  0.00     0.104 A 
ATOM      7  C   UNL d   1     -48.149  28.658  34.931  0.00  0.00     0.022 C 
ATOM      8  C   UNL d   1     -49.372  28.691  34.106  0.00  0.00     0.041 A 
ATOM      9  C   UNL d   1     -49.862  28.128  33.759  0.00  0.00     0.096 A 
ATOM     10  C   UNL d   1     -50.533  28.279  33.310  0.00  0.00     0.022 C 
ENDBRANCH   1   4
BRANCH   1  11
ATOM     11  C   UNL d   1     -50.168  25.933  33.468  0.00  0.00     0.117 C 
BRANCH  11  12
ATOM     12  C   UNL d   1     -50.989  25.826  33.400  0.00  0.00     0.014 C 
BRANCH  12  13
ATOM     13  C   UNL d   1     -51.309  25.067  33.395  0.00  0.00     0.001 A 
ATOM     14  C   UNL d   1     -50.820  24.421  33.311  0.00  0.00     0.000 A 
ATOM     15  C   UNL d   1     -51.140  23.663  33.306  0.00  0.00     0.000 A 
ATOM     16  C   UNL d   1     -51.956  23.557  33.387  0.00  0.00     0.000 A 
ATOM     17  C   UNL d   1     -52.446  24.215  33.472  0.00  0.00     0.000 A 
ATOM     18  C   UNL d   1     -52.125  24.974  33.477  0.00  0.00     0.000 A 
ENDBRANCH  12  13
ENDBRANCH  11  12
ENDBRANCH   1  11
TORSDOF 4
ENDMDL
MODEL 2
REMARK VINA RESULT:      41.4      1.221      4.095
REMARK  4 active torsions:
REMARK  status: ('A' for Active; 'I' for Inactive)
REMARK    1  A    between atoms: S_2  and  N_1 
REMARK    2  A    between atoms: C_6  and  S_2 
REMARK    3  A    between atoms: C_10  and  C_6 
REMARK    4  A    between atoms: C_11  and  C_10 
ROOT
ATOM      1  S   UNL d   1     -50.519  25.897  33.421  0.00  0.00     0.287 S 
ATOM      2  O   UNL d   1     -49.869  25.399  33.307  0.00  0.00    -0.198 OA
ATOM      3  O   UNL d   1     -51.154  26.403  33.534  0.00  0.00    -0.198 OA
ENDROOT
BRANCH   1   4
ATOM      4  N   UNL d   1     -51.037  25.263  33.382  0.00  0.00    -0.152 N 
ATOM      5  N   UNL d   1     -50.817  24.463  33.388  0.00  0.00    -0.155 NA
ATOM      6  C   UNL d   1     -51.513  24.015  33.340  0.00  0.00     0.104 A 
ATOM      7  C   UNL d   1     -51.559  23.190  33.329  0.00  0.00     0.022 C 
ATOM      8  C   UNL d   1     -52.149  24.543  33.306  0.00  0.00     0.041 A 
ATOM      9  C   UNL d   1     -51.857  25.312  33.332  0.00  0.00     0.096 A 
ATOM     10  C   UNL d   1     -52.303  26.001  33.312  0.00  0.00     0.022 C 
ENDBRANCH   1   4
BRANCH   1  11
ATOM     11  C   UNL d   1     -50.011  26.550  33.463  0.00  0.00     0.117 C 
BRANCH  11  12
ATOM     12  C   UNL d   1     -50.235  27.218  33.902  0.00  0.00     0.014 C 
BRANCH  12  13
ATOM     13  C   UNL d   1     -49.663  27.735  34.190  0.00  0.00     0.001 A 
ATOM     14  C   UNL d   1     -49.619  28.494  33.900  0.00  0.00     0.000 A 
ATOM     15  C   UNL d   1     -49.047  29.011  34.188  0.00  0.00     0.000 A 
ATOM     16  C   UNL d   1     -48.518  28.760  34.771  0.00  0.00     0.000 A 
ATOM     17  C   UNL d   1     -48.568  27.990  35.062  0.00  0.00     0.000 A 
ATOM     18  C   UNL d   1     -49.141  27.473  34.773  0.00  0.00     0.000 A 
ENDBRANCH  12  13
ENDBRANCH  11  12
ENDBRANCH   1  11
TORSDOF 4
ENDMDL
MODEL 3
REMARK VINA RESULT:      43.7      5.068      6.252
REMARK  4 active torsions:
REMARK  status: ('A' for Active; 'I' for Inactive)
REMARK    1  A    between atoms: S_2  and  N_1 
REMARK    2  A    between atoms: C_6  and  S_2 
REMARK    3  A    between atoms: C_10  and  C_6 
REMARK    4  A    between atoms: C_11  and  C_10 
ROOT
ATOM      1  S   UNL d   1     -47.437  31.952  34.626  0.00  0.00     0.287 S 
ATOM      2  O   UNL d   1     -47.386  32.467  35.270  0.00  0.00    -0.198 OA
ATOM      3  O   UNL d   1     -47.483  31.429  33.996  0.00  0.00    -0.198 OA
ENDROOT
BRANCH   1   4
ATOM      4  N   UNL d   1     -47.759  32.541  34.154  0.00  0.00    -0.152 N 
ATOM      5  N   UNL d   1     -48.569  32.704  34.077  0.00  0.00    -0.155 NA
ATOM      6  C   UNL d   1     -48.644  33.338  33.549  0.00  0.00     0.104 A 
ATOM      7  C   UNL d   1     -49.353  33.687  33.308  0.00  0.00     0.022 C 
ATOM      8  C   UNL d   1     -47.882  33.556  33.310  0.00  0.00     0.041 A 
ATOM      9  C   UNL d   1     -47.337  33.065  33.682  0.00  0.00     0.096 A 
ATOM     10  C   UNL d   1     -46.521  33.094  33.597  0.00  0.00     0.022 C 
ENDBRANCH   1   4
BRANCH   1  11
ATOM     11  C   UNL d   1     -47.114  31.344  35.086  0.00  0.00     0.117 C 
BRANCH  11  12
ATOM     12  C   UNL d   1     -47.273  30.552  34.894  0.00  0.00     0.014 C 
BRANCH  12  13
ATOM     13  C   UNL d   1     -47.409  30.000  35.489  0.00  0.00     0.001 A 
ATOM     14  C   UNL d   1     -47.850  29.335  35.331  0.00  0.00     0.000 A 
ATOM     15  C   UNL d   1     -47.986  28.782  35.927  0.00  0.00     0.000 A 
ATOM     16  C   UNL d   1     -47.676  28.904  36.682  0.00  0.00     0.000 A 
ATOM     17  C   UNL d   1     -47.229  29.580  36.836  0.00  0.00     0.000 A 
ATOM     18  C   UNL d   1     -47.093  30.133  36.240  0.00  0.00     0.000 A 
ENDBRANCH  12  13
ENDBRANCH  11  12
ENDBRANCH   1  11
TORSDOF 4
ENDMDL
