MODEL 1
REMARK VINA RESULT:      86.7      0.000      0.000
REMARK  5 active torsions:
REMARK  status: ('A' for Active; 'I' for Inactive)
REMARK       I    between atoms: C_3  and  N_1 
REMARK    1  A    between atoms: C_8  and  C_3 
REMARK    2  A    between atoms: S_4  and  N_9 
REMARK    3  A    between atoms: C_16  and  C_5 
REMARK    4  A    between atoms: C_10  and  C_6 
REMARK    5  A    between atoms: N_9  and  C_21 
ROOT
ATOM      1  N   UNL d   1     -48.042  30.431  34.946  0.00  0.00    -0.193 N 
ATOM      2  N   UNL d   1     -48.313  29.649  34.930  0.00  0.00    -0.163 NA
ATOM      3  C   UNL d   1     -47.543  30.755  35.518  0.00  0.00     0.303 C 
ATOM      4  C   UNL d   1     -48.363  30.821  34.288  0.00  0.00     0.088 A 
ATOM      5  C   UNL d   1     -48.797  29.557  34.269  0.00  0.00     0.103 A 
ATOM      6  C   UNL d   1     -48.824  30.282  33.876  0.00  0.00     0.040 A 
ATOM      7  O   UNL d   1     -47.322  31.550  35.456  0.00  0.00    -0.263 OA
ENDROOT
BRANCH   5   8
ATOM      8  C   UNL d   1     -49.181  28.867  34.042  0.00  0.00     0.019 A 
ATOM      9  C   UNL d   1     -49.838  28.906  33.535  0.00  0.00     0.003 A 
ATOM     10  C   UNL d   1     -50.220  28.219  33.311  0.00  0.00     0.020 A 
ATOM     11  C   UNL d   1     -49.957  27.485  33.584  0.00  0.00     0.093 A 
ATOM     12  C   UNL d   1     -49.301  27.449  34.089  0.00  0.00     0.020 A 
ATOM     13  C   UNL d   1     -48.914  28.144  34.317  0.00  0.00     0.003 A 
BRANCH  11  14
ATOM     14  N   UNL d   1     -50.336  26.789  33.362  0.00  0.00    -0.162 NA
BRANCH  14  15
ATOM     15  S   UNL d   1     -51.133  26.677  33.511  0.00  0.00     0.266 S 
ATOM     16  O   UNL d   1     -51.808  26.262  33.745  0.00  0.00    -0.203 OA
ATOM     17  O   UNL d   1     -50.860  25.924  33.724  0.00  0.00    -0.203 OA
ATOM     18  C   UNL d   1     -51.428  27.416  33.306  0.00  0.00     0.165 C 
ENDBRANCH  14  15
ENDBRANCH  11  14
ENDBRANCH   5   8
BRANCH   4  19
ATOM     19  C   UNL d   1     -48.237  31.605  34.093  0.00  0.00     0.018 A 
ATOM     20  C   UNL d   1     -48.885  32.151  34.126  0.00  0.00     0.002 A 
ATOM     21  C   UNL d   1     -48.690  32.915  33.919  0.00  0.00     0.000 A 
ATOM     22  C   UNL d   1     -47.927  33.143  33.695  0.00  0.00     0.000 A 
ATOM     23  C   UNL d   1     -47.327  32.632  33.665  0.00  0.00     0.000 A 
ATOM     24  C   UNL d   1     -47.466  31.839  33.866  0.00  0.00     0.002 A 
ENDBRANCH   4  19
BRANCH   3  25
ATOM     25  C   UNL d   1     -47.275  30.297  36.133  0.00  0.00     0.158 A 
ATOM     26  O   UNL d   1     -47.683  30.151  36.854  0.00  0.00    -0.300 OA
ATOM     27  C   UNL d   1     -47.204  29.659  37.313  0.00  0.00     0.123 A 
ATOM     28  C   UNL d   1     -46.518  29.502  36.891  0.00  0.00     0.029 A 
ATOM     29  C   UNL d   1     -46.576  29.902  36.167  0.00  0.00     0.032 A 
ENDBRANCH   3  25
TORSDOF 5
ENDMDL
