MODEL 1
REMARK VINA RESULT:      -2.7      0.000      0.000
REMARK  4 active torsions:
REMARK  status: ('A' for Active; 'I' for Inactive)
REMARK    1  A    between atoms: N_10  and  C_3 
REMARK    2  A    between atoms: C_11  and  C_4 
REMARK    3  A    between atoms: C_15  and  N_10 
REMARK       I    between atoms: C_12  and  N_13 
REMARK    4  A    between atoms: N_13  and  C_16 
ROOT
ATOM      1  C   UNL d   1     -42.261-122.963 -49.754  0.00  0.00     0.167 A 
ATOM      2  N   UNL d   1     -41.674-123.068 -50.315  0.00  0.00    -0.195 N 
ATOM      3  C   UNL d   1     -41.711-122.669 -51.037  0.00  0.00     0.167 A 
ATOM      4  C   UNL d   1     -42.077-123.425 -49.101  0.00  0.00     0.057 A 
ATOM      5  N   UNL d   1     -41.123-123.595 -50.013  0.00  0.00    -0.161 NA
ATOM      6  N   UNL d   1     -42.896-122.458 -49.905  0.00  0.00    -0.227 NA
ATOM      7  C   UNL d   1     -42.348-122.162 -51.190  0.00  0.00     0.058 A 
ATOM      8  C   UNL d   1     -41.369-123.815 -49.268  0.00  0.00     0.124 A 
ATOM      9  C   UNL d   1     -42.935-122.057 -50.629  0.00  0.00     0.086 A 
ATOM     10  C   UNL d   1     -43.564-121.545 -50.800  0.00  0.00     0.021 C 
ENDROOT
BRANCH   3  11
ATOM     11  N   UNL d   1     -41.123-122.774 -51.599  0.00  0.00    -0.227 NA
BRANCH  11  12
ATOM     12  C   UNL d   1     -41.301-122.722 -52.403  0.00  0.00     0.083 A 
ATOM     13  C   UNL d   1     -41.576-123.390 -52.801  0.00  0.00     0.021 A 
ATOM     14  C   UNL d   1     -41.757-123.342 -53.612  0.00  0.00     0.021 A 
ATOM     15  C   UNL d   1     -41.663-122.632 -54.011  0.00  0.00     0.085 A 
ATOM     16  C   UNL d   1     -41.385-121.960 -53.606  0.00  0.00     0.021 A 
ATOM     17  C   UNL d   1     -41.206-122.009 -52.804  0.00  0.00     0.021 A 
BRANCH  15  18
ATOM     18  N   UNL d   1     -41.845-122.586 -54.827  0.00  0.00    -0.208 NA
ATOM     19  C   UNL d   1     -42.462-122.107 -55.094  0.00  0.00     0.279 C 
ATOM     20  O   UNL d   1     -42.642-122.064 -55.908  0.00  0.00    -0.265 OA
ATOM     21  C   UNL d   1     -42.901-121.673 -54.553  0.00  0.00     0.068 C 
ENDBRANCH  15  18
ENDBRANCH  11  12
ENDBRANCH   3  11
BRANCH   4  22
ATOM     22  C   UNL d   1     -42.569-123.438 -48.436  0.00  0.00     0.004 A 
ATOM     23  C   UNL d   1     -42.313-123.075 -47.742  0.00  0.00     0.000 A 
ATOM     24  C   UNL d   1     -42.797-123.083 -47.074  0.00  0.00     0.000 A 
ATOM     25  C   UNL d   1     -43.541-123.458 -47.101  0.00  0.00     0.000 A 
ATOM     26  C   UNL d   1     -43.787-123.817 -47.798  0.00  0.00     0.000 A 
ATOM     27  C   UNL d   1     -43.299-123.806 -48.464  0.00  0.00     0.000 A 
ENDBRANCH   4  22
TORSDOF 4
ENDMDL
MODEL 2
REMARK VINA RESULT:      -2.0      1.042      1.503
REMARK  4 active torsions:
REMARK  status: ('A' for Active; 'I' for Inactive)
REMARK    1  A    between atoms: N_10  and  C_3 
REMARK    2  A    between atoms: C_11  and  C_4 
REMARK    3  A    between atoms: C_15  and  N_10 
REMARK       I    between atoms: C_12  and  N_13 
REMARK    4  A    between atoms: N_13  and  C_16 
ROOT
ATOM      1  C   UNL d   1     -41.742-122.531 -50.691  0.00  0.00     0.167 A 
ATOM      2  N   UNL d   1     -41.585-122.875 -51.418  0.00  0.00    -0.195 N 
ATOM      3  C   UNL d   1     -41.280-122.421 -52.037  0.00  0.00     0.167 A 
ATOM      4  C   UNL d   1     -42.037-123.111 -50.192  0.00  0.00     0.057 A 
ATOM      5  N   UNL d   1     -41.782-123.670 -51.373  0.00  0.00    -0.161 NA
ATOM      6  N   UNL d   1     -41.598-121.727 -50.570  0.00  0.00    -0.227 NA
ATOM      7  C   UNL d   1     -41.135-121.614 -51.917  0.00  0.00     0.058 A 
ATOM      8  C   UNL d   1     -42.059-123.816 -50.621  0.00  0.00     0.124 A 
ATOM      9  C   UNL d   1     -41.292-121.270 -51.190  0.00  0.00     0.086 A 
ATOM     10  C   UNL d   1     -41.139-120.462 -51.090  0.00  0.00     0.021 C 
ENDROOT
BRANCH   3  11
ATOM     11  N   UNL d   1     -41.123-122.765 -52.764  0.00  0.00    -0.227 NA
BRANCH  11  12
ATOM     12  C   UNL d   1     -41.601-122.597 -53.416  0.00  0.00     0.083 A 
ATOM     13  C   UNL d   1     -41.782-121.813 -53.595  0.00  0.00     0.021 A 
ATOM     14  C   UNL d   1     -42.264-121.640 -54.251  0.00  0.00     0.021 A 
ATOM     15  C   UNL d   1     -42.557-122.249 -54.716  0.00  0.00     0.085 A 
ATOM     16  C   UNL d   1     -42.372-123.039 -54.532  0.00  0.00     0.021 A 
ATOM     17  C   UNL d   1     -41.895-123.209 -53.883  0.00  0.00     0.021 A 
BRANCH  15  18
ATOM     18  N   UNL d   1     -43.041-122.072 -55.375  0.00  0.00    -0.208 NA
ATOM     19  C   UNL d   1     -42.707-121.874 -56.103  0.00  0.00     0.279 C 
ATOM     20  O   UNL d   1     -43.193-121.698 -56.759  0.00  0.00    -0.265 OA
ATOM     21  C   UNL d   1     -41.890-121.849 -56.180  0.00  0.00     0.068 C 
ENDBRANCH  15  18
ENDBRANCH  11  12
ENDBRANCH   3  11
BRANCH   4  22
ATOM     22  C   UNL d   1     -42.250-122.935 -49.413  0.00  0.00     0.004 A 
ATOM     23  C   UNL d   1     -41.661-122.892 -48.837  0.00  0.00     0.000 A 
ATOM     24  C   UNL d   1     -41.864-122.717 -48.057  0.00  0.00     0.000 A 
ATOM     25  C   UNL d   1     -42.661-122.585 -47.852  0.00  0.00     0.000 A 
ATOM     26  C   UNL d   1     -43.240-122.629 -48.432  0.00  0.00     0.000 A 
ATOM     27  C   UNL d   1     -43.032-122.805 -49.212  0.00  0.00     0.000 A 
ENDBRANCH   4  22
TORSDOF 4
ENDMDL
