MODEL 1
REMARK VINA RESULT:      -3.4      0.000      0.000
REMARK  1 active torsions:
REMARK  status: ('A' for Active; 'I' for Inactive)
REMARK    1  A    between atoms: C_7  and  C_2 
ROOT
ATOM      1  C   UNL d   1     -41.424-122.582 -51.798  0.00  0.00     0.074 A 
ATOM      2  C   UNL d   1     -41.524-122.189 -51.080  0.00  0.00     0.088 A 
ATOM      3  C   UNL d   1     -41.225-122.158 -52.476  0.00  0.00     0.088 A 
ATOM      4  C   UNL d   1     -41.224-120.947 -51.717  0.00  0.00     0.221 A 
ATOM      5  N   UNL d   1     -41.124-121.340 -52.436  0.00  0.00    -0.217 NA
ATOM      6  N   UNL d   1     -41.424-121.371 -51.040  0.00  0.00    -0.217 NA
ATOM      7  C   UNL d   1     -41.524-123.393 -51.834  0.00  0.00     0.199 A 
ATOM      8  S   UNL d   1     -41.124-120.128 -51.677  0.00  0.00    -0.037 SA
ATOM      9  O   UNL d   1     -41.724-123.817 -51.156  0.00  0.00    -0.286 OA
ATOM     10  C   UNL d   1     -41.125-122.543 -53.190  0.00  0.00     0.019 A 
ATOM     11  C   UNL d   1     -41.425-123.793 -52.557  0.00  0.00     0.042 A 
ATOM     12  C   UNL d   1     -41.225-123.369 -53.234  0.00  0.00     0.005 A 
ENDROOT
BRANCH   2  13
ATOM     13  C   UNL d   1     -41.723-122.614 -50.402  0.00  0.00     0.021 A 
ATOM     14  C   UNL d   1     -42.507-122.632 -50.143  0.00  0.00     0.043 A 
ATOM     15  C   UNL d   1     -42.705-123.054 -49.468  0.00  0.00     0.196 A 
ATOM     16  O   UNL d   1     -43.488-123.072 -49.208  0.00  0.00    -0.287 OA
ATOM     17  C   UNL d   1     -42.122-123.461 -49.049  0.00  0.00     0.042 A 
ATOM     18  C   UNL d   1     -41.339-123.443 -49.310  0.00  0.00     0.003 A 
ATOM     19  C   UNL d   1     -41.141-123.020 -49.984  0.00  0.00     0.002 A 
ENDBRANCH   2  13
TORSDOF 1
ENDMDL
MODEL 2
REMARK VINA RESULT:      -3.3      1.448      3.184
REMARK  1 active torsions:
REMARK  status: ('A' for Active; 'I' for Inactive)
REMARK    1  A    between atoms: C_7  and  C_2 
ROOT
ATOM      1  C   UNL d   1     -41.421-122.466 -52.071  0.00  0.00     0.074 A 
ATOM      2  C   UNL d   1     -41.457-121.918 -52.687  0.00  0.00     0.088 A 
ATOM      3  C   UNL d   1     -41.285-122.210 -51.300  0.00  0.00     0.088 A 
ATOM      4  C   UNL d   1     -41.222-120.858 -51.759  0.00  0.00     0.221 A 
ATOM      5  N   UNL d   1     -41.186-121.406 -51.143  0.00  0.00    -0.217 NA
ATOM      6  N   UNL d   1     -41.358-121.114 -52.531  0.00  0.00    -0.217 NA
ATOM      7  C   UNL d   1     -41.520-123.262 -52.230  0.00  0.00     0.199 A 
ATOM      8  S   UNL d   1     -41.123-120.054 -51.602  0.00  0.00    -0.037 SA
ATOM      9  O   UNL d   1     -41.655-123.518 -53.002  0.00  0.00    -0.286 OA
ATOM     10  C   UNL d   1     -41.248-122.749 -50.686  0.00  0.00     0.019 A 
ATOM     11  C   UNL d   1     -41.484-123.817 -51.612  0.00  0.00     0.042 A 
ATOM     12  C   UNL d   1     -41.348-123.562 -50.840  0.00  0.00     0.005 A 
ENDROOT
BRANCH   2  13
ATOM     13  C   UNL d   1     -41.593-122.175 -53.459  0.00  0.00     0.021 A 
ATOM     14  C   UNL d   1     -42.199-121.836 -53.905  0.00  0.00     0.043 A 
ATOM     15  C   UNL d   1     -42.334-122.090 -54.673  0.00  0.00     0.196 A 
ATOM     16  O   UNL d   1     -42.940-121.752 -55.120  0.00  0.00    -0.287 OA
ATOM     17  C   UNL d   1     -41.863-122.685 -54.999  0.00  0.00     0.042 A 
ATOM     18  C   UNL d   1     -41.258-123.023 -54.552  0.00  0.00     0.003 A 
ATOM     19  C   UNL d   1     -41.123-122.769 -53.785  0.00  0.00     0.002 A 
ENDBRANCH   2  13
TORSDOF 1
ENDMDL
MODEL 3
REMARK VINA RESULT:      -2.0      1.355      1.873
REMARK  1 active torsions:
REMARK  status: ('A' for Active; 'I' for Inactive)
REMARK    1  A    between atoms: C_7  and  C_2 
ROOT
ATOM      1  C   UNL d   1     -41.556-122.239 -51.697  0.00  0.00     0.074 A 
ATOM      2  C   UNL d   1     -41.772-123.027 -51.584  0.00  0.00     0.088 A 
ATOM      3  C   UNL d   1     -41.340-121.975 -52.447  0.00  0.00     0.088 A 
ATOM      4  C   UNL d   1     -41.557-123.287 -52.971  0.00  0.00     0.221 A 
ATOM      5  N   UNL d   1     -41.340-122.499 -53.085  0.00  0.00    -0.217 NA
ATOM      6  N   UNL d   1     -41.773-123.551 -52.221  0.00  0.00    -0.217 NA
ATOM      7  C   UNL d   1     -41.557-121.723 -51.063  0.00  0.00     0.199 A 
ATOM      8  S   UNL d   1     -41.557-123.812 -53.609  0.00  0.00    -0.037 SA
ATOM      9  O   UNL d   1     -41.773-121.987 -50.312  0.00  0.00    -0.286 OA
ATOM     10  C   UNL d   1     -41.125-121.195 -52.565  0.00  0.00     0.019 A 
ATOM     11  C   UNL d   1     -41.340-120.927 -51.174  0.00  0.00     0.042 A 
ATOM     12  C   UNL d   1     -41.124-120.663 -51.924  0.00  0.00     0.005 A 
ENDROOT
BRANCH   2  13
ATOM     13  C   UNL d   1     -41.988-123.291 -50.832  0.00  0.00     0.021 A 
ATOM     14  C   UNL d   1     -42.786-123.383 -50.642  0.00  0.00     0.043 A 
ATOM     15  C   UNL d   1     -43.000-123.645 -49.895  0.00  0.00     0.196 A 
ATOM     16  O   UNL d   1     -43.798-123.738 -49.704  0.00  0.00    -0.287 OA
ATOM     17  C   UNL d   1     -42.419-123.817 -49.335  0.00  0.00     0.042 A 
ATOM     18  C   UNL d   1     -41.622-123.724 -49.527  0.00  0.00     0.003 A 
ATOM     19  C   UNL d   1     -41.407-123.462 -50.273  0.00  0.00     0.002 A 
ENDBRANCH   2  13
TORSDOF 1
ENDMDL
