MODEL 1
REMARK VINA RESULT:      42.9      0.000      0.000
REMARK  2 active torsions:
REMARK  status: ('A' for Active; 'I' for Inactive)
REMARK    1  A    between atoms: C_7  and  N_2 
REMARK    2  A    between atoms: C_9  and  C_5 
ROOT
ATOM      1  C   UNL d   1      14.255  12.888  -2.763  0.00  0.00     0.208 A 
ATOM      2  N   UNL d   1      13.912  13.327  -3.376  0.00  0.00    -0.266 N 
ATOM      3  N   UNL d   1      14.538  13.274  -2.097  0.00  0.00    -0.199 NA
ATOM      4  N   UNL d   1      14.144  14.533  -2.643  0.00  0.00    -0.206 NA
ATOM      5  C   UNL d   1      14.487  14.094  -2.030  0.00  0.00     0.167 A 
ATOM      6  C   UNL d   1      13.861  14.142  -3.310  0.00  0.00     0.186 A 
ATOM      7  S   UNL d   1      14.317  12.066  -2.809  0.00  0.00    -0.038 SA
ENDROOT
BRANCH   2   8
ATOM      8  C   UNL d   1      13.631  12.945  -4.038  0.00  0.00     0.068 A 
ATOM      9  C   UNL d   1      13.751  13.262  -4.767  0.00  0.00     0.018 A 
ATOM     10  C   UNL d   1      13.465  12.879  -5.465  0.00  0.00     0.002 A 
ATOM     11  C   UNL d   1      13.059  12.172  -5.386  0.00  0.00     0.000 A 
ATOM     12  C   UNL d   1      12.935  11.846  -4.639  0.00  0.00     0.002 A 
ATOM     13  C   UNL d   1      12.770  11.780  -6.064  0.00  0.00     0.000 C 
ATOM     14  C   UNL d   1      13.225  12.238  -3.958  0.00  0.00     0.018 A 
ENDBRANCH   2   8
BRANCH   5  15
ATOM     15  C   UNL d   1      14.767  14.464  -1.373  0.00  0.00     0.036 A 
ATOM     16  C   UNL d   1      14.805  15.291  -1.343  0.00  0.00     0.003 A 
ATOM     17  C   UNL d   1      15.090  15.676  -0.678  0.00  0.00     0.000 A 
ATOM     18  C   UNL d   1      15.347  15.228  -0.016  0.00  0.00     0.000 A 
ATOM     19  C   UNL d   1      15.312  14.408  -0.037  0.00  0.00     0.000 A 
ATOM     20  C   UNL d   1      15.024  14.016  -0.711  0.00  0.00     0.003 A 
ENDBRANCH   5  15
TORSDOF 2
ENDMDL
