MODEL 1
REMARK VINA RESULT:      39.4      0.000      0.000
REMARK  2 active torsions:
REMARK  status: ('A' for Active; 'I' for Inactive)
REMARK    1  A    between atoms: C_11  and  N_1 
REMARK    2  A    between atoms: C_16  and  C_11 
ROOT
ATOM      1  C   UNL d   1      13.028  11.946  -3.826  0.00  0.00     0.086 C 
ENDROOT
BRANCH   1   2
ATOM      2  N   UNL d   1      13.205  12.588  -4.308  0.00  0.00    -0.240 N 
ATOM      3  C   UNL d   1      13.533  12.544  -5.063  0.00  0.00     0.267 A 
ATOM      4  C   UNL d   1      13.618  13.318  -5.347  0.00  0.00     0.061 A 
ATOM      5  O   UNL d   1      13.738  11.860  -5.465  0.00  0.00    -0.267 OA
ATOM      6  C   UNL d   1      13.908  13.612  -6.054  0.00  0.00     0.005 A 
ATOM      7  C   UNL d   1      13.343  13.834  -4.767  0.00  0.00     0.061 A 
ATOM      8  C   UNL d   1      13.924  14.426  -6.181  0.00  0.00     0.000 A 
ATOM      9  C   UNL d   1      13.651  14.941  -5.604  0.00  0.00     0.000 A 
ATOM     10  C   UNL d   1      13.358  14.639  -4.892  0.00  0.00     0.005 A 
ATOM     11  C   UNL d   1      13.089  13.381  -4.126  0.00  0.00     0.267 A 
ATOM     12  O   UNL d   1      12.770  13.679  -3.420  0.00  0.00    -0.267 OA
ENDBRANCH   1   2
BRANCH   1  13
ATOM     13  C   UNL d   1      13.310  11.915  -3.043  0.00  0.00     0.018 A 
ATOM     14  C   UNL d   1      14.122  11.933  -2.902  0.00  0.00     0.003 A 
ATOM     15  C   UNL d   1      14.402  11.901  -2.111  0.00  0.00     0.018 A 
ATOM     16  C   UNL d   1      15.164  11.908  -1.794  0.00  0.00     0.019 A 
ATOM     17  C   UNL d   1      13.862  11.852  -1.485  0.00  0.00     0.064 A 
ATOM     18  C   UNL d   1      15.107  11.864  -0.972  0.00  0.00     0.064 A 
ATOM     19  C   UNL d   1      15.737  11.856  -0.440  0.00  0.00     0.019 C 
ATOM     20  N   UNL d   1      14.302  11.830  -0.787  0.00  0.00    -0.304 N 
ATOM     21  C   UNL d   1      13.987  11.781  -0.014  0.00  0.00     0.099 C 
ATOM     22  C   UNL d   1      13.049  11.835  -1.632  0.00  0.00     0.018 A 
ATOM     23  C   UNL d   1      12.771  11.866  -2.405  0.00  0.00     0.003 A 
ENDBRANCH   1  13
TORSDOF 2
ENDMDL
MODEL 2
REMARK VINA RESULT:      40.5      1.105      4.363
REMARK  2 active torsions:
REMARK  status: ('A' for Active; 'I' for Inactive)
REMARK    1  A    between atoms: C_11  and  N_1 
REMARK    2  A    between atoms: C_16  and  C_11 
ROOT
ATOM      1  C   UNL d   1      12.913  11.923  -2.524  0.00  0.00     0.086 C 
ENDROOT
BRANCH   1   2
ATOM      2  N   UNL d   1      13.557  11.890  -2.013  0.00  0.00    -0.240 N 
ATOM      3  C   UNL d   1      13.514  11.875  -1.190  0.00  0.00     0.267 A 
ATOM      4  C   UNL d   1      14.289  11.841  -0.898  0.00  0.00     0.061 A 
ATOM      5  O   UNL d   1      12.831  11.890  -0.737  0.00  0.00    -0.267 OA
ATOM      6  C   UNL d   1      14.585  11.816  -0.136  0.00  0.00     0.005 A 
ATOM      7  C   UNL d   1      14.804  11.836  -1.542  0.00  0.00     0.061 A 
ATOM      8  C   UNL d   1      15.400  11.784  -0.015  0.00  0.00     0.000 A 
ATOM      9  C   UNL d   1      15.914  11.779  -0.654  0.00  0.00     0.000 A 
ATOM     10  C   UNL d   1      15.610  11.805  -1.423  0.00  0.00     0.005 A 
ATOM     11  C   UNL d   1      14.349  11.866  -2.229  0.00  0.00     0.267 A 
ATOM     12  O   UNL d   1      14.645  11.871  -3.004  0.00  0.00    -0.267 OA
ENDBRANCH   1   2
BRANCH   1  13
ATOM     13  C   UNL d   1      12.956  12.362  -3.231  0.00  0.00     0.018 A 
ATOM     14  C   UNL d   1      12.928  13.185  -3.200  0.00  0.00     0.003 A 
ATOM     15  C   UNL d   1      12.971  13.624  -3.916  0.00  0.00     0.018 A 
ATOM     16  C   UNL d   1      12.958  14.434  -4.068  0.00  0.00     0.019 A 
ATOM     17  C   UNL d   1      13.042  13.225  -4.638  0.00  0.00     0.064 A 
ATOM     18  C   UNL d   1      13.020  14.550  -4.882  0.00  0.00     0.064 A 
ATOM     19  C   UNL d   1      13.028  15.277  -5.272  0.00  0.00     0.019 C 
ATOM     20  N   UNL d   1      13.071  13.801  -5.230  0.00  0.00    -0.304 N 
ATOM     21  C   UNL d   1      13.141  13.654  -6.049  0.00  0.00     0.099 C 
ATOM     22  C   UNL d   1      13.070  12.400  -4.663  0.00  0.00     0.018 A 
ATOM     23  C   UNL d   1      13.027  11.968  -3.965  0.00  0.00     0.003 A 
ENDBRANCH   1  13
TORSDOF 2
ENDMDL
