MODEL 1
REMARK VINA RESULT:      -2.4      0.000      0.000
REMARK  4 active torsions:
REMARK  status: ('A' for Active; 'I' for Inactive)
REMARK    1  A    between atoms: P_2  and  C_1 
REMARK    2  A    between atoms: N_3  and  C_1 
REMARK    3  A    between atoms: C_5  and  C_1 
REMARK       I    between atoms: C_4  and  N_3 
REMARK    4  A    between atoms: C_6  and  C_4 
ROOT
ATOM      1  C   UNL d   1      31.704  16.465 -23.867  0.00  0.00     0.196 C 
ENDROOT
BRANCH   1   2
ATOM      2  P   UNL d   1      31.949  17.236 -24.101  0.00  0.00     0.317 P 
ATOM      3  O   UNL d   1      31.871  17.034 -24.900  0.00  0.00    -0.635 OA
ATOM      4  O   UNL d   1      32.197  18.015 -24.307  0.00  0.00    -0.635 OA
ATOM      5  O   UNL d   1      32.028  17.441 -23.277  0.00  0.00    -0.635 OA
ENDBRANCH   1   2
BRANCH   1   6
ATOM      6  N   UNL d   1      30.975  16.326 -23.480  0.00  0.00    -0.201 NA
ATOM      7  C   UNL d   1      30.332  16.057 -23.902  0.00  0.00     0.255 C 
ATOM      8  O   UNL d   1      30.409  15.926 -24.707  0.00  0.00    -0.270 OA
BRANCH   7   9
ATOM      9  C   UNL d   1      29.627  15.924 -23.521  0.00  0.00     0.073 C 
ATOM     10  C   UNL d   1      28.932  16.251 -23.823  0.00  0.00     0.009 C 
ATOM     11  C   UNL d   1      29.608  15.461 -22.832  0.00  0.00     0.009 C 
ATOM     12  C   UNL d   1      28.826  15.795 -23.121  0.00  0.00     0.009 C 
ENDBRANCH   7   9
ENDBRANCH   1   6
BRANCH   1  13
ATOM     13  C   UNL d   1      32.196  15.826 -24.024  0.00  0.00     0.142 C 
ATOM     14 CL   UNL d   1      32.516  15.498 -23.396  0.00  0.00    -0.068 Cl
ATOM     15 CL   UNL d   1      32.320  15.570 -24.847  0.00  0.00    -0.068 Cl
ENDBRANCH   1  13
TORSDOF 4
ENDMDL
MODEL 2
REMARK VINA RESULT:      -2.3      2.198      3.005
REMARK  4 active torsions:
REMARK  status: ('A' for Active; 'I' for Inactive)
REMARK    1  A    between atoms: P_2  and  C_1 
REMARK    2  A    between atoms: N_3  and  C_1 
REMARK    3  A    between atoms: C_5  and  C_1 
REMARK       I    between atoms: C_4  and  N_3 
REMARK    4  A    between atoms: C_6  and  C_4 
ROOT
ATOM      1  C   UNL d   1      29.214  16.504 -24.406  0.00  0.00     0.196 C 
ENDROOT
BRANCH   1   2
ATOM      2  P   UNL d   1      28.828  17.249 -24.335  0.00  0.00     0.317 P 
ATOM      3  O   UNL d   1      28.522  17.036 -23.596  0.00  0.00    -0.635 OA
ATOM      4  O   UNL d   1      28.452  18.001 -24.290  0.00  0.00    -0.635 OA
ATOM      5  O   UNL d   1      29.144  17.465 -25.097  0.00  0.00    -0.635 OA
ENDBRANCH   1   2
BRANCH   1   6
ATOM      6  N   UNL d   1      30.046  16.436 -24.472  0.00  0.00    -0.201 NA
ATOM      7  C   UNL d   1      30.493  16.228 -23.824  0.00  0.00     0.255 C 
ATOM      8  O   UNL d   1      30.117  16.087 -23.110  0.00  0.00    -0.270 OA
BRANCH   7   9
ATOM      9  C   UNL d   1      31.300  16.164 -23.894  0.00  0.00     0.073 C 
ATOM     10  C   UNL d   1      31.784  16.758 -23.587  0.00  0.00     0.009 C 
ATOM     11  C   UNL d   1      31.633  15.504 -24.272  0.00  0.00     0.009 C 
ATOM     12  C   UNL d   1      32.201  16.123 -23.955  0.00  0.00     0.009 C 
ENDBRANCH   7   9
ENDBRANCH   1   6
BRANCH   1  13
ATOM     13  C   UNL d   1      28.761  15.818 -24.412  0.00  0.00     0.142 C 
ATOM     14 CL   UNL d   1      28.728  15.453 -25.097  0.00  0.00    -0.068 Cl
ATOM     15 CL   UNL d   1      28.364  15.559 -23.680  0.00  0.00    -0.068 Cl
ENDBRANCH   1  13
TORSDOF 4
ENDMDL
MODEL 3
REMARK VINA RESULT:      -2.1      1.728      3.031
REMARK  4 active torsions:
REMARK  status: ('A' for Active; 'I' for Inactive)
REMARK    1  A    between atoms: P_2  and  C_1 
REMARK    2  A    between atoms: N_3  and  C_1 
REMARK    3  A    between atoms: C_5  and  C_1 
REMARK       I    between atoms: C_4  and  N_3 
REMARK    4  A    between atoms: C_6  and  C_4 
ROOT
ATOM      1  C   UNL d   1      31.712  16.683 -24.172  0.00  0.00     0.196 C 
ENDROOT
BRANCH   1   2
ATOM      2  P   UNL d   1      30.900  16.550 -23.990  0.00  0.00     0.317 P 
ATOM      3  O   UNL d   1      31.106  16.142 -23.300  0.00  0.00    -0.635 OA
ATOM      4  O   UNL d   1      30.081  16.430 -23.833  0.00  0.00    -0.635 OA
ATOM      5  O   UNL d   1      30.691  16.970 -24.702  0.00  0.00    -0.635 OA
ENDBRANCH   1   2
BRANCH   1   6
ATOM      6  N   UNL d   1      32.050  17.448 -24.171  0.00  0.00    -0.201 NA
ATOM      7  C   UNL d   1      32.495  17.699 -23.537  0.00  0.00     0.255 C 
ATOM      8  O   UNL d   1      32.607  17.193 -22.903  0.00  0.00    -0.270 OA
BRANCH   7   9
ATOM      9  C   UNL d   1      32.822  18.443 -23.542  0.00  0.00     0.073 C 
ATOM     10  C   UNL d   1      32.863  18.875 -22.839  0.00  0.00     0.009 C 
ATOM     11  C   UNL d   1      33.110  18.766 -24.250  0.00  0.00     0.009 C 
ATOM     12  C   UNL d   1      33.178  19.274 -23.513  0.00  0.00     0.009 C 
ENDBRANCH   7   9
ENDBRANCH   1   6
BRANCH   1  13
ATOM     13  C   UNL d   1      32.190  16.040 -24.356  0.00  0.00     0.142 C 
ATOM     14 CL   UNL d   1      32.422  16.007 -25.097  0.00  0.00    -0.068 Cl
ATOM     15 CL   UNL d   1      32.394  15.464 -23.735  0.00  0.00    -0.068 Cl
ENDBRANCH   1  13
TORSDOF 4
ENDMDL
