MODEL 1
REMARK VINA RESULT:      -5.6      0.000      0.000
REMARK  1 active torsions:
REMARK  status: ('A' for Active; 'I' for Inactive)
REMARK    1  A    between atoms: C_9  and  N_4 
ROOT
ATOM      1  C   UNL d   1     -41.380-121.996 -51.877  0.00  0.00     0.096 A 
ATOM      2  C   UNL d   1     -41.483-122.756 -52.159  0.00  0.00     0.109 A 
ATOM      3  N   UNL d   1     -41.648-123.249 -51.525  0.00  0.00    -0.162 NA
ATOM      4  N   UNL d   1     -41.646-122.781 -50.845  0.00  0.00    -0.195 N 
ATOM      5  C   UNL d   1     -41.481-122.013 -51.066  0.00  0.00     0.283 A 
ATOM      6  C   UNL d   1     -41.205-121.374 -52.401  0.00  0.00     0.105 A 
ATOM      7  C   UNL d   1     -41.413-122.903 -52.962  0.00  0.00     0.037 A 
ATOM      8  N   UNL d   1     -41.135-121.526 -53.204  0.00  0.00    -0.244 NA
ATOM      9  C   UNL d   1     -41.239-122.294 -53.492  0.00  0.00     0.083 A 
ATOM     10  O   UNL d   1     -41.426-121.366 -50.556  0.00  0.00    -0.265 OA
ATOM     11  C   UNL d   1     -41.516-123.669 -53.251  0.00  0.00     0.003 A 
ATOM     12  C   UNL d   1     -41.169-122.450 -54.301  0.00  0.00     0.019 A 
ATOM     13  C   UNL d   1     -41.444-123.817 -54.061  0.00  0.00     0.000 A 
ATOM     14  C   UNL d   1     -41.273-123.213 -54.582  0.00  0.00     0.002 A 
ENDROOT
BRANCH   4  15
ATOM     15  C   UNL d   1     -41.786-123.042 -50.074  0.00  0.00     0.086 A 
ATOM     16  C   UNL d   1     -42.534-122.940 -49.736  0.00  0.00     0.020 A 
ATOM     17  C   UNL d   1     -42.677-123.196 -48.974  0.00  0.00     0.013 A 
ATOM     18  C   UNL d   1     -42.076-123.558 -48.538  0.00  0.00     0.058 A 
ATOM     19  C   UNL d   1     -41.328-123.660 -48.877  0.00  0.00     0.013 A 
ATOM     20 CL   UNL d   1     -42.212-123.815 -47.780  0.00  0.00    -0.082 Cl
ATOM     21  C   UNL d   1     -41.183-123.406 -49.635  0.00  0.00     0.020 A 
ENDBRANCH   4  15
TORSDOF 1
ENDMDL
MODEL 2
REMARK VINA RESULT:      -4.0      2.101      4.160
REMARK  1 active torsions:
REMARK  status: ('A' for Active; 'I' for Inactive)
REMARK    1  A    between atoms: C_9  and  N_4 
ROOT
ATOM      1  C   UNL d   1     -41.385-121.685 -51.645  0.00  0.00     0.096 A 
ATOM      2  C   UNL d   1     -41.703-122.430 -51.545  0.00  0.00     0.109 A 
ATOM      3  N   UNL d   1     -41.911-122.726 -52.280  0.00  0.00    -0.162 NA
ATOM      4  N   UNL d   1     -41.716-122.152 -52.839  0.00  0.00    -0.195 N 
ATOM      5  C   UNL d   1     -41.393-121.513 -52.445  0.00  0.00     0.283 A 
ATOM      6  C   UNL d   1     -41.123-121.247 -50.988  0.00  0.00     0.105 A 
ATOM      7  C   UNL d   1     -41.763-122.746 -50.791  0.00  0.00     0.037 A 
ATOM      8  N   UNL d   1     -41.185-121.567 -50.236  0.00  0.00    -0.244 NA
ATOM      9  C   UNL d   1     -41.507-122.322 -50.131  0.00  0.00     0.083 A 
ATOM     10  O   UNL d   1     -41.123-120.817 -52.795  0.00  0.00    -0.265 OA
ATOM     11  C   UNL d   1     -42.084-123.499 -50.684  0.00  0.00     0.003 A 
ATOM     12  C   UNL d   1     -41.571-122.647 -49.373  0.00  0.00     0.019 A 
ATOM     13  C   UNL d   1     -42.144-123.817 -49.924  0.00  0.00     0.000 A 
ATOM     14  C   UNL d   1     -41.890-123.395 -49.273  0.00  0.00     0.002 A 
ENDROOT
BRANCH   4  15
ATOM     15  C   UNL d   1     -41.827-122.209 -53.655  0.00  0.00     0.086 A 
ATOM     16  C   UNL d   1     -42.477-121.839 -54.008  0.00  0.00     0.020 A 
ATOM     17  C   UNL d   1     -42.591-121.892 -54.815  0.00  0.00     0.013 A 
ATOM     18  C   UNL d   1     -42.057-122.316 -55.281  0.00  0.00     0.058 A 
ATOM     19  C   UNL d   1     -41.407-122.686 -54.928  0.00  0.00     0.013 A 
ATOM     20 CL   UNL d   1     -42.165-122.373 -56.085  0.00  0.00    -0.082 Cl
ATOM     21  C   UNL d   1     -41.291-122.634 -54.126  0.00  0.00     0.020 A 
ENDBRANCH   4  15
TORSDOF 1
ENDMDL
MODEL 3
REMARK VINA RESULT:      -3.8      1.769      4.413
REMARK  1 active torsions:
REMARK  status: ('A' for Active; 'I' for Inactive)
REMARK    1  A    between atoms: C_9  and  N_4 
ROOT
ATOM      1  C   UNL d   1     -42.790-122.657 -49.529  0.00  0.00     0.096 A 
ATOM      2  C   UNL d   1     -42.095-123.032 -49.323  0.00  0.00     0.109 A 
ATOM      3  N   UNL d   1     -41.643-123.135 -49.999  0.00  0.00    -0.162 NA
ATOM      4  N   UNL d   1     -42.071-122.817 -50.629  0.00  0.00    -0.195 N 
ATOM      5  C   UNL d   1     -42.775-122.525 -50.336  0.00  0.00     0.283 A 
ATOM      6  C   UNL d   1     -43.360-122.480 -48.950  0.00  0.00     0.105 A 
ATOM      7  C   UNL d   1     -41.960-123.233 -48.539  0.00  0.00     0.037 A 
ATOM      8  N   UNL d   1     -43.222-122.683 -48.168  0.00  0.00    -0.244 NA
ATOM      9  C   UNL d   1     -42.518-123.062 -47.955  0.00  0.00     0.083 A 
ATOM     10  O   UNL d   1     -43.367-122.160 -50.780  0.00  0.00    -0.265 OA
ATOM     11  C   UNL d   1     -41.259-123.612 -48.326  0.00  0.00     0.003 A 
ATOM     12  C   UNL d   1     -42.375-123.268 -47.167  0.00  0.00     0.019 A 
ATOM     13  C   UNL d   1     -41.123-123.815 -47.536  0.00  0.00     0.000 A 
ATOM     14  C   UNL d   1     -41.677-123.644 -46.961  0.00  0.00     0.002 A 
ENDROOT
BRANCH   4  15
ATOM     15  C   UNL d   1     -41.832-122.797 -51.419  0.00  0.00     0.086 A 
ATOM     16  C   UNL d   1     -41.948-123.460 -51.900  0.00  0.00     0.020 A 
ATOM     17  C   UNL d   1     -41.714-123.445 -52.682  0.00  0.00     0.013 A 
ATOM     18  C   UNL d   1     -41.359-122.768 -52.995  0.00  0.00     0.058 A 
ATOM     19  C   UNL d   1     -41.242-122.106 -52.514  0.00  0.00     0.013 A 
ATOM     20 CL   UNL d   1     -41.123-122.747 -53.772  0.00  0.00    -0.082 Cl
ATOM     21  C   UNL d   1     -41.475-122.118 -51.736  0.00  0.00     0.020 A 
ENDBRANCH   4  15
TORSDOF 1
ENDMDL
