MODEL 1
REMARK VINA RESULT:      -3.6      0.000      0.000
REMARK  2 active torsions:
REMARK  status: ('A' for Active; 'I' for Inactive)
REMARK    1  A    between atoms: C_7  and  C_1 
REMARK    2  A    between atoms: O_14  and  C_11 
ROOT
ATOM      1  C   UNL d   1      31.505  16.716 -23.972  0.00  0.00     0.066 A 
ATOM      2  C   UNL d   1      31.088  16.095 -23.561  0.00  0.00     0.200 A 
ATOM      3  C   UNL d   1      30.263  16.101 -23.553  0.00  0.00     0.062 A 
ATOM      4  C   UNL d   1      31.081  17.312 -24.355  0.00  0.00     0.126 A 
ATOM      5  C   UNL d   1      29.839  16.697 -23.936  0.00  0.00     0.106 A 
ATOM      6  O   UNL d   1      30.227  17.304 -24.337  0.00  0.00    -0.305 OA
ATOM      7  C   UNL d   1      29.856  15.485 -23.145  0.00  0.00     0.009 A 
ATOM      8  C   UNL d   1      28.996  16.694 -23.921  0.00  0.00     0.067 A 
ATOM      9  O   UNL d   1      31.520  15.488 -23.171  0.00  0.00    -0.286 OA
ATOM     10  C   UNL d   1      28.585  16.076 -23.513  0.00  0.00     0.198 A 
ATOM     11  C   UNL d   1      29.009  15.480 -23.130  0.00  0.00     0.042 A 
ATOM     12  O   UNL d   1      27.739  16.071 -23.497  0.00  0.00    -0.286 OA
ENDROOT
BRANCH   1  13
ATOM     13  C   UNL d   1      32.087  16.719 -23.983  0.00  0.00     0.027 A 
ATOM     14  C   UNL d   1      32.378  17.159 -23.752  0.00  0.00     0.094 A 
ATOM     15  C   UNL d   1      32.957  17.169 -23.759  0.00  0.00     0.024 A 
ATOM     16  C   UNL d   1      33.241  16.721 -24.005  0.00  0.00     0.002 A 
ATOM     17  C   UNL d   1      32.949  16.281 -24.235  0.00  0.00     0.000 A 
ATOM     18  C   UNL d   1      32.368  16.278 -24.225  0.00  0.00     0.002 A 
BRANCH  14  19
ATOM     19  O   UNL d   1      32.089  17.610 -23.505  0.00  0.00    -0.328 OA
ATOM     20  C   UNL d   1      32.380  18.058 -23.287  0.00  0.00     0.181 C 
ENDBRANCH  14  19
ENDBRANCH   1  13
TORSDOF 2
ENDMDL
MODEL 2
REMARK VINA RESULT:      -3.5      0.912      3.344
REMARK  2 active torsions:
REMARK  status: ('A' for Active; 'I' for Inactive)
REMARK    1  A    between atoms: C_7  and  C_1 
REMARK    2  A    between atoms: O_14  and  C_11 
ROOT
ATOM      1  C   UNL d   1      29.827  16.671 -24.290  0.00  0.00     0.066 A 
ATOM      2  C   UNL d   1      30.552  16.577 -23.849  0.00  0.00     0.200 A 
ATOM      3  C   UNL d   1      31.206  17.039 -24.046  0.00  0.00     0.062 A 
ATOM      4  C   UNL d   1      29.789  17.220 -24.906  0.00  0.00     0.126 A 
ATOM      5  C   UNL d   1      31.168  17.588 -24.661  0.00  0.00     0.106 A 
ATOM      6  O   UNL d   1      30.476  17.691 -25.096  0.00  0.00    -0.305 OA
ATOM      7  C   UNL d   1      31.919  16.942 -23.607  0.00  0.00     0.009 A 
ATOM      8  C   UNL d   1      31.843  18.056 -24.854  0.00  0.00     0.067 A 
ATOM      9  O   UNL d   1      30.590  16.017 -23.223  0.00  0.00    -0.286 OA
ATOM     10  C   UNL d   1      32.560  17.960 -24.414  0.00  0.00     0.198 A 
ATOM     11  C   UNL d   1      32.598  17.410 -23.799  0.00  0.00     0.042 A 
ATOM     12  O   UNL d   1      33.238  18.429 -24.607  0.00  0.00    -0.286 OA
ENDROOT
BRANCH   1  13
ATOM     13  C   UNL d   1      29.361  16.348 -24.158  0.00  0.00     0.027 A 
ATOM     14  C   UNL d   1      28.876  16.601 -23.978  0.00  0.00     0.094 A 
ATOM     15  C   UNL d   1      28.409  16.287 -23.845  0.00  0.00     0.024 A 
ATOM     16  C   UNL d   1      28.439  15.706 -23.895  0.00  0.00     0.002 A 
ATOM     17  C   UNL d   1      28.925  15.453 -24.075  0.00  0.00     0.000 A 
ATOM     18  C   UNL d   1      29.390  15.775 -24.207  0.00  0.00     0.002 A 
BRANCH  14  19
ATOM     19  O   UNL d   1      28.848  17.188 -23.928  0.00  0.00    -0.328 OA
ATOM     20  C   UNL d   1      28.361  17.442 -23.752  0.00  0.00     0.181 C 
ENDBRANCH  14  19
ENDBRANCH   1  13
TORSDOF 2
ENDMDL
MODEL 3
REMARK VINA RESULT:      -3.3      0.768      1.385
REMARK  2 active torsions:
REMARK  status: ('A' for Active; 'I' for Inactive)
REMARK    1  A    between atoms: C_7  and  C_1 
REMARK    2  A    between atoms: O_14  and  C_11 
ROOT
ATOM      1  C   UNL d   1      31.586  17.187 -24.143  0.00  0.00     0.066 A 
ATOM      2  C   UNL d   1      30.788  17.337 -24.408  0.00  0.00     0.200 A 
ATOM      3  C   UNL d   1      30.174  16.866 -24.125  0.00  0.00     0.062 A 
ATOM      4  C   UNL d   1      31.732  16.575 -23.609  0.00  0.00     0.126 A 
ATOM      5  C   UNL d   1      30.320  16.254 -23.590  0.00  0.00     0.106 A 
ATOM      6  O   UNL d   1      31.084  16.096 -23.325  0.00  0.00    -0.305 OA
ATOM      7  C   UNL d   1      29.388  17.019 -24.390  0.00  0.00     0.009 A 
ATOM      8  C   UNL d   1      29.684  15.778 -23.307  0.00  0.00     0.067 A 
ATOM      9  O   UNL d   1      30.639  17.961 -24.953  0.00  0.00    -0.286 OA
ATOM     10  C   UNL d   1      28.895  15.929 -23.572  0.00  0.00     0.198 A 
ATOM     11  C   UNL d   1      28.748  16.542 -24.107  0.00  0.00     0.042 A 
ATOM     12  O   UNL d   1      28.256  15.452 -23.289  0.00  0.00    -0.286 OA
ENDROOT
BRANCH   1  13
ATOM     13  C   UNL d   1      32.024  17.516 -24.339  0.00  0.00     0.027 A 
ATOM     14  C   UNL d   1      32.332  17.835 -23.971  0.00  0.00     0.094 A 
ATOM     15  C   UNL d   1      32.770  18.164 -24.159  0.00  0.00     0.024 A 
ATOM     16  C   UNL d   1      32.894  18.165 -24.730  0.00  0.00     0.002 A 
ATOM     17  C   UNL d   1      32.586  17.846 -25.097  0.00  0.00     0.000 A 
ATOM     18  C   UNL d   1      32.147  17.518 -24.902  0.00  0.00     0.002 A 
BRANCH  14  19
ATOM     19  O   UNL d   1      32.205  17.832 -23.396  0.00  0.00    -0.328 OA
ATOM     20  C   UNL d   1      32.525  18.137 -23.025  0.00  0.00     0.181 C 
ENDBRANCH  14  19
ENDBRANCH   1  13
TORSDOF 2
ENDMDL
MODEL 4
REMARK VINA RESULT:      -3.2      4.869      6.657
REMARK  2 active torsions:
REMARK  status: ('A' for Active; 'I' for Inactive)
REMARK    1  A    between atoms: C_7  and  C_1 
REMARK    2  A    between atoms: O_14  and  C_11 
ROOT
ATOM      1  C   UNL d   1      32.928  22.440 -20.957  0.00  0.00     0.066 A 
ATOM      2  C   UNL d   1      32.940  21.610 -20.757  0.00  0.00     0.200 A 
ATOM      3  C   UNL d   1      33.014  21.052 -21.359  0.00  0.00     0.062 A 
ATOM      4  C   UNL d   1      32.991  22.673 -21.747  0.00  0.00     0.126 A 
ATOM      5  C   UNL d   1      33.077  21.285 -22.149  0.00  0.00     0.106 A 
ATOM      6  O   UNL d   1      33.068  22.082 -22.358  0.00  0.00    -0.305 OA
ATOM      7  C   UNL d   1      33.025  20.233 -21.157  0.00  0.00     0.009 A 
ATOM      8  C   UNL d   1      33.153  20.706 -22.757  0.00  0.00     0.067 A 
ATOM      9  O   UNL d   1      32.875  21.373 -19.953  0.00  0.00    -0.286 OA
ATOM     10  C   UNL d   1      33.165  19.883 -22.556  0.00  0.00     0.198 A 
ATOM     11  C   UNL d   1      33.102  19.650 -21.766  0.00  0.00     0.042 A 
ATOM     12  O   UNL d   1      33.241  19.301 -23.165  0.00  0.00    -0.286 OA
ENDROOT
BRANCH   1  13
ATOM     13  C   UNL d   1      32.875  22.840 -20.538  0.00  0.00     0.027 A 
ATOM     14  C   UNL d   1      32.472  23.249 -20.577  0.00  0.00     0.094 A 
ATOM     15  C   UNL d   1      32.414  23.650 -20.164  0.00  0.00     0.024 A 
ATOM     16  C   UNL d   1      32.774  23.632 -19.704  0.00  0.00     0.002 A 
ATOM     17  C   UNL d   1      33.178  23.223 -19.665  0.00  0.00     0.000 A 
ATOM     18  C   UNL d   1      33.230  22.823 -20.084  0.00  0.00     0.002 A 
BRANCH  14  19
ATOM     19  O   UNL d   1      32.110  23.265 -21.042  0.00  0.00    -0.328 OA
ATOM     20  C   UNL d   1      31.718  23.686 -21.091  0.00  0.00     0.181 C 
ENDBRANCH  14  19
ENDBRANCH   1  13
TORSDOF 2
ENDMDL
MODEL 5
REMARK VINA RESULT:      -2.5      1.951      3.772
REMARK  2 active torsions:
REMARK  status: ('A' for Active; 'I' for Inactive)
REMARK    1  A    between atoms: C_7  and  C_1 
REMARK    2  A    between atoms: O_14  and  C_11 
ROOT
ATOM      1  C   UNL d   1      32.833  18.028 -23.836  0.00  0.00     0.066 A 
ATOM      2  C   UNL d   1      32.898  18.311 -23.034  0.00  0.00     0.200 A 
ATOM      3  C   UNL d   1      32.982  19.120 -22.898  0.00  0.00     0.062 A 
ATOM      4  C   UNL d   1      32.854  18.564 -24.464  0.00  0.00     0.126 A 
ATOM      5  C   UNL d   1      33.004  19.656 -23.525  0.00  0.00     0.106 A 
ATOM      6  O   UNL d   1      32.942  19.399 -24.306  0.00  0.00    -0.305 OA
ATOM      7  C   UNL d   1      33.046  19.394 -22.103  0.00  0.00     0.009 A 
ATOM      8  C   UNL d   1      33.090  20.482 -23.375  0.00  0.00     0.067 A 
ATOM      9  O   UNL d   1      32.876  17.765 -22.395  0.00  0.00    -0.286 OA
ATOM     10  C   UNL d   1      33.154  20.759 -22.577  0.00  0.00     0.198 A 
ATOM     11  C   UNL d   1      33.133  20.223 -21.950  0.00  0.00     0.042 A 
ATOM     12  O   UNL d   1      33.241  21.587 -22.425  0.00  0.00    -0.286 OA
ENDROOT
BRANCH   1  13
ATOM     13  C   UNL d   1      32.773  17.459 -23.941  0.00  0.00     0.027 A 
ATOM     14  C   UNL d   1      32.282  17.255 -24.163  0.00  0.00     0.094 A 
ATOM     15  C   UNL d   1      32.216  16.690 -24.269  0.00  0.00     0.024 A 
ATOM     16  C   UNL d   1      32.659  16.329 -24.146  0.00  0.00     0.002 A 
ATOM     17  C   UNL d   1      33.150  16.532 -23.924  0.00  0.00     0.000 A 
ATOM     18  C   UNL d   1      33.209  17.101 -23.820  0.00  0.00     0.002 A 
BRANCH  14  19
ATOM     19  O   UNL d   1      31.838  17.622 -24.286  0.00  0.00    -0.328 OA
ATOM     20  C   UNL d   1      31.354  17.421 -24.529  0.00  0.00     0.181 C 
ENDBRANCH  14  19
ENDBRANCH   1  13
TORSDOF 2
ENDMDL
