MODEL 1
REMARK VINA RESULT:       1.7      0.000      0.000
REMARK  7 active torsions:
REMARK  status: ('A' for Active; 'I' for Inactive)
REMARK    1  A    between atoms: C_7  and  C_1 
REMARK    2  A    between atoms: C_9  and  N_2 
REMARK    3  A    between atoms: C_15  and  C_7 
REMARK    4  A    between atoms: C_8  and  C_9 
REMARK       I    between atoms: N_14  and  C_8 
REMARK    5  A    between atoms: C_20  and  N_14 
REMARK    6  A    between atoms: C_33  and  C_27 
REMARK    7  A    between atoms: C_34  and  C_32 
ROOT
ATOM      1  C   UNL d   1      30.743  18.080 -24.386  0.00  0.00     0.095 A 
ATOM      2  N   UNL d   1      32.158  18.283 -24.491  0.00  0.00    -0.300 N 
ATOM      3  C   UNL d   1      30.895  17.353 -23.967  0.00  0.00     0.202 A 
ATOM      4  C   UNL d   1      31.369  18.541 -24.645  0.00  0.00     0.087 A 
ATOM      5  C   UNL d   1      31.681  17.121 -23.828  0.00  0.00     0.055 A 
ATOM      6  C   UNL d   1      32.314  17.573 -24.082  0.00  0.00     0.067 A 
ATOM      7  C   UNL d   1      33.089  17.318 -23.930  0.00  0.00     0.018 A 
ATOM      8  C   UNL d   1      31.845  16.403 -23.415  0.00  0.00     0.005 A 
ATOM      9  O   UNL d   1      30.276  16.897 -23.711  0.00  0.00    -0.286 OA
ATOM     10  C   UNL d   1      32.618  16.161 -23.270  0.00  0.00     0.000 A 
ATOM     11  C   UNL d   1      33.241  16.619 -23.528  0.00  0.00     0.002 A 
ENDROOT
BRANCH   2  12
ATOM     12  C   UNL d   1      32.780  18.740 -24.748  0.00  0.00     0.144 C 
BRANCH  12  13
ATOM     13  C   UNL d   1      32.769  19.557 -24.630  0.00  0.00     0.297 C 
ATOM     14  N   UNL d   1      33.240  19.894 -24.051  0.00  0.00    -0.207 NA
ATOM     15  O   UNL d   1      32.283  20.033 -25.096  0.00  0.00    -0.264 OA
BRANCH  14  16
ATOM     16  C   UNL d   1      33.229  20.710 -23.933  0.00  0.00     0.087 A 
ATOM     17  C   UNL d   1      33.222  21.208 -24.577  0.00  0.00     0.045 A 
ATOM     18  C   UNL d   1      33.211  22.023 -24.463  0.00  0.00     0.121 A 
ATOM     19  O   UNL d   1      33.203  22.653 -25.012  0.00  0.00    -0.299 OA
ATOM     20  C   UNL d   1      33.207  22.330 -23.695  0.00  0.00     0.119 A 
ATOM     21  C   UNL d   1      33.193  23.366 -24.578  0.00  0.00     0.304 A 
ATOM     22  O   UNL d   1      33.195  23.167 -23.760  0.00  0.00    -0.300 OA
ATOM     23  C   UNL d   1      33.213  21.832 -23.050  0.00  0.00     0.028 A 
ATOM     24  C   UNL d   1      33.224  21.016 -23.169  0.00  0.00     0.021 A 
ENDBRANCH  14  16
ENDBRANCH  12  13
ENDBRANCH   2  12
BRANCH   1  25
ATOM     25  C   UNL d   1      29.970  18.322 -24.531  0.00  0.00     0.200 C 
ATOM     26  O   UNL d   1      29.825  19.079 -24.805  0.00  0.00    -0.286 OA
BRANCH  25  27
ATOM     27  C   UNL d   1      29.342  17.807 -24.401  0.00  0.00     0.039 A 
ATOM     28  C   UNL d   1      28.905  17.835 -23.691  0.00  0.00     0.003 A 
ATOM     29  C   UNL d   1      28.268  17.316 -23.555  0.00  0.00     0.000 A 
ATOM     30  C   UNL d   1      28.066  16.767 -24.129  0.00  0.00     0.000 A 
ATOM     31  C   UNL d   1      28.514  16.749 -24.839  0.00  0.00     0.000 A 
ATOM     32  C   UNL d   1      29.150  17.265 -24.979  0.00  0.00     0.003 A 
BRANCH  30  33
ATOM     33  C   UNL d   1      27.428  16.247 -23.992  0.00  0.00     0.000 C 
ATOM     34  C   UNL d   1      27.593  15.478 -23.784  0.00  0.00     0.000 C 
ENDBRANCH  30  33
ENDBRANCH  25  27
ENDBRANCH   1  25
BRANCH  10  35
ATOM     35  C   UNL d   1      32.757  15.453 -22.863  0.00  0.00     0.000 C 
ATOM     36  C   UNL d   1      32.948  15.471 -22.050  0.00  0.00     0.000 C 
ENDBRANCH  10  35
TORSDOF 7
ENDMDL
MODEL 2
REMARK VINA RESULT:       2.1      1.561      5.259
REMARK  7 active torsions:
REMARK  status: ('A' for Active; 'I' for Inactive)
REMARK    1  A    between atoms: C_7  and  C_1 
REMARK    2  A    between atoms: C_9  and  N_2 
REMARK    3  A    between atoms: C_15  and  C_7 
REMARK    4  A    between atoms: C_8  and  C_9 
REMARK       I    between atoms: N_14  and  C_8 
REMARK    5  A    between atoms: C_20  and  N_14 
REMARK    6  A    between atoms: C_33  and  C_27 
REMARK    7  A    between atoms: C_34  and  C_32 
ROOT
ATOM      1  C   UNL d   1      32.130  18.710 -23.776  0.00  0.00     0.095 A 
ATOM      2  N   UNL d   1      31.339  17.594 -24.203  0.00  0.00    -0.300 N 
ATOM      3  C   UNL d   1      32.613  18.174 -23.321  0.00  0.00     0.202 A 
ATOM      4  C   UNL d   1      31.499  18.423 -24.213  0.00  0.00     0.087 A 
ATOM      5  C   UNL d   1      32.434  17.362 -23.328  0.00  0.00     0.055 A 
ATOM      6  C   UNL d   1      31.806  17.064 -23.761  0.00  0.00     0.067 A 
ATOM      7  C   UNL d   1      31.650  16.249 -23.750  0.00  0.00     0.018 A 
ATOM      8  C   UNL d   1      32.904  16.819 -22.883  0.00  0.00     0.005 A 
ATOM      9  O   UNL d   1      33.237  18.458 -22.890  0.00  0.00    -0.286 OA
ATOM     10  C   UNL d   1      32.738  16.013 -22.881  0.00  0.00     0.000 A 
ATOM     11  C   UNL d   1      32.110  15.728 -23.315  0.00  0.00     0.002 A 
ENDROOT
BRANCH   2  12
ATOM     12  C   UNL d   1      30.712  17.309 -24.637  0.00  0.00     0.144 C 
BRANCH  12  13
ATOM     13  C   UNL d   1      29.949  17.329 -24.323  0.00  0.00     0.297 C 
ATOM     14  N   UNL d   1      29.559  16.631 -24.149  0.00  0.00    -0.207 NA
ATOM     15  O   UNL d   1      29.581  18.054 -24.185  0.00  0.00    -0.264 OA
BRANCH  14  16
ATOM     16  C   UNL d   1      28.796  16.652 -23.836  0.00  0.00     0.087 A 
ATOM     17  C   UNL d   1      28.305  16.009 -23.932  0.00  0.00     0.045 A 
ATOM     18  C   UNL d   1      27.544  16.026 -23.621  0.00  0.00     0.121 A 
ATOM     19  O   UNL d   1      26.933  15.456 -23.636  0.00  0.00    -0.299 OA
ATOM     20  C   UNL d   1      27.282  16.696 -23.212  0.00  0.00     0.119 A 
ATOM     21  C   UNL d   1      26.278  15.777 -23.230  0.00  0.00     0.304 A 
ATOM     22  O   UNL d   1      26.494  16.546 -22.966  0.00  0.00    -0.300 OA
ATOM     23  C   UNL d   1      27.773  17.339 -23.115  0.00  0.00     0.028 A 
ATOM     24  C   UNL d   1      28.536  17.318 -23.429  0.00  0.00     0.021 A 
ENDBRANCH  14  16
ENDBRANCH  12  13
ENDBRANCH   2  12
BRANCH   1  25
ATOM     25  C   UNL d   1      32.296  19.516 -23.778  0.00  0.00     0.200 C 
ATOM     26  O   UNL d   1      32.462  19.895 -24.484  0.00  0.00    -0.286 OA
BRANCH  25  27
ATOM     27  C   UNL d   1      32.295  19.943 -23.075  0.00  0.00     0.039 A 
ATOM     28  C   UNL d   1      31.731  19.787 -22.480  0.00  0.00     0.003 A 
ATOM     29  C   UNL d   1      31.725  20.216 -21.766  0.00  0.00     0.000 A 
ATOM     30  C   UNL d   1      32.284  20.802 -21.645  0.00  0.00     0.000 A 
ATOM     31  C   UNL d   1      32.846  20.950 -22.252  0.00  0.00     0.000 A 
ATOM     32  C   UNL d   1      32.855  20.525 -22.965  0.00  0.00     0.003 A 
BRANCH  30  33
ATOM     33  C   UNL d   1      32.278  21.232 -20.930  0.00  0.00     0.000 C 
ATOM     34  C   UNL d   1      32.634  21.964 -20.914  0.00  0.00     0.000 C 
ENDBRANCH  30  33
ENDBRANCH  25  27
ENDBRANCH   1  25
BRANCH  10  35
ATOM     35  C   UNL d   1      33.212  15.498 -22.436  0.00  0.00     0.000 C 
ATOM     36  C   UNL d   1      33.116  15.457 -21.607  0.00  0.00     0.000 C 
ENDBRANCH  10  35
TORSDOF 7
ENDMDL
MODEL 3
REMARK VINA RESULT:       4.2      1.115      1.505
REMARK  7 active torsions:
REMARK  status: ('A' for Active; 'I' for Inactive)
REMARK    1  A    between atoms: C_7  and  C_1 
REMARK    2  A    between atoms: C_9  and  N_2 
REMARK    3  A    between atoms: C_15  and  C_7 
REMARK    4  A    between atoms: C_8  and  C_9 
REMARK       I    between atoms: N_14  and  C_8 
REMARK    5  A    between atoms: C_20  and  N_14 
REMARK    6  A    between atoms: C_33  and  C_27 
REMARK    7  A    between atoms: C_34  and  C_32 
ROOT
ATOM      1  C   UNL d   1      30.439  18.134 -24.652  0.00  0.00     0.095 A 
ATOM      2  N   UNL d   1      31.774  18.631 -24.805  0.00  0.00    -0.300 N 
ATOM      3  C   UNL d   1      30.763  17.369 -24.457  0.00  0.00     0.202 A 
ATOM      4  C   UNL d   1      30.939  18.758 -24.824  0.00  0.00     0.087 A 
ATOM      5  C   UNL d   1      31.588  17.270 -24.445  0.00  0.00     0.055 A 
ATOM      6  C   UNL d   1      32.098  17.888 -24.615  0.00  0.00     0.067 A 
ATOM      7  C   UNL d   1      32.918  17.761 -24.595  0.00  0.00     0.018 A 
ATOM      8  C   UNL d   1      31.923  16.518 -24.253  0.00  0.00     0.005 A 
ATOM      9  O   UNL d   1      30.268  16.751 -24.287  0.00  0.00    -0.286 OA
ATOM     10  C   UNL d   1      32.738  16.406 -24.237  0.00  0.00     0.000 A 
ATOM     11  C   UNL d   1      33.236  17.028 -24.408  0.00  0.00     0.002 A 
ENDROOT
BRANCH   2  12
ATOM     12  C   UNL d   1      32.271  19.252 -24.976  0.00  0.00     0.144 C 
BRANCH  12  13
ATOM     13  C   UNL d   1      32.397  19.847 -24.418  0.00  0.00     0.297 C 
ATOM     14  N   UNL d   1      32.749  19.669 -23.701  0.00  0.00    -0.207 NA
ATOM     15  O   UNL d   1      32.166  20.621 -24.584  0.00  0.00    -0.264 OA
BRANCH  14  16
ATOM     16  C   UNL d   1      32.875  20.263 -23.143  0.00  0.00     0.087 A 
ATOM     17  C   UNL d   1      32.896  20.072 -22.351  0.00  0.00     0.045 A 
ATOM     18  C   UNL d   1      33.021  20.663 -21.792  0.00  0.00     0.121 A 
ATOM     19  O   UNL d   1      33.069  20.627 -20.959  0.00  0.00    -0.299 OA
ATOM     20  C   UNL d   1      33.123  21.446 -22.038  0.00  0.00     0.119 A 
ATOM     21  C   UNL d   1      33.203  21.402 -20.679  0.00  0.00     0.304 A 
ATOM     22  O   UNL d   1      33.237  21.911 -21.349  0.00  0.00    -0.300 OA
ATOM     23  C   UNL d   1      33.102  21.637 -22.829  0.00  0.00     0.028 A 
ATOM     24  C   UNL d   1      32.976  21.043 -23.387  0.00  0.00     0.021 A 
ENDBRANCH  14  16
ENDBRANCH  12  13
ENDBRANCH   2  12
BRANCH   1  25
ATOM     25  C   UNL d   1      29.624  18.246 -24.668  0.00  0.00     0.200 C 
ATOM     26  O   UNL d   1      29.310  18.898 -25.051  0.00  0.00    -0.286 OA
BRANCH  25  27
ATOM     27  C   UNL d   1      29.122  17.707 -24.302  0.00  0.00     0.039 A 
ATOM     28  C   UNL d   1      29.088  17.651 -23.470  0.00  0.00     0.003 A 
ATOM     29  C   UNL d   1      28.581  17.107 -23.094  0.00  0.00     0.000 A 
ATOM     30  C   UNL d   1      28.108  16.617 -23.548  0.00  0.00     0.000 A 
ATOM     31  C   UNL d   1      28.152  16.683 -24.385  0.00  0.00     0.000 A 
ATOM     32  C   UNL d   1      28.655  17.224 -24.764  0.00  0.00     0.003 A 
BRANCH  30  33
ATOM     33  C   UNL d   1      27.601  16.072 -23.171  0.00  0.00     0.000 C 
ATOM     34  C   UNL d   1      27.934  15.456 -22.756  0.00  0.00     0.000 C 
ENDBRANCH  30  33
ENDBRANCH  25  27
ENDBRANCH   1  25
BRANCH  10  35
ATOM     35  C   UNL d   1      33.046  15.660 -24.046  0.00  0.00     0.000 C 
ATOM     36  C   UNL d   1      33.228  15.476 -23.252  0.00  0.00     0.000 C 
ENDBRANCH  10  35
TORSDOF 7
ENDMDL
