MODEL 1
REMARK VINA RESULT:      35.1      0.000      0.000
REMARK  5 active torsions:
REMARK  status: ('A' for Active; 'I' for Inactive)
REMARK    1  A    between atoms: N_2  and  S_1 
REMARK    2  A    between atoms: C_3  and  S_1 
REMARK    3  A    between atoms: C_14  and  C_5 
REMARK    4  A    between atoms: O_15  and  C_8 
REMARK    5  A    between atoms: C_18  and  C_14 
ROOT
ATOM      1  C   UNL d   1     -56.990 -99.134 -44.300  0.00  0.00     0.104 A 
ATOM      2  C   UNL d   1     -56.416 -99.605 -43.939  0.00  0.00     0.015 A 
ATOM      3  C   UNL d   1     -55.676 -99.700 -44.292  0.00  0.00     0.023 A 
ATOM      4  C   UNL d   1     -55.507 -99.324 -45.007  0.00  0.00     0.094 A 
ATOM      5  C   UNL d   1     -56.821 -98.758 -45.015  0.00  0.00     0.015 A 
ATOM      6  C   UNL d   1     -56.080 -98.853 -45.368  0.00  0.00     0.025 A 
ENDROOT
BRANCH   1   7
ATOM      7  S   UNL d   1     -57.730 -99.039 -43.947  0.00  0.00     0.272 S 
ATOM      8  O   UNL d   1     -57.365 -98.805 -43.244  0.00  0.00    -0.200 OA
ATOM      9  O   UNL d   1     -58.096 -99.274 -44.651  0.00  0.00    -0.200 OA
BRANCH   7  10
ATOM     10  N   UNL d   1     -58.468 -98.945 -43.595  0.00  0.00    -0.225 N 
ATOM     11  C   UNL d   1     -59.147 -98.908 -44.062  0.00  0.00     0.118 A 
ATOM     12  C   UNL d   1     -59.889 -98.813 -43.708  0.00  0.00     0.142 A 
ATOM     13  O   UNL d   1     -59.950 -98.755 -42.888  0.00  0.00    -0.300 OA
ATOM     14  C   UNL d   1     -59.272 -98.791 -42.421  0.00  0.00     0.142 A 
ATOM     15  C   UNL d   1     -58.530 -98.886 -42.774  0.00  0.00     0.118 A 
ENDBRANCH   7  10
ENDBRANCH   1   7
BRANCH   3  16
ATOM     16  C   UNL d   1     -55.102-100.170 -43.932  0.00  0.00     0.002 C 
ATOM     17  C   UNL d   1     -54.779 -99.940 -43.209  0.00  0.00     0.000 C 
BRANCH  16  18
ATOM     18  C   UNL d   1     -54.852-100.870 -44.294  0.00  0.00     0.000 C 
ATOM     19  C   UNL d   1     -54.747-101.553 -43.844  0.00  0.00     0.000 C 
ENDBRANCH  16  18
ENDBRANCH   3  16
BRANCH   4  20
ATOM     20  O   UNL d   1     -54.766 -99.419 -45.360  0.00  0.00    -0.328 OA
ATOM     21  C   UNL d   1     -54.711 -99.629 -46.157  0.00  0.00     0.181 C 
ENDBRANCH   4  20
TORSDOF 5
ENDMDL
