MODEL 1
REMARK VINA RESULT:      -5.2      0.000      0.000
REMARK  7 active torsions:
REMARK  status: ('A' for Active; 'I' for Inactive)
REMARK    1  A    between atoms: C_4  and  N_1 
REMARK       I    between atoms: C_2  and  N_6 
REMARK    2  A    between atoms: C_3  and  C_2 
REMARK    3  A    between atoms: C_5  and  C_3 
REMARK    4  A    between atoms: C_12  and  C_5 
REMARK    5  A    between atoms: N_6  and  C_11 
REMARK    6  A    between atoms: O_22  and  C_13 
REMARK    7  A    between atoms: C_25  and  O_22 
ROOT
ATOM      1  C   UNL d   1     -43.877  12.691  21.854  0.00  0.00     0.328 C 
ATOM      2  N   UNL d   1     -44.632  12.969  22.018  0.00  0.00    -0.365 NA
ATOM      3  O   UNL d   1     -43.639  11.951  22.130  0.00  0.00    -0.251 OA
ENDROOT
BRANCH   1   4
ATOM      4  C   UNL d   1     -43.355  13.151  21.413  0.00  0.00     0.076 C 
BRANCH   4   5
ATOM      5  C   UNL d   1     -42.558  12.937  21.364  0.00  0.00     0.006 C 
BRANCH   5   6
ATOM      6  C   UNL d   1     -42.011  13.472  21.047  0.00  0.00     0.000 A 
ATOM      7  C   UNL d   1     -41.438  13.816  21.541  0.00  0.00     0.002 A 
ATOM      8  C   UNL d   1     -40.892  14.348  21.231  0.00  0.00     0.025 A 
ATOM      9  C   UNL d   1     -40.913  14.543  20.425  0.00  0.00     0.100 A 
ATOM     10  C   UNL d   1     -41.478  14.205  19.932  0.00  0.00     0.025 A 
ATOM     11  C   UNL d   1     -42.031  13.667  20.241  0.00  0.00     0.002 A 
BRANCH   9  12
ATOM     12  O   UNL d   1     -40.366  15.076  20.115  0.00  0.00    -0.305 OA
BRANCH  12  13
ATOM     13  C   UNL d   1     -39.790  14.813  19.589  0.00  0.00     0.123 C 
ATOM     14  C   UNL d   1     -39.227  15.339  19.294  0.00  0.00     0.029 C 
ENDBRANCH  12  13
ENDBRANCH   9  12
ENDBRANCH   5   6
ENDBRANCH   4   5
ENDBRANCH   1   4
BRANCH   2  15
ATOM     15  C   UNL d   1     -45.394  13.243  22.186  0.00  0.00     0.135 A 
ATOM     16  C   UNL d   1     -45.508  13.869  22.718  0.00  0.00     0.034 A 
ATOM     17  C   UNL d   1     -46.274  14.132  22.877  0.00  0.00     0.020 A 
ATOM     18  C   UNL d   1     -46.921  13.776  22.511  0.00  0.00     0.064 A 
ATOM     19  C   UNL d   1     -46.806  13.155  21.984  0.00  0.00     0.020 A 
ATOM     20  C   UNL d   1     -46.044  12.889  21.822  0.00  0.00     0.034 A 
BRANCH  18  21
ATOM     21  N   UNL d   1     -47.684  14.042  22.672  0.00  0.00    -0.300 N 
ATOM     22  C   UNL d   1     -47.910  14.805  22.454  0.00  0.00     0.107 A 
ATOM     23  C   UNL d   1     -48.668  15.072  22.614  0.00  0.00     0.142 A 
ATOM     24  O   UNL d   1     -49.208  14.575  22.995  0.00  0.00    -0.300 OA
ATOM     25  C   UNL d   1     -48.982  13.812  23.213  0.00  0.00     0.142 A 
ATOM     26  C   UNL d   1     -48.218  13.541  23.053  0.00  0.00     0.107 A 
ENDBRANCH  18  21
ENDBRANCH   2  15
TORSDOF 7
ENDMDL
MODEL 2
REMARK VINA RESULT:      -4.9      1.311      6.524
REMARK  7 active torsions:
REMARK  status: ('A' for Active; 'I' for Inactive)
REMARK    1  A    between atoms: C_4  and  N_1 
REMARK       I    between atoms: C_2  and  N_6 
REMARK    2  A    between atoms: C_3  and  C_2 
REMARK    3  A    between atoms: C_5  and  C_3 
REMARK    4  A    between atoms: C_12  and  C_5 
REMARK    5  A    between atoms: N_6  and  C_11 
REMARK    6  A    between atoms: O_22  and  C_13 
REMARK    7  A    between atoms: C_25  and  O_22 
ROOT
ATOM      1  C   UNL d   1     -43.577  12.870  21.641  0.00  0.00     0.328 C 
ATOM      2  N   UNL d   1     -42.926  13.315  21.416  0.00  0.00    -0.365 NA
ATOM      3  O   UNL d   1     -43.507  12.055  21.743  0.00  0.00    -0.251 OA
ENDROOT
BRANCH   1   4
ATOM      4  C   UNL d   1     -44.304  13.237  21.768  0.00  0.00     0.076 C 
BRANCH   4   5
ATOM      5  C   UNL d   1     -44.949  12.793  22.033  0.00  0.00     0.006 C 
BRANCH   5   6
ATOM      6  C   UNL d   1     -45.641  13.182  22.271  0.00  0.00     0.000 A 
ATOM      7  C   UNL d   1     -46.379  12.827  22.133  0.00  0.00     0.002 A 
ATOM      8  C   UNL d   1     -47.070  13.209  22.368  0.00  0.00     0.025 A 
ATOM      9  C   UNL d   1     -47.031  13.947  22.742  0.00  0.00     0.100 A 
ATOM     10  C   UNL d   1     -46.301  14.302  22.881  0.00  0.00     0.025 A 
ATOM     11  C   UNL d   1     -45.601  13.920  22.646  0.00  0.00     0.002 A 
BRANCH   9  12
ATOM     12  O   UNL d   1     -47.722  14.329  22.977  0.00  0.00    -0.305 OA
BRANCH  12  13
ATOM     13  C   UNL d   1     -48.161  14.755  22.427  0.00  0.00     0.123 C 
ATOM     14  C   UNL d   1     -48.865  15.122  22.653  0.00  0.00     0.029 C 
ENDBRANCH  12  13
ENDBRANCH   9  12
ENDBRANCH   5   6
ENDBRANCH   4   5
ENDBRANCH   1   4
BRANCH   2  15
ATOM     15  C   UNL d   1     -42.265  13.758  21.188  0.00  0.00     0.135 A 
ATOM     16  C   UNL d   1     -42.323  14.579  21.088  0.00  0.00     0.034 A 
ATOM     17  C   UNL d   1     -41.656  15.008  20.860  0.00  0.00     0.020 A 
ATOM     18  C   UNL d   1     -40.937  14.625  20.733  0.00  0.00     0.064 A 
ATOM     19  C   UNL d   1     -40.881  13.810  20.833  0.00  0.00     0.020 A 
ATOM     20  C   UNL d   1     -41.544  13.378  21.060  0.00  0.00     0.034 A 
BRANCH  18  21
ATOM     21  N   UNL d   1     -40.274  15.057  20.506  0.00  0.00    -0.300 N 
ATOM     22  C   UNL d   1     -39.739  15.322  21.076  0.00  0.00     0.107 A 
ATOM     23  C   UNL d   1     -39.078  15.753  20.853  0.00  0.00     0.142 A 
ATOM     24  O   UNL d   1     -38.947  15.921  20.054  0.00  0.00    -0.300 OA
ATOM     25  C   UNL d   1     -39.482  15.656  19.484  0.00  0.00     0.142 A 
ATOM     26  C   UNL d   1     -40.148  15.222  19.708  0.00  0.00     0.107 A 
ENDBRANCH  18  21
ENDBRANCH   2  15
TORSDOF 7
ENDMDL
MODEL 3
REMARK VINA RESULT:      -3.2      2.294      7.003
REMARK  7 active torsions:
REMARK  status: ('A' for Active; 'I' for Inactive)
REMARK    1  A    between atoms: C_4  and  N_1 
REMARK       I    between atoms: C_2  and  N_6 
REMARK    2  A    between atoms: C_3  and  C_2 
REMARK    3  A    between atoms: C_5  and  C_3 
REMARK    4  A    between atoms: C_12  and  C_5 
REMARK    5  A    between atoms: N_6  and  C_11 
REMARK    6  A    between atoms: O_22  and  C_13 
REMARK    7  A    between atoms: C_25  and  O_22 
ROOT
ATOM      1  C   UNL d   1     -41.208  13.755  21.002  0.00  0.00     0.328 C 
ATOM      2  N   UNL d   1     -40.922  14.071  20.300  0.00  0.00    -0.365 NA
ATOM      3  O   UNL d   1     -40.684  13.509  21.589  0.00  0.00    -0.251 OA
ENDROOT
BRANCH   1   4
ATOM      4  C   UNL d   1     -42.020  13.683  21.122  0.00  0.00     0.076 C 
BRANCH   4   5
ATOM      5  C   UNL d   1     -42.351  12.940  21.268  0.00  0.00     0.006 C 
BRANCH   5   6
ATOM      6  C   UNL d   1     -43.133  12.888  21.535  0.00  0.00     0.000 A 
ATOM      7  C   UNL d   1     -43.374  12.225  21.975  0.00  0.00     0.002 A 
ATOM      8  C   UNL d   1     -44.150  12.168  22.243  0.00  0.00     0.025 A 
ATOM      9  C   UNL d   1     -44.693  12.771  22.075  0.00  0.00     0.100 A 
ATOM     10  C   UNL d   1     -44.459  13.429  21.640  0.00  0.00     0.025 A 
ATOM     11  C   UNL d   1     -43.677  13.491  21.367  0.00  0.00     0.002 A 
BRANCH   9  12
ATOM     12  O   UNL d   1     -45.470  12.713  22.344  0.00  0.00    -0.305 OA
BRANCH  12  13
ATOM     13  C   UNL d   1     -45.860  13.385  22.615  0.00  0.00     0.123 C 
ATOM     14  C   UNL d   1     -46.621  13.324  22.928  0.00  0.00     0.029 C 
ENDBRANCH  12  13
ENDBRANCH   9  12
ENDBRANCH   5   6
ENDBRANCH   4   5
ENDBRANCH   1   4
BRANCH   2  15
ATOM     15  C   UNL d   1     -40.627  14.388  19.596  0.00  0.00     0.135 A 
ATOM     16  C   UNL d   1     -40.556  15.209  19.501  0.00  0.00     0.034 A 
ATOM     17  C   UNL d   1     -40.261  15.511  18.792  0.00  0.00     0.020 A 
ATOM     18  C   UNL d   1     -40.037  15.003  18.183  0.00  0.00     0.064 A 
ATOM     19  C   UNL d   1     -40.109  14.189  18.278  0.00  0.00     0.020 A 
ATOM     20  C   UNL d   1     -40.403  13.882  18.983  0.00  0.00     0.034 A 
BRANCH  18  21
ATOM     21  N   UNL d   1     -39.743  15.309  17.477  0.00  0.00    -0.300 N 
ATOM     22  C   UNL d   1     -38.928  15.349  17.353  0.00  0.00     0.107 A 
ATOM     23  C   UNL d   1     -38.632  15.653  16.652  0.00  0.00     0.142 A 
ATOM     24  O   UNL d   1     -39.153  15.922  16.067  0.00  0.00    -0.300 OA
ATOM     25  C   UNL d   1     -39.968  15.882  16.192  0.00  0.00     0.142 A 
ATOM     26  C   UNL d   1     -40.267  15.576  16.898  0.00  0.00     0.107 A 
ENDBRANCH  18  21
ENDBRANCH   2  15
TORSDOF 7
ENDMDL
MODEL 4
REMARK VINA RESULT:      -2.5      1.408      6.550
REMARK  7 active torsions:
REMARK  status: ('A' for Active; 'I' for Inactive)
REMARK    1  A    between atoms: C_4  and  N_1 
REMARK       I    between atoms: C_2  and  N_6 
REMARK    2  A    between atoms: C_3  and  C_2 
REMARK    3  A    between atoms: C_5  and  C_3 
REMARK    4  A    between atoms: C_12  and  C_5 
REMARK    5  A    between atoms: N_6  and  C_11 
REMARK    6  A    between atoms: O_22  and  C_13 
REMARK    7  A    between atoms: C_25  and  O_22 
ROOT
ATOM      1  C   UNL d   1     -45.142  11.895  22.845  0.00  0.00     0.328 C 
ATOM      2  N   UNL d   1     -44.527  12.257  22.440  0.00  0.00    -0.365 NA
ATOM      3  O   UNL d   1     -44.991  11.252  23.339  0.00  0.00    -0.251 OA
ENDROOT
BRANCH   1   4
ATOM      4  C   UNL d   1     -45.913  12.173  22.760  0.00  0.00     0.076 C 
BRANCH   4   5
ATOM      5  C   UNL d   1     -46.464  12.052  23.364  0.00  0.00     0.006 C 
BRANCH   5   6
ATOM      6  C   UNL d   1     -47.261  12.234  23.231  0.00  0.00     0.000 A 
ATOM      7  C   UNL d   1     -47.484  13.023  23.095  0.00  0.00     0.002 A 
ATOM      8  C   UNL d   1     -48.275  13.211  22.962  0.00  0.00     0.025 A 
ATOM      9  C   UNL d   1     -48.850  12.614  22.963  0.00  0.00     0.100 A 
ATOM     10  C   UNL d   1     -48.633  11.831  23.097  0.00  0.00     0.025 A 
ATOM     11  C   UNL d   1     -47.836  11.637  23.232  0.00  0.00     0.002 A 
BRANCH   9  12
ATOM     12  O   UNL d   1     -49.641  12.802  22.830  0.00  0.00    -0.305 OA
BRANCH  12  13
ATOM     13  C   UNL d   1     -49.834  13.481  22.407  0.00  0.00     0.123 C 
ATOM     14  C   UNL d   1     -50.620  13.636  22.209  0.00  0.00     0.029 C 
ENDBRANCH  12  13
ENDBRANCH   9  12
ENDBRANCH   5   6
ENDBRANCH   4   5
ENDBRANCH   1   4
BRANCH   2  15
ATOM     15  C   UNL d   1     -43.902  12.617  22.035  0.00  0.00     0.135 A 
ATOM     16  C   UNL d   1     -43.993  13.375  21.710  0.00  0.00     0.034 A 
ATOM     17  C   UNL d   1     -43.361  13.722  21.308  0.00  0.00     0.020 A 
ATOM     18  C   UNL d   1     -42.645  13.320  21.229  0.00  0.00     0.064 A 
ATOM     19  C   UNL d   1     -42.558  12.568  21.552  0.00  0.00     0.020 A 
ATOM     20  C   UNL d   1     -43.185  12.218  21.954  0.00  0.00     0.034 A 
BRANCH  18  21
ATOM     21  N   UNL d   1     -42.018  13.670  20.827  0.00  0.00    -0.300 N 
ATOM     22  C   UNL d   1     -41.998  13.659  20.003  0.00  0.00     0.107 A 
ATOM     23  C   UNL d   1     -41.375  14.007  19.599  0.00  0.00     0.142 A 
ATOM     24  O   UNL d   1     -40.764  14.371  20.022  0.00  0.00    -0.300 OA
ATOM     25  C   UNL d   1     -40.784  14.382  20.847  0.00  0.00     0.142 A 
ATOM     26  C   UNL d   1     -41.411  14.032  21.254  0.00  0.00     0.107 A 
ENDBRANCH  18  21
ENDBRANCH   2  15
TORSDOF 7
ENDMDL
