MODEL 1
REMARK VINA RESULT:       9.4      0.000      0.000
REMARK  3 active torsions:
REMARK  status: ('A' for Active; 'I' for Inactive)
REMARK    1  A    between atoms: S_8  and  C_2 
REMARK       I    between atoms: N_6  and  C_7 
REMARK    2  A    between atoms: C_7  and  C_9 
REMARK    3  A    between atoms: C_9  and  S_8 
ROOT
ATOM      1  N   UNL d   1      14.225  11.977  -1.365  0.00  0.00    -0.267 N 
ATOM      2  C   UNL d   1      13.582  11.846  -1.871  0.00  0.00     0.272 C 
ATOM      3  O   UNL d   1      12.816  11.780  -1.557  0.00  0.00    -0.266 OA
ATOM      4  O   UNL d   1      15.506  12.238  -0.364  0.00  0.00    -0.300 OA
ATOM      5  C   UNL d   1      14.106  12.042  -0.555  0.00  0.00     0.110 A 
ATOM      6  C   UNL d   1      14.984  12.043  -1.677  0.00  0.00     0.110 A 
ATOM      7  C   UNL d   1      15.624  12.173  -1.178  0.00  0.00     0.142 A 
ATOM      8  C   UNL d   1      14.747  12.173  -0.053  0.00  0.00     0.142 A 
ENDROOT
BRANCH   2   9
ATOM      9  C   UNL d   1      13.701  11.781  -2.686  0.00  0.00     0.099 C 
BRANCH   9  10
ATOM     10  S   UNL d   1      13.057  11.807  -3.198  0.00  0.00    -0.041 SA
BRANCH  10  11
ATOM     11  C   UNL d   1      13.142  12.131  -3.948  0.00  0.00     0.233 A 
ATOM     12  N   UNL d   1      13.441  11.822  -4.657  0.00  0.00    -0.029 NA
ATOM     13  C   UNL d   1      13.383  12.411  -5.229  0.00  0.00     0.788 A 
ATOM     14  N   UNL d   1      13.057  13.075  -4.892  0.00  0.00     0.050 NA
ATOM     15  N   UNL d   1      13.626  12.329  -6.029  0.00  0.00     0.064 N 
ATOM     16  N   UNL d   1      12.903  12.911  -4.094  0.00  0.00    -0.105 NA
ENDBRANCH  10  11
ENDBRANCH   9  10
ENDBRANCH   2   9
TORSDOF 3
ENDMDL
