MODEL 1
REMARK VINA RESULT:      65.3      0.000      0.000
REMARK  5 active torsions:
REMARK  status: ('A' for Active; 'I' for Inactive)
REMARK    1  A    between atoms: C_5  and  N_1 
REMARK    2  A    between atoms: C_6  and  C_5 
REMARK       I    between atoms: N_9  and  C_6 
REMARK    3  A    between atoms: C_13  and  N_9 
REMARK    4  A    between atoms: O_19  and  C_14 
REMARK    5  A    between atoms: C_21  and  O_19 
ROOT
ATOM      1  C   UNL d   1      61.436  48.027  50.427  0.00  0.00     0.297 C 
ATOM      2  N   UNL d   1      61.721  47.734  49.710  0.00  0.00    -0.207 NA
ATOM      3  O   UNL d   1      61.247  47.507  51.039  0.00  0.00    -0.264 OA
ENDROOT
BRANCH   1   4
ATOM      4  C   UNL d   1      61.341  48.836  50.532  0.00  0.00     0.148 C 
BRANCH   4   5
ATOM      5  N   UNL d   1      60.692  49.125  50.952  0.00  0.00    -0.235 N 
ATOM      6  C   UNL d   1      59.973  49.267  50.555  0.00  0.00     0.273 A 
ATOM      7  C   UNL d   1      59.324  49.556  50.976  0.00  0.00     0.086 A 
ATOM      8  O   UNL d   1      59.915  49.117  49.741  0.00  0.00    -0.266 OA
ATOM      9  C   UNL d   1      58.607  49.700  50.588  0.00  0.00     0.012 C 
ATOM     10  S   UNL d   1      59.394  49.703  51.793  0.00  0.00    -0.077 SA
ATOM     11  C   UNL d   1      60.103  49.560  52.175  0.00  0.00     0.097 A 
ATOM     12  C   UNL d   1      60.752  49.271  51.755  0.00  0.00     0.274 A 
ATOM     13  O   UNL d   1      61.478  49.126  52.147  0.00  0.00    -0.266 OA
ENDBRANCH   4   5
ENDBRANCH   1   4
BRANCH   2  14
ATOM     14  C   UNL d   1      61.817  46.921  49.607  0.00  0.00     0.085 A 
ATOM     15  C   UNL d   1      62.398  46.639  49.108  0.00  0.00     0.021 A 
ATOM     16  C   UNL d   1      62.499  45.842  49.000  0.00  0.00     0.026 A 
ATOM     17  C   UNL d   1      62.005  45.306  49.403  0.00  0.00     0.100 A 
ATOM     18  C   UNL d   1      61.424  45.588  49.902  0.00  0.00     0.026 A 
ATOM     19  C   UNL d   1      61.331  46.409  50.004  0.00  0.00     0.021 A 
BRANCH  17  20
ATOM     20  O   UNL d   1      62.110  44.483  49.292  0.00  0.00    -0.305 OA
BRANCH  20  21
ATOM     21  C   UNL d   1      61.871  43.946  49.871  0.00  0.00     0.123 C 
ATOM     22  C   UNL d   1      62.304  43.260  50.000  0.00  0.00     0.029 C 
ENDBRANCH  20  21
ENDBRANCH  17  20
ENDBRANCH   2  14
TORSDOF 5
ENDMDL
