MODEL 1
REMARK VINA RESULT:      20.2      0.000      0.000
REMARK  6 active torsions:
REMARK  status: ('A' for Active; 'I' for Inactive)
REMARK    1  A    between atoms: C_2  and  S_1 
REMARK    2  A    between atoms: C_13  and  S_1 
REMARK    3  A    between atoms: C_5  and  C_3 
REMARK    4  A    between atoms: C_19  and  C_5 
REMARK    5  A    between atoms: O_25  and  C_22 
REMARK    6  A    between atoms: C_30  and  O_25 
ROOT
ATOM      1  C   UNL d   1     -41.720-121.505 -51.800  0.00  0.00     0.094 A 
ATOM      2  C   UNL d   1     -41.685-121.893 -51.066  0.00  0.00     0.069 A 
ATOM      3  C   UNL d   1     -41.571-120.698 -51.848  0.00  0.00     0.031 A 
ATOM      4  C   UNL d   1     -41.385-120.269 -51.167  0.00  0.00     0.084 A 
ATOM      5  C   UNL d   1     -41.606-120.316 -52.577  0.00  0.00     0.029 A 
ATOM      6  N   UNL d   1     -41.350-120.650 -50.438  0.00  0.00    -0.244 NA
ATOM      7  C   UNL d   1     -41.500-121.465 -50.385  0.00  0.00     0.103 A 
ATOM      8  C   UNL d   1     -41.236-119.461 -51.216  0.00  0.00     0.046 A 
ATOM      9  C   UNL d   1     -41.457-119.509 -52.626  0.00  0.00     0.123 A 
ATOM     10  C   UNL d   1     -41.272-119.081 -51.944  0.00  0.00     0.124 A 
ATOM     11  O   UNL d   1     -41.492-119.128 -53.355  0.00  0.00    -0.301 OA
ATOM     12  O   UNL d   1     -41.123-118.272 -51.993  0.00  0.00    -0.301 OA
ATOM     13  C   UNL d   1     -41.158-117.888 -52.725  0.00  0.00     0.149 A 
ATOM     14  C   UNL d   1     -41.343-118.316 -53.406  0.00  0.00     0.149 A 
ENDROOT
BRANCH   1  15
ATOM     15  S   UNL d   1     -41.904-121.923 -52.487  0.00  0.00     0.210 S 
ATOM     16  O   UNL d   1     -41.123-122.182 -52.553  0.00  0.00    -0.217 OA
ATOM     17  O   UNL d   1     -42.684-121.664 -52.421  0.00  0.00    -0.217 OA
BRANCH  15  18
ATOM     18  C   UNL d   1     -42.099-122.337 -53.174  0.00  0.00     0.088 A 
ATOM     19  C   UNL d   1     -42.550-121.965 -53.760  0.00  0.00     0.013 A 
ATOM     20  C   UNL d   1     -42.746-122.382 -54.450  0.00  0.00     0.025 A 
ATOM     21  C   UNL d   1     -42.493-123.158 -54.549  0.00  0.00     0.100 A 
ATOM     22  C   UNL d   1     -42.043-123.533 -53.966  0.00  0.00     0.025 A 
ATOM     23  C   UNL d   1     -41.846-123.114 -53.272  0.00  0.00     0.013 A 
BRANCH  21  24
ATOM     24  O   UNL d   1     -42.687-123.583 -55.239  0.00  0.00    -0.305 OA
BRANCH  24  25
ATOM     25  C   UNL d   1     -43.388-123.430 -55.644  0.00  0.00     0.123 C 
ATOM     26  C   UNL d   1     -43.366-123.239 -56.444  0.00  0.00     0.029 C 
ENDBRANCH  24  25
ENDBRANCH  21  24
ENDBRANCH  15  18
ENDBRANCH   1  15
BRANCH   2  27
ATOM     27  C   UNL d   1     -41.834-122.705 -51.015  0.00  0.00     0.198 C 
ATOM     28  O   UNL d   1     -41.715-123.194 -51.669  0.00  0.00    -0.286 OA
BRANCH  27  29
ATOM     29  C   UNL d   1     -42.105-123.027 -50.305  0.00  0.00     0.039 A 
ATOM     30  C   UNL d   1     -41.600-123.483 -49.830  0.00  0.00     0.003 A 
ATOM     31  C   UNL d   1     -41.869-123.807 -49.120  0.00  0.00     0.000 A 
ATOM     32  C   UNL d   1     -42.646-123.680 -48.874  0.00  0.00     0.000 A 
ATOM     33  C   UNL d   1     -43.155-123.221 -49.351  0.00  0.00     0.000 A 
ATOM     34  C   UNL d   1     -42.890-122.897 -50.060  0.00  0.00     0.003 A 
ENDBRANCH  27  29
ENDBRANCH   2  27
TORSDOF 6
ENDMDL
MODEL 2
REMARK VINA RESULT:      22.3      2.256      4.042
REMARK  6 active torsions:
REMARK  status: ('A' for Active; 'I' for Inactive)
REMARK    1  A    between atoms: C_2  and  S_1 
REMARK    2  A    between atoms: C_13  and  S_1 
REMARK    3  A    between atoms: C_5  and  C_3 
REMARK    4  A    between atoms: C_19  and  C_5 
REMARK    5  A    between atoms: O_25  and  C_22 
REMARK    6  A    between atoms: C_30  and  O_25 
ROOT
ATOM      1  C   UNL d   1     -42.529-122.917 -50.356  0.00  0.00     0.094 A 
ATOM      2  C   UNL d   1     -42.185-123.319 -49.716  0.00  0.00     0.069 A 
ATOM      3  C   UNL d   1     -42.178-122.946 -51.099  0.00  0.00     0.031 A 
ATOM      4  C   UNL d   1     -41.482-123.377 -51.212  0.00  0.00     0.084 A 
ATOM      5  C   UNL d   1     -42.522-122.546 -51.732  0.00  0.00     0.029 A 
ATOM      6  N   UNL d   1     -41.138-123.777 -50.580  0.00  0.00    -0.244 NA
ATOM      7  C   UNL d   1     -41.489-123.750 -49.828  0.00  0.00     0.103 A 
ATOM      8  C   UNL d   1     -41.131-123.406 -51.956  0.00  0.00     0.046 A 
ATOM      9  C   UNL d   1     -42.171-122.575 -52.475  0.00  0.00     0.123 A 
ATOM     10  C   UNL d   1     -41.475-123.006 -52.588  0.00  0.00     0.124 A 
ATOM     11  O   UNL d   1     -42.514-122.175 -53.108  0.00  0.00    -0.301 OA
ATOM     12  O   UNL d   1     -41.124-123.035 -53.332  0.00  0.00    -0.301 OA
ATOM     13  C   UNL d   1     -41.467-122.634 -53.968  0.00  0.00     0.149 A 
ATOM     14  C   UNL d   1     -42.163-122.203 -53.856  0.00  0.00     0.149 A 
ENDROOT
BRANCH   1  15
ATOM     15  S   UNL d   1     -43.224-122.484 -50.255  0.00  0.00     0.210 S 
ATOM     16  O   UNL d   1     -43.677-123.169 -50.338  0.00  0.00    -0.217 OA
ATOM     17  O   UNL d   1     -42.771-121.799 -50.172  0.00  0.00    -0.217 OA
BRANCH  15  18
ATOM     18  C   UNL d   1     -43.912-122.041 -50.153  0.00  0.00     0.088 A 
ATOM     19  C   UNL d   1     -43.857-121.250 -49.917  0.00  0.00     0.013 A 
ATOM     20  C   UNL d   1     -44.550-120.804 -49.815  0.00  0.00     0.025 A 
ATOM     21  C   UNL d   1     -45.285-121.149 -49.948  0.00  0.00     0.100 A 
ATOM     22  C   UNL d   1     -45.344-121.939 -50.184  0.00  0.00     0.025 A 
ATOM     23  C   UNL d   1     -44.648-122.386 -50.287  0.00  0.00     0.013 A 
BRANCH  21  24
ATOM     24  O   UNL d   1     -45.985-120.708 -49.847  0.00  0.00    -0.305 OA
BRANCH  24  25
ATOM     25  C   UNL d   1     -46.023-120.104 -49.288  0.00  0.00     0.123 C 
ATOM     26  C   UNL d   1     -46.655-119.576 -49.298  0.00  0.00     0.029 C 
ENDBRANCH  24  25
ENDBRANCH  21  24
ENDBRANCH  15  18
ENDBRANCH   1  15
BRANCH   2  27
ATOM     27  C   UNL d   1     -42.536-123.291 -48.968  0.00  0.00     0.198 C 
ATOM     28  O   UNL d   1     -43.351-123.387 -48.884  0.00  0.00    -0.286 OA
BRANCH  27  29
ATOM     29  C   UNL d   1     -42.067-123.167 -48.300  0.00  0.00     0.039 A 
ATOM     30  C   UNL d   1     -41.834-122.400 -48.086  0.00  0.00     0.003 A 
ATOM     31  C   UNL d   1     -41.365-122.274 -47.418  0.00  0.00     0.000 A 
ATOM     32  C   UNL d   1     -41.123-122.911 -46.954  0.00  0.00     0.000 A 
ATOM     33  C   UNL d   1     -41.357-123.684 -47.169  0.00  0.00     0.000 A 
ATOM     34  C   UNL d   1     -41.824-123.813 -47.834  0.00  0.00     0.003 A 
ENDBRANCH  27  29
ENDBRANCH   2  27
TORSDOF 6
ENDMDL
