MODEL 1
REMARK VINA RESULT:      30.3      0.000      0.000
REMARK  6 active torsions:
REMARK  status: ('A' for Active; 'I' for Inactive)
REMARK    1  A    between atoms: C_6  and  C_1 
REMARK    2  A    between atoms: N_8  and  C_5 
REMARK    3  A    between atoms: O_13  and  C_6 
REMARK       I    between atoms: C_7  and  N_8 
REMARK    4  A    between atoms: O_12  and  C_7 
REMARK    5  A    between atoms: C_16  and  O_12 
REMARK    6  A    between atoms: C_17  and  O_13 
ROOT
ATOM      1  C   UNL d   1     -57.519 -98.982 -43.962  0.00  0.00     0.083 A 
ATOM      2  N   UNL d   1     -58.499 -98.908 -42.923  0.00  0.00    -0.244 NA
ATOM      3  C   UNL d   1     -57.703 -98.982 -43.171  0.00  0.00     0.087 A 
ATOM      4  C   UNL d   1     -58.123 -98.909 -44.536  0.00  0.00     0.028 A 
ATOM      5  C   UNL d   1     -58.910 -98.836 -44.299  0.00  0.00     0.104 A 
ATOM      6  C   UNL d   1     -59.097 -98.836 -43.496  0.00  0.00     0.099 A 
ATOM      7  C   UNL d   1     -57.105 -99.054 -42.598  0.00  0.00     0.021 C 
ATOM      8  C   UNL d   1     -59.899 -98.762 -43.249  0.00  0.00     0.022 C 
ENDROOT
BRANCH   5   9
ATOM      9  N   UNL d   1     -59.515 -98.763 -44.873  0.00  0.00    -0.184 NA
ATOM     10  C   UNL d   1     -59.347 -98.927 -45.667  0.00  0.00     0.392 C 
ATOM     11  O   UNL d   1     -58.586 -99.163 -45.905  0.00  0.00    -0.236 OA
BRANCH  10  12
ATOM     12  O   UNL d   1     -59.945 -98.855 -46.242  0.00  0.00    -0.256 OA
BRANCH  12  13
ATOM     13  C   UNL d   1     -59.757 -98.814 -47.042  0.00  0.00     0.128 C 
ATOM     14  C   UNL d   1     -59.949 -99.430 -47.549  0.00  0.00     0.029 C 
ENDBRANCH  12  13
ENDBRANCH  10  12
ENDBRANCH   5   9
BRANCH   1  15
ATOM     15  C   UNL d   1     -56.736 -99.054 -44.207  0.00  0.00     0.302 C 
ATOM     16  O   UNL d   1     -56.124 -98.757 -43.740  0.00  0.00    -0.259 OA
BRANCH  15  17
ATOM     17  O   UNL d   1     -56.571 -99.426 -44.922  0.00  0.00    -0.271 OA
BRANCH  17  18
ATOM     18  C   UNL d   1     -55.802 -99.416 -45.213  0.00  0.00     0.126 C 
ATOM     19  C   UNL d   1     -55.172 -99.384 -44.684  0.00  0.00     0.029 C 
ENDBRANCH  17  18
ENDBRANCH  15  17
ENDBRANCH   1  15
TORSDOF 6
ENDMDL
MODEL 2
REMARK VINA RESULT:      32.7      2.763      5.016
REMARK  6 active torsions:
REMARK  status: ('A' for Active; 'I' for Inactive)
REMARK    1  A    between atoms: C_6  and  C_1 
REMARK    2  A    between atoms: N_8  and  C_5 
REMARK    3  A    between atoms: O_13  and  C_6 
REMARK       I    between atoms: C_7  and  N_8 
REMARK    4  A    between atoms: O_12  and  C_7 
REMARK    5  A    between atoms: C_16  and  O_12 
REMARK    6  A    between atoms: C_17  and  O_13 
ROOT
ATOM      1  C   UNL d   1     -55.420-100.106 -44.233  0.00  0.00     0.083 A 
ATOM      2  N   UNL d   1     -55.036-101.142 -45.141  0.00  0.00    -0.244 NA
ATOM      3  C   UNL d   1     -55.274-100.354 -44.993  0.00  0.00     0.087 A 
ATOM      4  C   UNL d   1     -55.332-100.637 -43.592  0.00  0.00     0.028 A 
ATOM      5  C   UNL d   1     -55.098-101.416 -43.731  0.00  0.00     0.104 A 
ATOM      6  C   UNL d   1     -54.951-101.667 -44.502  0.00  0.00     0.099 A 
ATOM      7  C   UNL d   1     -55.360 -99.829 -45.631  0.00  0.00     0.021 C 
ATOM      8  C   UNL d   1     -54.711-102.461 -44.649  0.00  0.00     0.022 C 
ENDROOT
BRANCH   5   9
ATOM      9  N   UNL d   1     -55.011-101.947 -43.090  0.00  0.00    -0.184 NA
ATOM     10  C   UNL d   1     -54.820-101.655 -42.339  0.00  0.00     0.392 C 
ATOM     11  O   UNL d   1     -54.714-100.840 -42.211  0.00  0.00    -0.236 OA
BRANCH  10  12
ATOM     12  O   UNL d   1     -54.733-102.179 -41.698  0.00  0.00    -0.256 OA
BRANCH  12  13
ATOM     13  C   UNL d   1     -55.387-102.430 -41.267  0.00  0.00     0.128 C 
ATOM     14  C   UNL d   1     -55.308-102.660 -40.484  0.00  0.00     0.029 C 
ENDBRANCH  12  13
ENDBRANCH  10  12
ENDBRANCH   5   9
BRANCH   1  15
ATOM     15  C   UNL d   1     -55.654 -99.331 -44.086  0.00  0.00     0.302 C 
ATOM     16  O   UNL d   1     -55.133 -98.798 -43.731  0.00  0.00    -0.259 OA
BRANCH  15  17
ATOM     17  O   UNL d   1     -56.413 -99.093 -44.297  0.00  0.00    -0.271 OA
BRANCH  17  18
ATOM     18  C   UNL d   1     -56.980 -98.991 -43.710  0.00  0.00     0.126 C 
ATOM     19  C   UNL d   1     -57.772 -98.928 -43.923  0.00  0.00     0.029 C 
ENDBRANCH  17  18
ENDBRANCH  15  17
ENDBRANCH   1  15
TORSDOF 6
ENDMDL
