MODEL 1
REMARK VINA RESULT:      -2.3      0.000      0.000
REMARK  7 active torsions:
REMARK  status: ('A' for Active; 'I' for Inactive)
REMARK    1  A    between atoms: C_3  and  S_1 
REMARK    2  A    between atoms: N_4  and  S_1 
REMARK    3  A    between atoms: C_2  and  C_9 
REMARK       I    between atoms: N_5  and  C_2 
REMARK    4  A    between atoms: C_15  and  N_4 
REMARK    5  A    between atoms: C_10  and  N_5 
REMARK    6  A    between atoms: C_18  and  C_15 
REMARK    7  A    between atoms: O_22  and  C_16 
ROOT
ATOM      1  C   UNL d   1      55.887   0.165  33.143  0.00  0.00     0.058 A 
ATOM      2  C   UNL d   1      55.791   0.556  32.420  0.00  0.00     0.005 A 
ATOM      3  C   UNL d   1      56.587  -0.234  33.306  0.00  0.00     0.005 A 
ATOM      4  C   UNL d   1      57.094   0.148  32.027  0.00  0.00     0.020 A 
ATOM      5  C   UNL d   1      56.394   0.547  31.864  0.00  0.00     0.002 A 
ATOM      6  C   UNL d   1      57.191  -0.241  32.745  0.00  0.00     0.002 A 
ENDROOT
BRANCH   4   7
ATOM      7  C   UNL d   1      57.705   0.136  31.470  0.00  0.00     0.112 C 
BRANCH   7   8
ATOM      8  N   UNL d   1      57.729  -0.464  30.900  0.00  0.00    -0.157 NA
BRANCH   8   9
ATOM      9  S   UNL d   1      58.292  -0.433  30.288  0.00  0.00     0.285 S 
ATOM     10  O   UNL d   1      58.903  -0.369  30.847  0.00  0.00    -0.198 OA
ATOM     11  O   UNL d   1      57.679  -0.497  29.723  0.00  0.00    -0.198 OA
BRANCH   9  12
ATOM     12  C   UNL d   1      58.848  -0.403  29.676  0.00  0.00     0.107 A 
ATOM     13  C   UNL d   1      59.388  -1.015  29.578  0.00  0.00     0.037 A 
ATOM     14  C   UNL d   1      59.946  -0.989  28.969  0.00  0.00     0.095 A 
ATOM     15  C   UNL d   1      59.964  -0.350  28.458  0.00  0.00     0.024 A 
ATOM     16  C   UNL d   1      59.422   0.270  28.553  0.00  0.00     0.003 A 
ATOM     17  C   UNL d   1      58.865   0.243  29.163  0.00  0.00     0.013 A 
BRANCH  14  18
ATOM     18  O   UNL d   1      60.486  -1.604  28.872  0.00  0.00    -0.328 OA
ATOM     19  C   UNL d   1      60.224  -2.357  28.702  0.00  0.00     0.181 C 
ENDBRANCH  14  18
ENDBRANCH   9  12
ENDBRANCH   8   9
ENDBRANCH   7   8
ENDBRANCH   4   7
BRANCH   1  20
ATOM     20  C   UNL d   1      55.281   0.171  33.709  0.00  0.00     0.279 C 
ATOM     21  N   UNL d   1      54.631   0.657  33.600  0.00  0.00    -0.208 NA
ATOM     22  O   UNL d   1      55.330  -0.308  34.376  0.00  0.00    -0.265 OA
BRANCH  21  23
ATOM     23  C   UNL d   1      54.028   0.663  34.162  0.00  0.00     0.086 A 
ATOM     24  C   UNL d   1      53.238   0.669  33.912  0.00  0.00     0.031 A 
ATOM     25  C   UNL d   1      52.637   0.676  34.476  0.00  0.00     0.059 A 
ATOM     26 CL   UNL d   1      51.853   0.682  34.230  0.00  0.00    -0.082 Cl
ATOM     27  C   UNL d   1      52.820   0.676  35.282  0.00  0.00     0.011 A 
ATOM     28  C   UNL d   1      53.610   0.670  35.522  0.00  0.00     0.002 A 
ATOM     29  C   UNL d   1      54.210   0.663  34.957  0.00  0.00     0.019 A 
ENDBRANCH  21  23
ENDBRANCH   1  20
TORSDOF 7
ENDMDL
MODEL 2
REMARK VINA RESULT:      -2.0      2.481      6.576
REMARK  7 active torsions:
REMARK  status: ('A' for Active; 'I' for Inactive)
REMARK    1  A    between atoms: C_3  and  S_1 
REMARK    2  A    between atoms: N_4  and  S_1 
REMARK    3  A    between atoms: C_2  and  C_9 
REMARK       I    between atoms: N_5  and  C_2 
REMARK    4  A    between atoms: C_15  and  N_4 
REMARK    5  A    between atoms: C_10  and  N_5 
REMARK    6  A    between atoms: C_18  and  C_15 
REMARK    7  A    between atoms: O_22  and  C_16 
ROOT
ATOM      1  C   UNL d   1      58.090  -0.912  30.289  0.00  0.00     0.058 A 
ATOM      2  C   UNL d   1      58.145  -0.094  30.173  0.00  0.00     0.005 A 
ATOM      3  C   UNL d   1      57.678  -1.209  30.936  0.00  0.00     0.005 A 
ATOM      4  C   UNL d   1      57.376   0.124  31.347  0.00  0.00     0.020 A 
ATOM      5  C   UNL d   1      57.788   0.421  30.701  0.00  0.00     0.002 A 
ATOM      6  C   UNL d   1      57.321  -0.688  31.465  0.00  0.00     0.002 A 
ENDROOT
BRANCH   4   7
ATOM      7  C   UNL d   1      57.015   0.640  31.884  0.00  0.00     0.112 C 
BRANCH   7   8
ATOM      8  N   UNL d   1      56.201   0.584  32.023  0.00  0.00    -0.157 NA
BRANCH   8   9
ATOM      9  S   UNL d   1      55.912   0.583  32.803  0.00  0.00     0.285 S 
ATOM     10  O   UNL d   1      56.689   0.622  33.095  0.00  0.00    -0.198 OA
ATOM     11  O   UNL d   1      55.130   0.544  32.513  0.00  0.00    -0.198 OA
BRANCH   9  12
ATOM     12  C   UNL d   1      55.622   0.582  33.578  0.00  0.00     0.107 A 
ATOM     13  C   UNL d   1      56.141   0.607  34.214  0.00  0.00     0.037 A 
ATOM     14  C   UNL d   1      55.855   0.606  34.990  0.00  0.00     0.095 A 
ATOM     15  C   UNL d   1      55.050   0.581  35.129  0.00  0.00     0.024 A 
ATOM     16  C   UNL d   1      54.522   0.556  34.490  0.00  0.00     0.003 A 
ATOM     17  C   UNL d   1      54.808   0.557  33.715  0.00  0.00     0.013 A 
BRANCH  14  18
ATOM     18  O   UNL d   1      56.379   0.631  35.626  0.00  0.00    -0.328 OA
ATOM     19  C   UNL d   1      56.192   0.257  36.326  0.00  0.00     0.181 C 
ENDBRANCH  14  18
ENDBRANCH   9  12
ENDBRANCH   8   9
ENDBRANCH   7   8
ENDBRANCH   4   7
BRANCH   1  20
ATOM     20  C   UNL d   1      58.448  -1.438  29.758  0.00  0.00     0.279 C 
ATOM     21  N   UNL d   1      58.976  -1.998  30.038  0.00  0.00    -0.208 NA
ATOM     22  O   UNL d   1      58.277  -1.400  28.954  0.00  0.00    -0.265 OA
BRANCH  21  23
ATOM     23  C   UNL d   1      59.333  -2.522  29.510  0.00  0.00     0.086 A 
ATOM     24  C   UNL d   1      58.952  -3.235  29.325  0.00  0.00     0.031 A 
ATOM     25  C   UNL d   1      59.311  -3.757  28.797  0.00  0.00     0.059 A 
ATOM     26 CL   UNL d   1      58.936  -4.464  28.612  0.00  0.00    -0.082 Cl
ATOM     27  C   UNL d   1      60.041  -3.571  28.457  0.00  0.00     0.011 A 
ATOM     28  C   UNL d   1      60.412  -2.859  28.648  0.00  0.00     0.002 A 
ATOM     29  C   UNL d   1      60.053  -2.338  29.176  0.00  0.00     0.019 A 
ENDBRANCH  21  23
ENDBRANCH   1  20
TORSDOF 7
ENDMDL
MODEL 3
REMARK VINA RESULT:      -0.9      5.214      7.382
REMARK  7 active torsions:
REMARK  status: ('A' for Active; 'I' for Inactive)
REMARK    1  A    between atoms: C_3  and  S_1 
REMARK    2  A    between atoms: N_4  and  S_1 
REMARK    3  A    between atoms: C_2  and  C_9 
REMARK       I    between atoms: N_5  and  C_2 
REMARK    4  A    between atoms: C_15  and  N_4 
REMARK    5  A    between atoms: C_10  and  N_5 
REMARK    6  A    between atoms: C_18  and  C_15 
REMARK    7  A    between atoms: O_22  and  C_16 
ROOT
ATOM      1  C   UNL d   1      58.288  -5.769  28.477  0.00  0.00     0.058 A 
ATOM      2  C   UNL d   1      59.068  -5.493  28.492  0.00  0.00     0.005 A 
ATOM      3  C   UNL d   1      57.662  -5.235  28.460  0.00  0.00     0.005 A 
ATOM      4  C   UNL d   1      58.594  -4.154  28.472  0.00  0.00     0.020 A 
ATOM      5  C   UNL d   1      59.219  -4.687  28.490  0.00  0.00     0.002 A 
ATOM      6  C   UNL d   1      57.818  -4.426  28.457  0.00  0.00     0.002 A 
ENDROOT
BRANCH   4   7
ATOM      7  C   UNL d   1      58.742  -3.340  28.470  0.00  0.00     0.112 C 
BRANCH   7   8
ATOM      8  N   UNL d   1      58.542  -2.884  29.131  0.00  0.00    -0.157 NA
BRANCH   8   9
ATOM      9  S   UNL d   1      58.712  -2.070  29.141  0.00  0.00     0.285 S 
ATOM     10  O   UNL d   1      58.068  -1.938  29.649  0.00  0.00    -0.198 OA
ATOM     11  O   UNL d   1      59.361  -2.199  28.630  0.00  0.00    -0.198 OA
BRANCH   9  12
ATOM     12  C   UNL d   1      58.883  -1.260  29.149  0.00  0.00     0.107 A 
ATOM     13  C   UNL d   1      59.449  -0.963  29.666  0.00  0.00     0.037 A 
ATOM     14  C   UNL d   1      59.623  -0.155  29.677  0.00  0.00     0.095 A 
ATOM     15  C   UNL d   1      59.232   0.355  29.172  0.00  0.00     0.024 A 
ATOM     16  C   UNL d   1      58.660   0.060  28.649  0.00  0.00     0.003 A 
ATOM     17  C   UNL d   1      58.486  -0.748  28.638  0.00  0.00     0.013 A 
BRANCH  14  18
ATOM     18  O   UNL d   1      60.191   0.141  30.196  0.00  0.00    -0.328 OA
ATOM     19  C   UNL d   1      60.899   0.427  29.911  0.00  0.00     0.181 C 
ENDBRANCH  14  18
ENDBRANCH   9  12
ENDBRANCH   8   9
ENDBRANCH   7   8
ENDBRANCH   4   7
BRANCH   1  20
ATOM     20  C   UNL d   1      58.128  -6.582  28.480  0.00  0.00     0.279 C 
ATOM     21  N   UNL d   1      57.352  -6.843  28.455  0.00  0.00    -0.208 NA
ATOM     22  O   UNL d   1      58.744  -7.127  28.507  0.00  0.00    -0.265 OA
BRANCH  21  23
ATOM     23  C   UNL d   1      57.193  -7.651  28.458  0.00  0.00     0.086 A 
ATOM     24  C   UNL d   1      56.405  -7.911  28.458  0.00  0.00     0.031 A 
ATOM     25  C   UNL d   1      56.249  -8.721  28.460  0.00  0.00     0.059 A 
ATOM     26 CL   UNL d   1      55.469  -8.980  28.461  0.00  0.00    -0.082 Cl
ATOM     27  C   UNL d   1      56.869  -9.266  28.463  0.00  0.00     0.011 A 
ATOM     28  C   UNL d   1      57.650  -8.998  28.462  0.00  0.00     0.002 A 
ATOM     29  C   UNL d   1      57.805  -8.188  28.460  0.00  0.00     0.019 A 
ENDBRANCH  21  23
ENDBRANCH   1  20
TORSDOF 7
ENDMDL
MODEL 4
REMARK VINA RESULT:      -0.7      8.893     10.729
REMARK  7 active torsions:
REMARK  status: ('A' for Active; 'I' for Inactive)
REMARK    1  A    between atoms: C_3  and  S_1 
REMARK    2  A    between atoms: N_4  and  S_1 
REMARK    3  A    between atoms: C_2  and  C_9 
REMARK       I    between atoms: N_5  and  C_2 
REMARK    4  A    between atoms: C_15  and  N_4 
REMARK    5  A    between atoms: C_10  and  N_5 
REMARK    6  A    between atoms: C_18  and  C_15 
REMARK    7  A    between atoms: O_22  and  C_16 
ROOT
ATOM      1  C   UNL d   1      58.269  -9.817  31.879  0.00  0.00     0.058 A 
ATOM      2  C   UNL d   1      57.678  -9.817  32.458  0.00  0.00     0.005 A 
ATOM      3  C   UNL d   1      59.061  -9.818  32.098  0.00  0.00     0.005 A 
ATOM      4  C   UNL d   1      58.673  -9.817  33.472  0.00  0.00     0.020 A 
ATOM      5  C   UNL d   1      57.881  -9.817  33.253  0.00  0.00     0.002 A 
ATOM      6  C   UNL d   1      59.262  -9.818  32.898  0.00  0.00     0.002 A 
ENDROOT
BRANCH   4   7
ATOM      7  C   UNL d   1      58.883  -9.817  34.272  0.00  0.00     0.112 C 
BRANCH   7   8
ATOM      8  N   UNL d   1      59.680  -9.757  34.488  0.00  0.00    -0.157 NA
BRANCH   8   9
ATOM      9  S   UNL d   1      59.938  -9.117  34.952  0.00  0.00     0.285 S 
ATOM     10  O   UNL d   1      60.311  -9.643  35.477  0.00  0.00    -0.198 OA
ATOM     11  O   UNL d   1      59.564  -8.585  34.427  0.00  0.00    -0.198 OA
BRANCH   9  12
ATOM     12  C   UNL d   1      60.193  -8.479  35.413  0.00  0.00     0.107 A 
ATOM     13  C   UNL d   1      59.762  -7.779  35.424  0.00  0.00     0.037 A 
ATOM     14  C   UNL d   1      60.013  -7.139  35.882  0.00  0.00     0.095 A 
ATOM     15  C   UNL d   1      60.695  -7.198  36.330  0.00  0.00     0.024 A 
ATOM     16  C   UNL d   1      61.133  -7.902  36.322  0.00  0.00     0.003 A 
ATOM     17  C   UNL d   1      60.881  -8.542  35.863  0.00  0.00     0.013 A 
BRANCH  14  18
ATOM     18  O   UNL d   1      59.579  -6.438  35.891  0.00  0.00    -0.328 OA
ATOM     19  C   UNL d   1      59.915  -5.750  36.169  0.00  0.00     0.181 C 
ENDBRANCH  14  18
ENDBRANCH   9  12
ENDBRANCH   8   9
ENDBRANCH   7   8
ENDBRANCH   4   7
BRANCH   1  20
ATOM     20  C   UNL d   1      58.070  -9.817  31.074  0.00  0.00     0.279 C 
ATOM     21  N   UNL d   1      57.281  -9.817  30.852  0.00  0.00    -0.208 NA
ATOM     22  O   UNL d   1      58.659  -9.818  30.499  0.00  0.00    -0.265 OA
BRANCH  21  23
ATOM     23  C   UNL d   1      57.083  -9.817  30.052  0.00  0.00     0.086 A 
ATOM     24  C   UNL d   1      56.283  -9.817  29.831  0.00  0.00     0.031 A 
ATOM     25  C   UNL d   1      56.087  -9.817  29.030  0.00  0.00     0.059 A 
ATOM     26 CL   UNL d   1      55.296  -9.818  28.810  0.00  0.00    -0.082 Cl
ATOM     27  C   UNL d   1      56.680  -9.817  28.455  0.00  0.00     0.011 A 
ATOM     28  C   UNL d   1      57.474  -9.817  28.685  0.00  0.00     0.002 A 
ATOM     29  C   UNL d   1      57.668  -9.817  29.486  0.00  0.00     0.019 A 
ENDBRANCH  21  23
ENDBRANCH   1  20
TORSDOF 7
ENDMDL
