MODEL 1
REMARK VINA RESULT:       0.4      0.000      0.000
REMARK  3 active torsions:
REMARK  status: ('A' for Active; 'I' for Inactive)
REMARK    1  A    between atoms: S_3  and  N_1 
REMARK    2  A    between atoms: C_7  and  C_4 
REMARK    3  A    between atoms: C_12  and  C_5 
ROOT
ATOM      1  N   UNL d   1     -41.851-121.746 -51.623  0.00  0.00    -0.155 N 
ATOM      2  N   UNL d   1     -41.792-121.712 -52.437  0.00  0.00    -0.156 NA
ATOM      3  C   UNL d   1     -41.788-122.522 -51.393  0.00  0.00     0.096 A 
ATOM      4  C   UNL d   1     -41.692-122.477 -52.707  0.00  0.00     0.103 A 
ATOM      5  C   UNL d   1     -41.689-122.982 -52.071  0.00  0.00     0.041 A 
ENDROOT
BRANCH   3   6
ATOM      6  C   UNL d   1     -41.818-122.806 -50.617  0.00  0.00     0.020 A 
ATOM      7  C   UNL d   1     -42.547-122.975 -50.265  0.00  0.00     0.022 A 
ATOM      8  C   UNL d   1     -42.576-123.259 -49.490  0.00  0.00     0.099 A 
ATOM      9  N   UNL d   1     -43.304-123.427 -49.139  0.00  0.00    -0.241 NA
ATOM     10  C   UNL d   1     -41.880-123.374 -49.069  0.00  0.00     0.099 A 
ATOM     11  C   UNL d   1     -43.317-123.701 -48.387  0.00  0.00     0.120 A 
ATOM     12  C   UNL d   1     -42.622-123.817 -47.966  0.00  0.00     0.120 A 
ATOM     13  N   UNL d   1     -41.909-123.658 -48.295  0.00  0.00    -0.241 NA
ATOM     14  C   UNL d   1     -41.152-123.207 -49.420  0.00  0.00     0.021 A 
ATOM     15  C   UNL d   1     -41.123-122.922 -50.196  0.00  0.00     0.003 A 
ENDBRANCH   3   6
BRANCH   1  16
ATOM     16  S   UNL d   1     -41.958-121.094 -51.101  0.00  0.00     0.266 S 
ATOM     17  O   UNL d   1     -42.787-121.271 -51.095  0.00  0.00    -0.203 OA
ATOM     18  O   UNL d   1     -42.095-120.464 -50.589  0.00  0.00    -0.203 OA
ATOM     19  C   UNL d   1     -41.158-120.938 -51.118  0.00  0.00     0.165 C 
ENDBRANCH   1  16
BRANCH   4  20
ATOM     20  C   UNL d   1     -41.610-122.698 -53.488  0.00  0.00     0.019 A 
ATOM     21  C   UNL d   1     -41.682-122.152 -54.085  0.00  0.00     0.002 A 
ATOM     22  C   UNL d   1     -41.600-122.365 -54.892  0.00  0.00     0.000 A 
ATOM     23  C   UNL d   1     -41.440-123.157 -55.079  0.00  0.00     0.000 A 
ATOM     24  C   UNL d   1     -41.369-123.704 -54.455  0.00  0.00     0.000 A 
ATOM     25  C   UNL d   1     -41.358-123.378 -55.855  0.00  0.00     0.000 C 
ATOM     26  C   UNL d   1     -41.450-123.490 -53.680  0.00  0.00     0.002 A 
ENDBRANCH   4  20
TORSDOF 3
ENDMDL
MODEL 2
REMARK VINA RESULT:       1.1      0.955      4.566
REMARK  3 active torsions:
REMARK  status: ('A' for Active; 'I' for Inactive)
REMARK    1  A    between atoms: S_3  and  N_1 
REMARK    2  A    between atoms: C_7  and  C_4 
REMARK    3  A    between atoms: C_12  and  C_5 
ROOT
ATOM      1  N   UNL d   1     -41.868-121.923 -51.118  0.00  0.00    -0.155 N 
ATOM      2  N   UNL d   1     -41.938-121.941 -50.305  0.00  0.00    -0.156 NA
ATOM      3  C   UNL d   1     -41.767-122.683 -51.383  0.00  0.00     0.096 A 
ATOM      4  C   UNL d   1     -41.878-122.721 -50.071  0.00  0.00     0.103 A 
ATOM      5  C   UNL d   1     -41.773-123.186 -50.729  0.00  0.00     0.041 A 
ENDROOT
BRANCH   3   6
ATOM      6  C   UNL d   1     -41.674-122.919 -52.171  0.00  0.00     0.020 A 
ATOM      7  C   UNL d   1     -42.041-122.493 -52.777  0.00  0.00     0.022 A 
ATOM      8  C   UNL d   1     -41.947-122.729 -53.563  0.00  0.00     0.099 A 
ATOM      9  N   UNL d   1     -42.314-122.303 -54.168  0.00  0.00    -0.241 NA
ATOM     10  C   UNL d   1     -41.490-123.386 -53.743  0.00  0.00     0.099 A 
ATOM     11  C   UNL d   1     -42.215-122.542 -54.925  0.00  0.00     0.120 A 
ATOM     12  C   UNL d   1     -41.757-123.200 -55.105  0.00  0.00     0.120 A 
ATOM     13  N   UNL d   1     -41.396-123.622 -54.528  0.00  0.00    -0.241 NA
ATOM     14  C   UNL d   1     -41.123-123.812 -53.138  0.00  0.00     0.021 A 
ATOM     15  C   UNL d   1     -41.216-123.576 -52.351  0.00  0.00     0.003 A 
ENDBRANCH   3   6
BRANCH   1  16
ATOM     16  S   UNL d   1     -41.895-121.239 -51.609  0.00  0.00     0.266 S 
ATOM     17  O   UNL d   1     -42.697-121.440 -51.798  0.00  0.00    -0.203 OA
ATOM     18  O   UNL d   1     -41.952-120.578 -52.097  0.00  0.00    -0.203 OA
ATOM     19  C   UNL d   1     -41.123-121.061 -51.417  0.00  0.00     0.165 C 
ENDBRANCH   1  16
BRANCH   4  20
ATOM     20  C   UNL d   1     -41.918-122.991 -49.302  0.00  0.00     0.019 A 
ATOM     21  C   UNL d   1     -41.246-123.209 -48.902  0.00  0.00     0.002 A 
ATOM     22  C   UNL d   1     -41.272-123.488 -48.111  0.00  0.00     0.000 A 
ATOM     23  C   UNL d   1     -42.009-123.541 -47.733  0.00  0.00     0.000 A 
ATOM     24  C   UNL d   1     -42.687-123.313 -48.158  0.00  0.00     0.000 A 
ATOM     25  C   UNL d   1     -42.049-123.809 -46.969  0.00  0.00     0.000 C 
ATOM     26  C   UNL d   1     -42.653-123.046 -48.919  0.00  0.00     0.002 A 
ENDBRANCH   4  20
TORSDOF 3
ENDMDL
MODEL 3
REMARK VINA RESULT:       2.8      1.339      1.728
REMARK  3 active torsions:
REMARK  status: ('A' for Active; 'I' for Inactive)
REMARK    1  A    between atoms: S_3  and  N_1 
REMARK    2  A    between atoms: C_7  and  C_4 
REMARK    3  A    between atoms: C_12  and  C_5 
ROOT
ATOM      1  N   UNL d   1     -42.876-122.640 -50.685  0.00  0.00    -0.155 N 
ATOM      2  N   UNL d   1     -42.878-122.521 -51.493  0.00  0.00    -0.156 NA
ATOM      3  C   UNL d   1     -42.122-122.835 -50.456  0.00  0.00     0.096 A 
ATOM      4  C   UNL d   1     -42.116-122.646 -51.761  0.00  0.00     0.103 A 
ATOM      5  C   UNL d   1     -41.644-122.839 -51.129  0.00  0.00     0.041 A 
ENDROOT
BRANCH   3   6
ATOM      6  C   UNL d   1     -41.871-123.001 -49.685  0.00  0.00     0.020 A 
ATOM      7  C   UNL d   1     -42.106-122.514 -49.060  0.00  0.00     0.022 A 
ATOM      8  C   UNL d   1     -41.855-122.681 -48.291  0.00  0.00     0.099 A 
ATOM      9  N   UNL d   1     -42.089-122.194 -47.666  0.00  0.00    -0.241 NA
ATOM     10  C   UNL d   1     -41.373-123.330 -48.147  0.00  0.00     0.099 A 
ATOM     11  C   UNL d   1     -41.839-122.367 -46.925  0.00  0.00     0.120 A 
ATOM     12  C   UNL d   1     -41.357-123.016 -46.782  0.00  0.00     0.120 A 
ATOM     13  N   UNL d   1     -41.123-123.496 -47.378  0.00  0.00    -0.241 NA
ATOM     14  C   UNL d   1     -41.139-123.816 -48.772  0.00  0.00     0.021 A 
ATOM     15  C   UNL d   1     -41.389-123.650 -49.542  0.00  0.00     0.003 A 
ENDBRANCH   3   6
BRANCH   1  16
ATOM     16  S   UNL d   1     -43.536-122.574 -50.166  0.00  0.00     0.266 S 
ATOM     17  O   UNL d   1     -43.595-123.420 -50.178  0.00  0.00    -0.203 OA
ATOM     18  O   UNL d   1     -44.184-122.542 -49.659  0.00  0.00    -0.203 OA
ATOM     19  C   UNL d   1     -43.465-121.762 -50.166  0.00  0.00     0.165 C 
ENDBRANCH   1  16
BRANCH   4  20
ATOM     20  C   UNL d   1     -41.870-122.586 -52.536  0.00  0.00     0.019 A 
ATOM     21  C   UNL d   1     -41.417-123.168 -52.875  0.00  0.00     0.002 A 
ATOM     22  C   UNL d   1     -41.157-123.120 -53.671  0.00  0.00     0.000 A 
ATOM     23  C   UNL d   1     -41.370-122.455 -54.119  0.00  0.00     0.000 A 
ATOM     24  C   UNL d   1     -41.834-121.867 -53.755  0.00  0.00     0.000 A 
ATOM     25  C   UNL d   1     -41.126-122.394 -54.889  0.00  0.00     0.000 C 
ATOM     26  C   UNL d   1     -42.081-121.922 -52.988  0.00  0.00     0.002 A 
ENDBRANCH   4  20
TORSDOF 3
ENDMDL
