MODEL 1
REMARK VINA RESULT:     139.8      0.000      0.000
REMARK  8 active torsions:
REMARK  status: ('A' for Active; 'I' for Inactive)
REMARK    1  A    between atoms: C_6  and  C_1 
REMARK    2  A    between atoms: C_8  and  C_2 
REMARK    3  A    between atoms: S_10  and  C_3 
REMARK    4  A    between atoms: C_15  and  C_4 
REMARK       I    between atoms: N_9  and  C_6 
REMARK    5  A    between atoms: C_19  and  N_9 
REMARK    6  A    between atoms: C_18  and  S_10 
REMARK    7  A    between atoms: C_12  and  C_18 
REMARK       I    between atoms: N_14  and  C_12 
REMARK    8  A    between atoms: C_21  and  N_14 
ROOT
ATOM      1  C   UNL d   1      61.167  46.898  50.654  0.00  0.00     0.076 A 
ATOM      2  C   UNL d   1      60.705  48.111  51.230  0.00  0.00     0.045 A 
ATOM      3  C   UNL d   1      60.504  48.396  50.471  0.00  0.00     0.112 A 
ATOM      4  C   UNL d   1      61.034  47.365  51.314  0.00  0.00     0.010 A 
ATOM      5  C   UNL d   1      60.966  47.182  49.894  0.00  0.00     0.087 A 
ATOM      6  N   UNL d   1      60.636  47.929  49.807  0.00  0.00    -0.239 NA
ATOM      7  C   UNL d   1      61.102  46.699  49.202  0.00  0.00     0.021 C 
ENDROOT
BRANCH   3   8
ATOM      8  S   UNL d   1      60.160  49.173  50.377  0.00  0.00    -0.062 SA
BRANCH   8   9
ATOM      9  C   UNL d   1      59.340  49.255  50.173  0.00  0.00     0.099 C 
BRANCH   9  10
ATOM     10  C   UNL d   1      59.117  49.553  49.424  0.00  0.00     0.286 C 
ATOM     11  N   UNL d   1      58.328  49.702  49.259  0.00  0.00    -0.208 NA
ATOM     12  O   UNL d   1      59.700  49.700  48.842  0.00  0.00    -0.265 OA
BRANCH  11  13
ATOM     13  C   UNL d   1      57.759  49.559  49.827  0.00  0.00     0.085 A 
ATOM     14  C   UNL d   1      57.937  49.696  50.601  0.00  0.00     0.019 A 
ATOM     15  C   UNL d   1      57.367  49.553  51.176  0.00  0.00     0.002 A 
ATOM     16  C   UNL d   1      56.620  49.272  50.964  0.00  0.00     0.000 A 
ATOM     17  C   UNL d   1      56.457  49.138  50.180  0.00  0.00     0.002 A 
ATOM     18  C   UNL d   1      57.026  49.282  49.611  0.00  0.00     0.019 A 
ENDBRANCH  11  13
ENDBRANCH   9  10
ENDBRANCH   8   9
ENDBRANCH   3   8
BRANCH   2  19
ATOM     19  C   UNL d   1      60.568  48.594  51.923  0.00  0.00     0.124 C 
ATOM     20  N   UNL d   1      60.474  49.435  51.845  0.00  0.00    -0.146 N 
ENDBRANCH   2  19
BRANCH   4  21
ATOM     21  C   UNL d   1      61.235  47.081  52.073  0.00  0.00     0.003 A 
ATOM     22  C   UNL d   1      60.909  46.380  52.352  0.00  0.00     0.021 A 
ATOM     23  C   UNL d   1      61.110  46.095  53.111  0.00  0.00     0.099 A 
ATOM     24  N   UNL d   1      61.636  46.513  53.588  0.00  0.00    -0.242 NA
ATOM     25  C   UNL d   1      61.961  47.216  53.306  0.00  0.00     0.099 A 
ATOM     26  C   UNL d   1      61.761  47.500  52.547  0.00  0.00     0.021 A 
ENDBRANCH   4  21
BRANCH   1  27
ATOM     27  C   UNL d   1      61.511  46.120  50.747  0.00  0.00     0.281 C 
ATOM     28  N   UNL d   1      61.050  45.427  50.581  0.00  0.00    -0.208 NA
ATOM     29  O   UNL d   1      62.316  46.049  51.007  0.00  0.00    -0.265 OA
BRANCH  28  30
ATOM     30  C   UNL d   1      61.362  44.695  50.665  0.00  0.00     0.085 A 
ATOM     31  C   UNL d   1      61.172  44.233  51.296  0.00  0.00     0.019 A 
ATOM     32  C   UNL d   1      61.488  43.469  51.400  0.00  0.00     0.002 A 
ATOM     33  C   UNL d   1      62.009  43.181  50.840  0.00  0.00     0.000 A 
ATOM     34  C   UNL d   1      62.206  43.650  50.193  0.00  0.00     0.002 A 
ATOM     35  C   UNL d   1      61.891  44.407  50.093  0.00  0.00     0.019 A 
ENDBRANCH  28  30
ENDBRANCH   1  27
TORSDOF 8
ENDMDL
