MODEL 1
REMARK VINA RESULT:      -0.6      0.000      0.000
REMARK  5 active torsions:
REMARK  status: ('A' for Active; 'I' for Inactive)
REMARK    1  A    between atoms: N_6  and  S_1 
REMARK    2  A    between atoms: C_7  and  S_1 
REMARK    3  A    between atoms: C_9  and  C_2 
REMARK       I    between atoms: N_16  and  C_9 
REMARK    4  A    between atoms: C_26  and  N_16 
REMARK    5  A    between atoms: C_18  and  C_26 
ROOT
ATOM      1  C   UNL d   1      58.160  -0.315  29.834  0.00  0.00     0.158 A 
ATOM      2  C   UNL d   1      58.140  -1.135  29.953  0.00  0.00     0.029 A 
ATOM      3  O   UNL d   1      58.787  -0.149  29.334  0.00  0.00    -0.302 OA
ATOM      4  C   UNL d   1      58.756  -1.448  29.523  0.00  0.00     0.026 A 
ATOM      5  C   UNL d   1      59.650  -2.430  28.967  0.00  0.00     0.104 A 
ATOM      6  C   UNL d   1      59.164  -0.848  29.136  0.00  0.00     0.100 A 
ATOM      7  C   UNL d   1      59.001  -2.247  29.438  0.00  0.00     0.015 A 
ATOM      8  C   UNL d   1      60.059  -1.816  28.577  0.00  0.00     0.015 A 
ATOM      9  C   UNL d   1      59.810  -1.032  28.667  0.00  0.00     0.025 A 
ATOM     10  C   UNL d   1      57.594  -1.538  30.420  0.00  0.00     0.002 C 
ENDROOT
BRANCH   1  11
ATOM     11  C   UNL d   1      57.600   0.166  30.199  0.00  0.00     0.302 C 
ATOM     12  N   UNL d   1      57.563   0.198  31.024  0.00  0.00    -0.203 NA
ATOM     13  O   UNL d   1      57.075   0.616  29.758  0.00  0.00    -0.263 OA
BRANCH  12  14
ATOM     14  C   UNL d   1      57.005   0.678  31.400  0.00  0.00     0.129 C 
BRANCH  14  15
ATOM     15  C   UNL d   1      56.765   0.517  32.183  0.00  0.00     0.144 A 
ATOM     16  O   UNL d   1      55.975   0.655  32.415  0.00  0.00    -0.301 OA
ATOM     17  C   UNL d   1      55.744   0.496  33.185  0.00  0.00     0.123 A 
ATOM     18  C   UNL d   1      54.963   0.629  33.427  0.00  0.00     0.027 A 
ATOM     19  C   UNL d   1      56.282   0.201  33.732  0.00  0.00     0.123 A 
ATOM     20  C   UNL d   1      54.721   0.473  34.197  0.00  0.00     0.002 A 
ATOM     21  C   UNL d   1      55.276   0.176  34.737  0.00  0.00     0.002 A 
ATOM     22  C   UNL d   1      56.052   0.040  34.509  0.00  0.00     0.027 A 
ATOM     23  O   UNL d   1      57.069   0.067  33.487  0.00  0.00    -0.301 OA
ATOM     24  C   UNL d   1      57.313   0.221  32.725  0.00  0.00     0.149 A 
ENDBRANCH  14  15
ENDBRANCH  12  14
ENDBRANCH   1  11
BRANCH   5  25
ATOM     25  S   UNL d   1      59.890  -3.219  28.884  0.00  0.00     0.272 S 
ATOM     26  O   UNL d   1      59.138  -3.419  28.598  0.00  0.00    -0.200 OA
ATOM     27  O   UNL d   1      60.653  -3.021  29.174  0.00  0.00    -0.200 OA
BRANCH  25  28
ATOM     28  N   UNL d   1      60.133  -4.019  28.800  0.00  0.00    -0.225 N 
ATOM     29  C   UNL d   1      59.599  -4.615  28.981  0.00  0.00     0.118 A 
ATOM     30  C   UNL d   1      59.825  -5.407  28.903  0.00  0.00     0.142 A 
ATOM     31  O   UNL d   1      60.609  -5.595  28.634  0.00  0.00    -0.300 OA
ATOM     32  C   UNL d   1      61.132  -4.981  28.456  0.00  0.00     0.142 A 
ATOM     33  C   UNL d   1      60.892  -4.198  28.540  0.00  0.00     0.118 A 
ENDBRANCH  25  28
ENDBRANCH   5  25
TORSDOF 5
ENDMDL
