MODEL 1
REMARK VINA RESULT:      88.5      0.000      0.000
REMARK  4 active torsions:
REMARK  status: ('A' for Active; 'I' for Inactive)
REMARK    1  A    between atoms: C_2  and  C_1 
REMARK    2  A    between atoms: C_4  and  C_2 
REMARK    3  A    between atoms: N_6  and  C_2 
REMARK    4  A    between atoms: C_8  and  N_6 
ROOT
ATOM      1  C   UNL d   1     -55.986 -99.689 -44.339  0.00  0.00     0.088 C 
ENDROOT
BRANCH   1   2
ATOM      2  C   UNL d   1     -56.672 -99.454 -44.750  0.00  0.00     0.058 A 
ATOM      3  C   UNL d   1     -57.426 -99.593 -44.413  0.00  0.00     0.214 A 
ATOM      4  C   UNL d   1     -58.103 -99.358 -44.823  0.00  0.00     0.120 A 
ATOM      5  O   UNL d   1     -57.489 -99.966 -43.671  0.00  0.00    -0.285 OA
ATOM      6  N   UNL d   1     -58.837 -99.499 -44.486  0.00  0.00    -0.241 NA
ATOM      7  C   UNL d   1     -58.041 -98.989 -45.559  0.00  0.00     0.021 A 
ATOM      8  C   UNL d   1     -59.527 -99.264 -44.897  0.00  0.00     0.099 A 
ATOM      9  C   UNL d   1     -59.465 -98.895 -45.632  0.00  0.00     0.021 A 
ATOM     10  C   UNL d   1     -58.711 -98.756 -45.967  0.00  0.00     0.003 A 
ATOM     11  C   UNL d   1     -57.300 -98.850 -45.895  0.00  0.00     0.002 A 
ATOM     12  C   UNL d   1     -56.610 -99.085 -45.485  0.00  0.00     0.005 A 
ENDBRANCH   1   2
BRANCH   1  13
ATOM     13  C   UNL d   1     -55.651-100.441 -44.487  0.00  0.00     0.045 A 
ATOM     14  C   UNL d   1     -55.125-100.531 -45.116  0.00  0.00     0.141 A 
ATOM     15  F   UNL d   1     -54.810-100.052 -45.687  0.00  0.00    -0.204 F 
ATOM     16  C   UNL d   1     -54.791-101.275 -45.265  0.00  0.00     0.030 A 
ATOM     17  C   UNL d   1     -54.992-101.912 -44.780  0.00  0.00     0.002 A 
ATOM     18  C   UNL d   1     -55.518-101.822 -44.151  0.00  0.00     0.000 A 
ATOM     19  C   UNL d   1     -55.853-101.070 -44.003  0.00  0.00     0.004 A 
ENDBRANCH   1  13
BRANCH   1  20
ATOM     20  N   UNL d   1     -55.634 -99.177 -43.784  0.00  0.00    -0.227 NA
BRANCH  20  21
ATOM     21  C   UNL d   1     -55.509 -99.047 -43.108  0.00  0.00     0.162 A 
ATOM     22  N   UNL d   1     -54.848 -98.920 -42.897  0.00  0.00    -0.225 NA
ATOM     23  C   UNL d   1     -54.718 -98.788 -42.216  0.00  0.00     0.101 A 
ATOM     24  C   UNL d   1     -55.240 -98.783 -41.754  0.00  0.00     0.021 A 
ATOM     25  C   UNL d   1     -55.899 -98.909 -41.968  0.00  0.00     0.005 A 
ATOM     26  C   UNL d   1     -56.029 -99.041 -42.649  0.00  0.00     0.039 A 
ENDBRANCH  20  21
ENDBRANCH   1  20
TORSDOF 4
ENDMDL
