MODEL 1
REMARK VINA RESULT:      -6.1      0.000      0.000
REMARK  3 active torsions:
REMARK  status: ('A' for Active; 'I' for Inactive)
REMARK    1  A    between atoms: C_4  and  C_1 
REMARK    2  A    between atoms: N_7  and  C_4 
REMARK    3  A    between atoms: C_9  and  N_7 
ROOT
ATOM      1  C   UNL d   1     -48.421  12.403  23.154  0.00  0.00     0.139 A 
ATOM      2  N   UNL d   1     -48.764  12.293  22.427  0.00  0.00    -0.236 NA
ATOM      3  S   UNL d   1     -48.980  12.696  23.677  0.00  0.00    -0.064 SA
ATOM      4  C   UNL d   1     -49.564  12.522  22.486  0.00  0.00     0.088 A 
ATOM      5  C   UNL d   1     -49.695  12.771  23.259  0.00  0.00     0.049 A 
ATOM      6  C   UNL d   1     -50.180  12.534  21.937  0.00  0.00     0.020 A 
ATOM      7  C   UNL d   1     -50.448  13.036  23.491  0.00  0.00     0.008 A 
ATOM      8  C   UNL d   1     -51.064  13.048  22.943  0.00  0.00     0.001 A 
ATOM      9  C   UNL d   1     -50.928  12.796  22.163  0.00  0.00     0.002 A 
ENDROOT
BRANCH   1  10
ATOM     10  C   UNL d   1     -47.627  12.240  23.329  0.00  0.00     0.159 C 
ATOM     11  S   UNL d   1     -47.356  11.457  23.352  0.00  0.00    -0.055 SA
BRANCH  10  12
ATOM     12  N   UNL d   1     -47.102  12.858  23.482  0.00  0.00    -0.233 NA
BRANCH  12  13
ATOM     13  C   UNL d   1     -46.391  12.913  23.060  0.00  0.00     0.082 A 
ATOM     14  C   UNL d   1     -46.217  13.610  22.656  0.00  0.00     0.019 A 
ATOM     15  C   UNL d   1     -45.513  13.674  22.234  0.00  0.00     0.002 A 
ATOM     16  C   UNL d   1     -44.986  13.039  22.217  0.00  0.00     0.000 A 
ATOM     17  C   UNL d   1     -45.165  12.339  22.625  0.00  0.00     0.002 A 
ATOM     18  C   UNL d   1     -45.869  12.274  23.047  0.00  0.00     0.019 A 
ENDBRANCH  12  13
ENDBRANCH  10  12
ENDBRANCH   1  10
TORSDOF 3
ENDMDL
MODEL 2
REMARK VINA RESULT:      -5.5      9.044      9.854
REMARK  3 active torsions:
REMARK  status: ('A' for Active; 'I' for Inactive)
REMARK    1  A    between atoms: C_4  and  C_1 
REMARK    2  A    between atoms: N_7  and  C_4 
REMARK    3  A    between atoms: C_9  and  N_7 
ROOT
ATOM      1  C   UNL d   1     -39.277  14.532  20.223  0.00  0.00     0.139 A 
ATOM      2  N   UNL d   1     -38.635  14.037  20.201  0.00  0.00    -0.236 NA
ATOM      3  S   UNL d   1     -39.578  14.552  20.986  0.00  0.00    -0.064 SA
ATOM      4  C   UNL d   1     -38.522  13.731  20.969  0.00  0.00     0.088 A 
ATOM      5  C   UNL d   1     -39.106  14.051  21.453  0.00  0.00     0.049 A 
ATOM      6  C   UNL d   1     -37.967  13.208  21.282  0.00  0.00     0.020 A 
ATOM      7  C   UNL d   1     -39.139  13.848  22.258  0.00  0.00     0.008 A 
ATOM      8  C   UNL d   1     -38.584  13.325  22.571  0.00  0.00     0.001 A 
ATOM      9  C   UNL d   1     -37.995  13.004  22.080  0.00  0.00     0.002 A 
ENDROOT
BRANCH   1  10
ATOM     10  C   UNL d   1     -39.573  14.949  19.571  0.00  0.00     0.159 C 
ATOM     11  S   UNL d   1     -39.193  15.635  19.305  0.00  0.00    -0.055 SA
BRANCH  10  12
ATOM     12  N   UNL d   1     -40.250  14.681  19.183  0.00  0.00    -0.233 NA
BRANCH  12  13
ATOM     13  C   UNL d   1     -40.411  14.930  18.408  0.00  0.00     0.082 A 
ATOM     14  C   UNL d   1     -40.840  15.624  18.292  0.00  0.00     0.019 A 
ATOM     15  C   UNL d   1     -41.005  15.880  17.527  0.00  0.00     0.002 A 
ATOM     16  C   UNL d   1     -40.738  15.441  16.881  0.00  0.00     0.000 A 
ATOM     17  C   UNL d   1     -40.306  14.742  17.003  0.00  0.00     0.002 A 
ATOM     18  C   UNL d   1     -40.141  14.486  17.767  0.00  0.00     0.019 A 
ENDBRANCH  12  13
ENDBRANCH  10  12
ENDBRANCH   1  10
TORSDOF 3
ENDMDL
MODEL 3
REMARK VINA RESULT:      -5.5      8.390     10.615
REMARK  3 active torsions:
REMARK  status: ('A' for Active; 'I' for Inactive)
REMARK    1  A    between atoms: C_4  and  C_1 
REMARK    2  A    between atoms: N_7  and  C_4 
REMARK    3  A    between atoms: C_9  and  N_7 
ROOT
ATOM      1  C   UNL d   1     -39.111  14.998  17.898  0.00  0.00     0.139 A 
ATOM      2  N   UNL d   1     -38.965  14.228  17.688  0.00  0.00    -0.236 NA
ATOM      3  S   UNL d   1     -38.875  15.495  17.290  0.00  0.00    -0.064 SA
ATOM      4  C   UNL d   1     -38.626  14.232  16.926  0.00  0.00     0.088 A 
ATOM      5  C   UNL d   1     -38.571  15.016  16.681  0.00  0.00     0.049 A 
ATOM      6  C   UNL d   1     -38.364  13.625  16.431  0.00  0.00     0.020 A 
ATOM      7  C   UNL d   1     -38.253  15.200  15.937  0.00  0.00     0.008 A 
ATOM      8  C   UNL d   1     -37.991  14.594  15.442  0.00  0.00     0.001 A 
ATOM      9  C   UNL d   1     -38.048  13.804  15.692  0.00  0.00     0.002 A 
ENDROOT
BRANCH   1  10
ATOM     10  C   UNL d   1     -39.448  15.234  18.618  0.00  0.00     0.159 C 
ATOM     11  S   UNL d   1     -38.994  15.645  19.176  0.00  0.00    -0.055 SA
BRANCH  10  12
ATOM     12  N   UNL d   1     -40.237  15.059  18.782  0.00  0.00    -0.233 NA
BRANCH  12  13
ATOM     13  C   UNL d   1     -40.524  15.123  19.557  0.00  0.00     0.082 A 
ATOM     14  C   UNL d   1     -40.813  15.849  19.819  0.00  0.00     0.019 A 
ATOM     15  C   UNL d   1     -41.100  15.922  20.587  0.00  0.00     0.002 A 
ATOM     16  C   UNL d   1     -41.097  15.268  21.090  0.00  0.00     0.000 A 
ATOM     17  C   UNL d   1     -40.805  14.538  20.822  0.00  0.00     0.002 A 
ATOM     18  C   UNL d   1     -40.518  14.465  20.055  0.00  0.00     0.019 A 
ENDBRANCH  12  13
ENDBRANCH  10  12
ENDBRANCH   1  10
TORSDOF 3
ENDMDL
MODEL 4
REMARK VINA RESULT:      -5.5      8.808      9.236
REMARK  3 active torsions:
REMARK  status: ('A' for Active; 'I' for Inactive)
REMARK    1  A    between atoms: C_4  and  C_1 
REMARK    2  A    between atoms: N_7  and  C_4 
REMARK    3  A    between atoms: C_9  and  N_7 
ROOT
ATOM      1  C   UNL d   1     -40.157  14.794  19.659  0.00  0.00     0.139 A 
ATOM      2  N   UNL d   1     -40.035  14.273  19.049  0.00  0.00    -0.236 NA
ATOM      3  S   UNL d   1     -40.461  15.495  19.360  0.00  0.00    -0.064 SA
ATOM      4  C   UNL d   1     -40.265  14.649  18.342  0.00  0.00     0.088 A 
ATOM      5  C   UNL d   1     -40.529  15.405  18.536  0.00  0.00     0.049 A 
ATOM      6  C   UNL d   1     -40.268  14.400  17.555  0.00  0.00     0.020 A 
ATOM      7  C   UNL d   1     -40.798  15.919  17.942  0.00  0.00     0.008 A 
ATOM      8  C   UNL d   1     -40.801  15.670  17.155  0.00  0.00     0.001 A 
ATOM      9  C   UNL d   1     -40.534  14.907  16.962  0.00  0.00     0.002 A 
ENDROOT
BRANCH   1  10
ATOM     10  C   UNL d   1     -39.997  14.632  20.456  0.00  0.00     0.159 C 
ATOM     11  S   UNL d   1     -40.618  14.506  20.990  0.00  0.00    -0.055 SA
BRANCH  10  12
ATOM     12  N   UNL d   1     -39.217  14.596  20.721  0.00  0.00    -0.233 NA
BRANCH  12  13
ATOM     13  C   UNL d   1     -39.056  14.427  21.517  0.00  0.00     0.082 A 
ATOM     14  C   UNL d   1     -38.978  15.051  22.050  0.00  0.00     0.019 A 
ATOM     15  C   UNL d   1     -38.819  14.894  22.842  0.00  0.00     0.002 A 
ATOM     16  C   UNL d   1     -38.738  14.114  23.098  0.00  0.00     0.000 A 
ATOM     17  C   UNL d   1     -38.818  13.489  22.557  0.00  0.00     0.002 A 
ATOM     18  C   UNL d   1     -38.977  13.645  21.765  0.00  0.00     0.019 A 
ENDBRANCH  12  13
ENDBRANCH  10  12
ENDBRANCH   1  10
TORSDOF 3
ENDMDL
