MODEL 1
REMARK VINA RESULT:      -4.8      0.000      0.000
REMARK  6 active torsions:
REMARK  status: ('A' for Active; 'I' for Inactive)
REMARK    1  A    between atoms: C_7  and  C_1 
REMARK    2  A    between atoms: N_5  and  C_3 
REMARK       I    between atoms: C_9  and  N_5 
REMARK    3  A    between atoms: C_8  and  S_11 
REMARK    4  A    between atoms: C_13  and  C_9 
REMARK    5  A    between atoms: S_11  and  C_13 
REMARK    6  A    between atoms: O_17  and  C_14 
ROOT
ATOM      1  C   UNL d   1     -41.573-123.190 -49.848  0.00  0.00     0.137 A 
ATOM      2  S   UNL d   1     -41.725-122.590 -50.402  0.00  0.00    -0.026 SA
ATOM      3  C   UNL d   1     -41.448-122.841 -51.140  0.00  0.00     0.219 A 
ATOM      4  N   UNL d   1     -41.200-123.815 -50.251  0.00  0.00    -0.139 NA
ATOM      5  N   UNL d   1     -41.123-123.600 -51.047  0.00  0.00    -0.121 NA
ENDROOT
BRANCH   3   6
ATOM      6  N   UNL d   1     -41.486-122.417 -51.847  0.00  0.00    -0.181 NA
ATOM      7  C   UNL d   1     -41.531-122.812 -52.575  0.00  0.00     0.287 C 
ATOM      8  O   UNL d   1     -41.537-123.639 -52.588  0.00  0.00    -0.265 OA
BRANCH   7   9
ATOM      9  C   UNL d   1     -41.569-122.380 -53.281  0.00  0.00     0.089 C 
ATOM     10  C   UNL d   1     -41.546-121.555 -53.260  0.00  0.00     0.012 C 
BRANCH   9  11
ATOM     11  S   UNL d   1     -41.629-122.785 -54.006  0.00  0.00    -0.057 SA
BRANCH  11  12
ATOM     12  C   UNL d   1     -41.974-122.402 -54.651  0.00  0.00     0.141 A 
ATOM     13  N   UNL d   1     -42.733-122.059 -54.684  0.00  0.00    -0.230 NA
ATOM     14  C   UNL d   1     -42.843-121.739 -55.441  0.00  0.00     0.107 A 
ATOM     15  C   UNL d   1     -42.153-121.880 -55.885  0.00  0.00     0.058 A 
ATOM     16  S   UNL d   1     -41.615-122.289 -55.398  0.00  0.00    -0.059 SA
ENDBRANCH  11  12
ENDBRANCH   9  11
ENDBRANCH   7   9
ENDBRANCH   3   6
BRANCH   1  17
ATOM     17  C   UNL d   1     -41.758-123.176 -49.039  0.00  0.00     0.048 A 
ATOM     18  C   UNL d   1     -42.524-123.273 -48.786  0.00  0.00     0.096 A 
ATOM     19  C   UNL d   1     -42.700-123.258 -47.992  0.00  0.00     0.024 A 
ATOM     20  C   UNL d   1     -42.089-123.144 -47.461  0.00  0.00     0.002 A 
ATOM     21  C   UNL d   1     -41.333-123.047 -47.696  0.00  0.00     0.000 A 
ATOM     22  C   UNL d   1     -41.155-123.062 -48.495  0.00  0.00     0.004 A 
BRANCH  18  23
ATOM     23  O   UNL d   1     -43.123-123.386 -49.319  0.00  0.00    -0.328 OA
ATOM     24  C   UNL d   1     -43.876-123.817 -48.964  0.00  0.00     0.181 C 
ENDBRANCH  18  23
ENDBRANCH   1  17
TORSDOF 6
ENDMDL
MODEL 2
REMARK VINA RESULT:      -4.4      1.369      5.518
REMARK  6 active torsions:
REMARK  status: ('A' for Active; 'I' for Inactive)
REMARK    1  A    between atoms: C_7  and  C_1 
REMARK    2  A    between atoms: N_5  and  C_3 
REMARK       I    between atoms: C_9  and  N_5 
REMARK    3  A    between atoms: C_8  and  S_11 
REMARK    4  A    between atoms: C_13  and  C_9 
REMARK    5  A    between atoms: S_11  and  C_13 
REMARK    6  A    between atoms: O_17  and  C_14 
ROOT
ATOM      1  C   UNL d   1     -41.475-122.688 -52.898  0.00  0.00     0.137 A 
ATOM      2  S   UNL d   1     -41.452-123.219 -52.260  0.00  0.00    -0.026 SA
ATOM      3  C   UNL d   1     -41.484-122.784 -51.558  0.00  0.00     0.219 A 
ATOM      4  N   UNL d   1     -41.523-121.918 -52.584  0.00  0.00    -0.139 NA
ATOM      5  N   UNL d   1     -41.529-121.978 -51.757  0.00  0.00    -0.121 NA
ENDROOT
BRANCH   3   6
ATOM      6  N   UNL d   1     -41.475-123.090 -50.792  0.00  0.00    -0.181 NA
ATOM      7  C   UNL d   1     -42.082-122.905 -50.255  0.00  0.00     0.287 C 
ATOM      8  O   UNL d   1     -42.698-122.410 -50.495  0.00  0.00    -0.265 OA
BRANCH   7   9
ATOM      9  C   UNL d   1     -42.066-123.216 -49.488  0.00  0.00     0.089 C 
ATOM     10  C   UNL d   1     -42.590-123.818 -49.277  0.00  0.00     0.012 C 
BRANCH   9  11
ATOM     11  S   UNL d   1     -41.519-122.916 -48.936  0.00  0.00    -0.057 SA
BRANCH  11  12
ATOM     12  C   UNL d   1     -41.656-123.038 -48.130  0.00  0.00     0.141 A 
ATOM     13  N   UNL d   1     -42.233-122.665 -47.657  0.00  0.00    -0.230 NA
ATOM     14  C   UNL d   1     -42.166-122.958 -46.885  0.00  0.00     0.107 A 
ATOM     15  C   UNL d   1     -41.547-123.515 -46.870  0.00  0.00     0.058 A 
ATOM     16  S   UNL d   1     -41.231-123.565 -47.639  0.00  0.00    -0.059 SA
ENDBRANCH  11  12
ENDBRANCH   9  11
ENDBRANCH   7   9
ENDBRANCH   3   6
BRANCH   1  17
ATOM     17  C   UNL d   1     -41.455-122.881 -53.705  0.00  0.00     0.048 A 
ATOM     18  C   UNL d   1     -41.734-122.361 -54.264  0.00  0.00     0.096 A 
ATOM     19  C   UNL d   1     -41.712-122.555 -55.054  0.00  0.00     0.024 A 
ATOM     20  C   UNL d   1     -41.404-123.282 -55.266  0.00  0.00     0.002 A 
ATOM     21  C   UNL d   1     -41.127-123.801 -54.728  0.00  0.00     0.000 A 
ATOM     22  C   UNL d   1     -41.148-123.607 -53.933  0.00  0.00     0.004 A 
BRANCH  18  23
ATOM     23  O   UNL d   1     -42.038-121.643 -54.044  0.00  0.00    -0.328 OA
ATOM     24  C   UNL d   1     -42.674-121.298 -54.639  0.00  0.00     0.181 C 
ENDBRANCH  18  23
ENDBRANCH   1  17
TORSDOF 6
ENDMDL
