MODEL 1
REMARK VINA RESULT:      -6.9      0.000      0.000
REMARK  3 active torsions:
REMARK  status: ('A' for Active; 'I' for Inactive)
REMARK    1  A    between atoms: C_2  and  C_1 
REMARK    2  A    between atoms: C_14  and  O_17 
REMARK    3  A    between atoms: O_17  and  C_16 
ROOT
ATOM      1  C   UNL d   1     -47.582  12.635  23.136  0.00  0.00     0.087 A 
ATOM      2  C   UNL d   1     -47.247  13.078  22.520  0.00  0.00     0.201 A 
ATOM      3  C   UNL d   1     -46.430  13.103  22.405  0.00  0.00     0.062 A 
ATOM      4  C   UNL d   1     -47.081  12.212  23.642  0.00  0.00     0.128 A 
ATOM      5  C   UNL d   1     -45.927  12.677  22.914  0.00  0.00     0.105 A 
ATOM      6  O   UNL d   1     -46.248  12.233  23.530  0.00  0.00    -0.305 OA
ATOM      7  C   UNL d   1     -45.111  12.703  22.798  0.00  0.00     0.050 A 
ATOM      8  C   UNL d   1     -46.096  13.542  21.795  0.00  0.00     0.007 A 
ATOM      9  O   UNL d   1     -47.736  13.506  22.007  0.00  0.00    -0.286 OA
ATOM     10  C   UNL d   1     -44.796  13.145  22.187  0.00  0.00     0.105 A 
ATOM     11  C   UNL d   1     -45.300  13.571  21.678  0.00  0.00     0.025 A 
ENDROOT
BRANCH   1  12
ATOM     12  C   UNL d   1     -48.390  12.612  23.247  0.00  0.00     0.116 A 
ATOM     13  N   UNL d   1     -48.872  13.254  23.444  0.00  0.00    -0.238 NA
ATOM     14  C   UNL d   1     -49.646  12.975  23.499  0.00  0.00     0.088 A 
ATOM     15  C   UNL d   1     -50.349  13.357  23.676  0.00  0.00     0.020 A 
ATOM     16  C   UNL d   1     -49.647  12.170  23.340  0.00  0.00     0.049 A 
ATOM     17  C   UNL d   1     -51.064  12.941  23.696  0.00  0.00     0.002 A 
ATOM     18  C   UNL d   1     -51.056  12.125  23.532  0.00  0.00     0.001 A 
ATOM     19  C   UNL d   1     -50.353  11.742  23.356  0.00  0.00     0.008 A 
ATOM     20  S   UNL d   1     -48.865  11.927  23.179  0.00  0.00    -0.066 SA
ENDBRANCH   1  12
BRANCH  10  21
ATOM     21  O   UNL d   1     -43.971  13.163  22.080  0.00  0.00    -0.273 OA
BRANCH  21  22
ATOM     22  C   UNL d   1     -43.585  12.549  21.692  0.00  0.00     0.300 C 
ATOM     23  O   UNL d   1     -43.517  11.805  22.045  0.00  0.00    -0.259 OA
ATOM     24  C   UNL d   1     -43.256  12.671  20.935  0.00  0.00     0.074 C 
ENDBRANCH  21  22
ENDBRANCH  10  21
TORSDOF 3
ENDMDL
MODEL 2
REMARK VINA RESULT:      -6.7      2.015      4.630
REMARK  3 active torsions:
REMARK  status: ('A' for Active; 'I' for Inactive)
REMARK    1  A    between atoms: C_2  and  C_1 
REMARK    2  A    between atoms: C_14  and  O_17 
REMARK    3  A    between atoms: O_17  and  C_16 
ROOT
ATOM      1  C   UNL d   1     -46.675  12.349  23.338  0.00  0.00     0.087 A 
ATOM      2  C   UNL d   1     -46.611  13.088  22.969  0.00  0.00     0.201 A 
ATOM      3  C   UNL d   1     -47.250  13.609  22.940  0.00  0.00     0.062 A 
ATOM      4  C   UNL d   1     -47.397  12.135  23.683  0.00  0.00     0.128 A 
ATOM      5  C   UNL d   1     -47.976  13.394  23.286  0.00  0.00     0.105 A 
ATOM      6  O   UNL d   1     -48.052  12.661  23.657  0.00  0.00    -0.305 OA
ATOM      7  C   UNL d   1     -48.614  13.916  23.256  0.00  0.00     0.050 A 
ATOM      8  C   UNL d   1     -47.189  14.343  22.574  0.00  0.00     0.007 A 
ATOM      9  O   UNL d   1     -45.895  13.314  22.621  0.00  0.00    -0.286 OA
ATOM     10  C   UNL d   1     -48.535  14.641  22.889  0.00  0.00     0.105 A 
ATOM     11  C   UNL d   1     -47.809  14.856  22.542  0.00  0.00     0.025 A 
ENDROOT
BRANCH   1  12
ATOM     12  C   UNL d   1     -46.040  11.835  23.366  0.00  0.00     0.116 A 
ATOM     13  N   UNL d   1     -45.257  12.020  23.177  0.00  0.00    -0.238 NA
ATOM     14  C   UNL d   1     -44.809  11.335  23.283  0.00  0.00     0.088 A 
ATOM     15  C   UNL d   1     -44.009  11.190  23.181  0.00  0.00     0.020 A 
ATOM     16  C   UNL d   1     -45.305  10.733  23.535  0.00  0.00     0.049 A 
ATOM     17  C   UNL d   1     -43.692  10.440  23.329  0.00  0.00     0.002 A 
ATOM     18  C   UNL d   1     -44.204   9.834  23.585  0.00  0.00     0.001 A 
ATOM     19  C   UNL d   1     -45.004   9.979  23.687  0.00  0.00     0.008 A 
ATOM     20  S   UNL d   1     -46.083  11.031  23.592  0.00  0.00    -0.066 SA
ENDBRANCH   1  12
BRANCH  10  21
ATOM     21  O   UNL d   1     -49.186  15.158  22.865  0.00  0.00    -0.273 OA
BRANCH  21  22
ATOM     22  C   UNL d   1     -49.912  14.907  22.570  0.00  0.00     0.300 C 
ATOM     23  O   UNL d   1     -49.975  14.622  21.797  0.00  0.00    -0.259 OA
ATOM     24  C   UNL d   1     -50.594  14.936  23.049  0.00  0.00     0.074 C 
ENDBRANCH  21  22
ENDBRANCH  10  21
TORSDOF 3
ENDMDL
MODEL 3
REMARK VINA RESULT:      -4.8      8.697     10.363
REMARK  3 active torsions:
REMARK  status: ('A' for Active; 'I' for Inactive)
REMARK    1  A    between atoms: C_2  and  C_1 
REMARK    2  A    between atoms: C_14  and  O_17 
REMARK    3  A    between atoms: O_17  and  C_16 
ROOT
ATOM      1  C   UNL d   1     -39.029  14.569  18.342  0.00  0.00     0.087 A 
ATOM      2  C   UNL d   1     -38.655  15.133  18.820  0.00  0.00     0.201 A 
ATOM      3  C   UNL d   1     -38.876  15.245  19.607  0.00  0.00     0.062 A 
ATOM      4  C   UNL d   1     -39.637  14.110  18.668  0.00  0.00     0.128 A 
ATOM      5  C   UNL d   1     -39.487  14.784  19.934  0.00  0.00     0.105 A 
ATOM      6  O   UNL d   1     -39.868  14.219  19.469  0.00  0.00    -0.305 OA
ATOM      7  C   UNL d   1     -39.708  14.896  20.721  0.00  0.00     0.050 A 
ATOM      8  C   UNL d   1     -38.505  15.804  20.082  0.00  0.00     0.007 A 
ATOM      9  O   UNL d   1     -38.045  15.598  18.506  0.00  0.00    -0.286 OA
ATOM     10  C   UNL d   1     -39.329  15.457  21.178  0.00  0.00     0.105 A 
ATOM     11  C   UNL d   1     -38.717  15.918  20.850  0.00  0.00     0.025 A 
ENDROOT
BRANCH   1  12
ATOM     12  C   UNL d   1     -38.808  14.461  17.564  0.00  0.00     0.116 A 
ATOM     13  N   UNL d   1     -38.455  13.783  17.249  0.00  0.00    -0.238 NA
ATOM     14  C   UNL d   1     -38.330  13.920  16.445  0.00  0.00     0.088 A 
ATOM     15  C   UNL d   1     -38.002  13.450  15.860  0.00  0.00     0.020 A 
ATOM     16  C   UNL d   1     -38.601  14.672  16.261  0.00  0.00     0.049 A 
ATOM     17  C   UNL d   1     -37.940  13.724  15.081  0.00  0.00     0.002 A 
ATOM     18  C   UNL d   1     -38.217  14.489  14.904  0.00  0.00     0.001 A 
ATOM     19  C   UNL d   1     -38.545  14.959  15.490  0.00  0.00     0.008 A 
ATOM     20  S   UNL d   1     -38.904  15.025  16.954  0.00  0.00    -0.066 SA
ENDBRANCH   1  12
BRANCH  10  21
ATOM     21  O   UNL d   1     -39.560  15.561  21.970  0.00  0.00    -0.273 OA
BRANCH  21  22
ATOM     22  C   UNL d   1     -39.059  15.343  22.586  0.00  0.00     0.300 C 
ATOM     23  O   UNL d   1     -38.854  14.551  22.700  0.00  0.00    -0.259 OA
ATOM     24  C   UNL d   1     -38.751  15.922  23.102  0.00  0.00     0.074 C 
ENDBRANCH  21  22
ENDBRANCH  10  21
TORSDOF 3
ENDMDL
