MODEL 1
REMARK VINA RESULT:      -7.0      0.000      0.000
REMARK  5 active torsions:
REMARK  status: ('A' for Active; 'I' for Inactive)
REMARK    1  A    between atoms: C_7  and  C_1 
REMARK    2  A    between atoms: N_6  and  C_3 
REMARK       I    between atoms: C_8  and  N_6 
REMARK    3  A    between atoms: C_9  and  C_8 
REMARK    4  A    between atoms: C_11  and  C_9 
REMARK    5  A    between atoms: C_16  and  C_11 
ROOT
ATOM      1  N   UNL d   1     -46.771  13.859  23.231  0.00  0.00    -0.165 NA
ATOM      2  C   UNL d   1     -47.490  13.800  22.853  0.00  0.00     0.282 C 
ATOM      3  O   UNL d   1     -47.622  13.207  22.295  0.00  0.00    -0.265 OA
ENDROOT
BRANCH   1   4
ATOM      4  C   UNL d   1     -46.168  13.327  23.060  0.00  0.00     0.297 A 
ATOM      5  O   UNL d   1     -45.539  13.469  22.550  0.00  0.00    -0.252 OA
ATOM      6  C   UNL d   1     -45.064  12.794  22.538  0.00  0.00     0.229 A 
ATOM      7  N   UNL d   1     -45.404  12.244  23.040  0.00  0.00    -0.117 NA
ATOM      8  N   UNL d   1     -46.084  12.573  23.361  0.00  0.00    -0.101 NA
BRANCH   6   9
ATOM      9  C   UNL d   1     -44.373  12.699  22.097  0.00  0.00     0.143 A 
ATOM     10  O   UNL d   1     -43.787  12.144  22.231  0.00  0.00    -0.301 OA
ATOM     11  C   UNL d   1     -43.203  12.249  21.661  0.00  0.00     0.123 A 
ATOM     12  C   UNL d   1     -43.431  12.874  21.172  0.00  0.00     0.029 A 
ATOM     13  C   UNL d   1     -44.153  13.153  21.439  0.00  0.00     0.030 A 
ENDBRANCH   6   9
ENDBRANCH   1   4
BRANCH   2  14
ATOM     14  C   UNL d   1     -48.095  14.334  23.025  0.00  0.00     0.063 C 
BRANCH  14  15
ATOM     15  C   UNL d   1     -48.851  14.186  22.753  0.00  0.00     0.005 C 
BRANCH  15  16
ATOM     16  C   UNL d   1     -49.491  14.609  23.066  0.00  0.00     0.000 A 
ATOM     17  C   UNL d   1     -49.482  15.434  23.046  0.00  0.00     0.000 A 
ATOM     18  C   UNL d   1     -50.119  15.856  23.358  0.00  0.00     0.000 A 
ATOM     19  C   UNL d   1     -50.761  15.451  23.687  0.00  0.00     0.000 A 
ATOM     20  C   UNL d   1     -50.754  14.631  23.698  0.00  0.00     0.000 A 
ATOM     21  C   UNL d   1     -50.127  14.211  23.391  0.00  0.00     0.000 A 
ENDBRANCH  15  16
ENDBRANCH  14  15
ENDBRANCH   2  14
TORSDOF 5
ENDMDL
MODEL 2
REMARK VINA RESULT:      -5.8      1.651      5.404
REMARK  5 active torsions:
REMARK  status: ('A' for Active; 'I' for Inactive)
REMARK    1  A    between atoms: C_7  and  C_1 
REMARK    2  A    between atoms: N_6  and  C_3 
REMARK       I    between atoms: C_8  and  N_6 
REMARK    3  A    between atoms: C_9  and  C_8 
REMARK    4  A    between atoms: C_11  and  C_9 
REMARK    5  A    between atoms: C_16  and  C_11 
ROOT
ATOM      1  N   UNL d   1     -46.869  13.475  22.467  0.00  0.00    -0.165 NA
ATOM      2  C   UNL d   1     -46.686  12.931  23.045  0.00  0.00     0.282 C 
ATOM      3  O   UNL d   1     -47.180  12.833  23.698  0.00  0.00    -0.265 OA
ENDROOT
BRANCH   1   4
ATOM      4  C   UNL d   1     -47.549  13.933  22.528  0.00  0.00     0.297 A 
ATOM      5  O   UNL d   1     -48.291  13.724  22.240  0.00  0.00    -0.252 OA
ATOM      6  C   UNL d   1     -48.814  14.337  22.419  0.00  0.00     0.229 A 
ATOM      7  N   UNL d   1     -48.391  14.916  22.813  0.00  0.00    -0.117 NA
ATOM      8  N   UNL d   1     -47.612  14.666  22.881  0.00  0.00    -0.101 NA
BRANCH   6   9
ATOM      9  C   UNL d   1     -49.617  14.354  22.229  0.00  0.00     0.143 A 
ATOM     10  O   UNL d   1     -50.016  13.806  21.771  0.00  0.00    -0.301 OA
ATOM     11  C   UNL d   1     -50.803  14.038  21.726  0.00  0.00     0.123 A 
ATOM     12  C   UNL d   1     -50.891  14.736  22.160  0.00  0.00     0.029 A 
ATOM     13  C   UNL d   1     -50.159  14.932  22.471  0.00  0.00     0.030 A 
ENDBRANCH   6   9
ENDBRANCH   1   4
BRANCH   2  14
ATOM     14  C   UNL d   1     -46.003  12.472  22.982  0.00  0.00     0.063 C 
BRANCH  14  15
ATOM     15  C   UNL d   1     -46.023  11.689  23.214  0.00  0.00     0.005 C 
BRANCH  15  16
ATOM     16  C   UNL d   1     -45.317  11.256  23.261  0.00  0.00     0.000 A 
ATOM     17  C   UNL d   1     -45.313  10.526  23.646  0.00  0.00     0.000 A 
ATOM     18  C   UNL d   1     -44.611  10.095  23.692  0.00  0.00     0.000 A 
ATOM     19  C   UNL d   1     -43.918  10.396  23.355  0.00  0.00     0.000 A 
ATOM     20  C   UNL d   1     -43.940  11.123  22.976  0.00  0.00     0.000 A 
ATOM     21  C   UNL d   1     -44.631  11.552  22.928  0.00  0.00     0.000 A 
ENDBRANCH  15  16
ENDBRANCH  14  15
ENDBRANCH   2  14
TORSDOF 5
ENDMDL
MODEL 3
REMARK VINA RESULT:      -5.6      2.556      6.532
REMARK  5 active torsions:
REMARK  status: ('A' for Active; 'I' for Inactive)
REMARK    1  A    between atoms: C_7  and  C_1 
REMARK    2  A    between atoms: N_6  and  C_3 
REMARK       I    between atoms: C_8  and  N_6 
REMARK    3  A    between atoms: C_9  and  C_8 
REMARK    4  A    between atoms: C_11  and  C_9 
REMARK    5  A    between atoms: C_16  and  C_11 
ROOT
ATOM      1  N   UNL d   1     -43.103  13.214  20.943  0.00  0.00    -0.165 NA
ATOM      2  C   UNL d   1     -42.331  13.329  21.176  0.00  0.00     0.282 C 
ATOM      3  O   UNL d   1     -42.091  13.137  21.941  0.00  0.00    -0.265 OA
ENDROOT
BRANCH   1   4
ATOM      4  C   UNL d   1     -43.653  12.904  21.471  0.00  0.00     0.297 A 
ATOM      5  O   UNL d   1     -44.340  13.282  21.718  0.00  0.00    -0.252 OA
ATOM      6  C   UNL d   1     -44.730  12.780  22.244  0.00  0.00     0.229 A 
ATOM      7  N   UNL d   1     -44.281  12.100  22.316  0.00  0.00    -0.117 NA
ATOM      8  N   UNL d   1     -43.617  12.177  21.839  0.00  0.00    -0.101 NA
BRANCH   6   9
ATOM      9  C   UNL d   1     -45.444  12.943  22.624  0.00  0.00     0.143 A 
ATOM     10  O   UNL d   1     -45.763  12.526  23.253  0.00  0.00    -0.301 OA
ATOM     11  C   UNL d   1     -46.477  12.879  23.455  0.00  0.00     0.123 A 
ATOM     12  C   UNL d   1     -46.600  13.519  22.948  0.00  0.00     0.029 A 
ATOM     13  C   UNL d   1     -45.964  13.560  22.434  0.00  0.00     0.030 A 
ENDBRANCH   6   9
ENDBRANCH   1   4
BRANCH   2  14
ATOM     14  C   UNL d   1     -41.780  13.640  20.646  0.00  0.00     0.063 C 
BRANCH  14  15
ATOM     15  C   UNL d   1     -41.291  14.249  20.886  0.00  0.00     0.005 C 
BRANCH  15  16
ATOM     16  C   UNL d   1     -40.859  14.677  20.322  0.00  0.00     0.000 A 
ATOM     17  C   UNL d   1     -40.941  15.497  20.283  0.00  0.00     0.000 A 
ATOM     18  C   UNL d   1     -40.511  15.922  19.722  0.00  0.00     0.000 A 
ATOM     19  C   UNL d   1     -40.003  15.526  19.203  0.00  0.00     0.000 A 
ATOM     20  C   UNL d   1     -39.933  14.711  19.255  0.00  0.00     0.000 A 
ATOM     21  C   UNL d   1     -40.356  14.287  19.808  0.00  0.00     0.000 A 
ENDBRANCH  15  16
ENDBRANCH  14  15
ENDBRANCH   2  14
TORSDOF 5
ENDMDL
MODEL 4
REMARK VINA RESULT:      -5.4      1.261      1.967
REMARK  5 active torsions:
REMARK  status: ('A' for Active; 'I' for Inactive)
REMARK    1  A    between atoms: C_7  and  C_1 
REMARK    2  A    between atoms: N_6  and  C_3 
REMARK       I    between atoms: C_8  and  N_6 
REMARK    3  A    between atoms: C_9  and  C_8 
REMARK    4  A    between atoms: C_11  and  C_9 
REMARK    5  A    between atoms: C_16  and  C_11 
ROOT
ATOM      1  N   UNL d   1     -45.572  13.028  21.822  0.00  0.00    -0.165 NA
ATOM      2  C   UNL d   1     -45.937  13.273  22.508  0.00  0.00     0.282 C 
ATOM      3  O   UNL d   1     -45.498  13.388  23.197  0.00  0.00    -0.265 OA
ENDROOT
BRANCH   1   4
ATOM      4  C   UNL d   1     -44.761  12.892  21.809  0.00  0.00     0.297 A 
ATOM      5  O   UNL d   1     -44.198  13.405  21.499  0.00  0.00    -0.252 OA
ATOM      6  C   UNL d   1     -43.456  13.056  21.599  0.00  0.00     0.229 A 
ATOM      7  N   UNL d   1     -43.569  12.336  21.968  0.00  0.00    -0.117 NA
ATOM      8  N   UNL d   1     -44.373  12.234  22.098  0.00  0.00    -0.101 NA
BRANCH   6   9
ATOM      9  C   UNL d   1     -42.736  13.385  21.365  0.00  0.00     0.143 A 
ATOM     10  O   UNL d   1     -42.525  14.174  21.418  0.00  0.00    -0.301 OA
ATOM     11  C   UNL d   1     -41.762  14.253  21.123  0.00  0.00     0.123 A 
ATOM     12  C   UNL d   1     -41.499  13.507  20.884  0.00  0.00     0.029 A 
ATOM     13  C   UNL d   1     -42.100  12.970  21.033  0.00  0.00     0.030 A 
ENDBRANCH   6   9
ENDBRANCH   1   4
BRANCH   2  14
ATOM     14  C   UNL d   1     -46.751  13.409  22.520  0.00  0.00     0.063 C 
BRANCH  14  15
ATOM     15  C   UNL d   1     -47.042  14.068  22.903  0.00  0.00     0.005 C 
BRANCH  15  16
ATOM     16  C   UNL d   1     -47.842  14.271  22.823  0.00  0.00     0.000 A 
ATOM     17  C   UNL d   1     -48.046  15.021  22.545  0.00  0.00     0.000 A 
ATOM     18  C   UNL d   1     -48.842  15.222  22.465  0.00  0.00     0.000 A 
ATOM     19  C   UNL d   1     -49.429  14.675  22.663  0.00  0.00     0.000 A 
ATOM     20  C   UNL d   1     -49.209  13.934  22.938  0.00  0.00     0.000 A 
ATOM     21  C   UNL d   1     -48.424  13.731  23.018  0.00  0.00     0.000 A 
ENDBRANCH  15  16
ENDBRANCH  14  15
ENDBRANCH   2  14
TORSDOF 5
ENDMDL
MODEL 5
REMARK VINA RESULT:      -5.3      1.526      5.403
REMARK  5 active torsions:
REMARK  status: ('A' for Active; 'I' for Inactive)
REMARK    1  A    between atoms: C_7  and  C_1 
REMARK    2  A    between atoms: N_6  and  C_3 
REMARK       I    between atoms: C_8  and  N_6 
REMARK    3  A    between atoms: C_9  and  C_8 
REMARK    4  A    between atoms: C_11  and  C_9 
REMARK    5  A    between atoms: C_16  and  C_11 
ROOT
ATOM      1  N   UNL d   1     -47.139  13.509  22.275  0.00  0.00    -0.165 NA
ATOM      2  C   UNL d   1     -46.467  13.485  22.733  0.00  0.00     0.282 C 
ATOM      3  O   UNL d   1     -46.518  13.538  23.555  0.00  0.00    -0.265 OA
ENDROOT
BRANCH   1   4
ATOM      4  C   UNL d   1     -47.879  13.585  22.627  0.00  0.00     0.297 A 
ATOM      5  O   UNL d   1     -48.416  12.973  22.744  0.00  0.00    -0.252 OA
ATOM      6  C   UNL d   1     -49.083  13.289  23.113  0.00  0.00     0.229 A 
ATOM      7  N   UNL d   1     -48.951  14.089  23.219  0.00  0.00    -0.117 NA
ATOM      8  N   UNL d   1     -48.209  14.272  22.920  0.00  0.00    -0.101 NA
BRANCH   6   9
ATOM      9  C   UNL d   1     -49.757  12.866  23.332  0.00  0.00     0.143 A 
ATOM     10  O   UNL d   1     -49.790  12.066  23.503  0.00  0.00    -0.301 OA
ATOM     11  C   UNL d   1     -50.567  11.878  23.693  0.00  0.00     0.123 A 
ATOM     12  C   UNL d   1     -51.018  12.569  23.639  0.00  0.00     0.029 A 
ATOM     13  C   UNL d   1     -50.519  13.179  23.416  0.00  0.00     0.030 A 
ENDBRANCH   6   9
ENDBRANCH   1   4
BRANCH   2  14
ATOM     14  C   UNL d   1     -45.725  13.408  22.379  0.00  0.00     0.063 C 
BRANCH  14  15
ATOM     15  C   UNL d   1     -45.339  12.689  22.408  0.00  0.00     0.005 C 
BRANCH  15  16
ATOM     16  C   UNL d   1     -44.568  12.624  22.111  0.00  0.00     0.000 A 
ATOM     17  C   UNL d   1     -44.318  13.135  21.513  0.00  0.00     0.000 A 
ATOM     18  C   UNL d   1     -43.551  13.070  21.217  0.00  0.00     0.000 A 
ATOM     19  C   UNL d   1     -43.039  12.496  21.519  0.00  0.00     0.000 A 
ATOM     20  C   UNL d   1     -43.303  11.996  22.113  0.00  0.00     0.000 A 
ATOM     21  C   UNL d   1     -44.060  12.056  22.408  0.00  0.00     0.000 A 
ENDBRANCH  15  16
ENDBRANCH  14  15
ENDBRANCH   2  14
TORSDOF 5
ENDMDL
MODEL 6
REMARK VINA RESULT:      -4.8      8.325      9.661
REMARK  5 active torsions:
REMARK  status: ('A' for Active; 'I' for Inactive)
REMARK    1  A    between atoms: C_7  and  C_1 
REMARK    2  A    between atoms: N_6  and  C_3 
REMARK       I    between atoms: C_8  and  N_6 
REMARK    3  A    between atoms: C_9  and  C_8 
REMARK    4  A    between atoms: C_11  and  C_9 
REMARK    5  A    between atoms: C_16  and  C_11 
ROOT
ATOM      1  N   UNL d   1     -38.956  14.904  19.663  0.00  0.00    -0.165 NA
ATOM      2  C   UNL d   1     -39.357  14.474  19.100  0.00  0.00     0.282 C 
ATOM      3  O   UNL d   1     -39.977  13.975  19.317  0.00  0.00    -0.265 OA
ENDROOT
BRANCH   1   4
ATOM      4  C   UNL d   1     -39.166  14.846  20.456  0.00  0.00     0.297 A 
ATOM      5  O   UNL d   1     -38.778  14.388  21.019  0.00  0.00    -0.252 OA
ATOM      6  C   UNL d   1     -39.168  14.490  21.740  0.00  0.00     0.229 A 
ATOM      7  N   UNL d   1     -39.789  15.007  21.615  0.00  0.00    -0.117 NA
ATOM      8  N   UNL d   1     -39.788  15.226  20.824  0.00  0.00    -0.101 NA
BRANCH   6   9
ATOM      9  C   UNL d   1     -38.960  14.129  22.453  0.00  0.00     0.143 A 
ATOM     10  O   UNL d   1     -39.025  13.332  22.628  0.00  0.00    -0.301 OA
ATOM     11  C   UNL d   1     -38.756  13.219  23.396  0.00  0.00     0.123 A 
ATOM     12  C   UNL d   1     -38.522  13.951  23.698  0.00  0.00     0.029 A 
ATOM     13  C   UNL d   1     -38.647  14.515  23.117  0.00  0.00     0.030 A 
ENDBRANCH   6   9
ENDBRANCH   1   4
BRANCH   2  14
ATOM     14  C   UNL d   1     -39.146  14.532  18.304  0.00  0.00     0.063 C 
BRANCH  14  15
ATOM     15  C   UNL d   1     -39.230  13.882  17.817  0.00  0.00     0.005 C 
BRANCH  15  16
ATOM     16  C   UNL d   1     -38.852  13.868  17.079  0.00  0.00     0.000 A 
ATOM     17  C   UNL d   1     -38.316  13.265  16.908  0.00  0.00     0.000 A 
ATOM     18  C   UNL d   1     -37.940  13.252  16.174  0.00  0.00     0.000 A 
ATOM     19  C   UNL d   1     -38.101  13.840  15.616  0.00  0.00     0.000 A 
ATOM     20  C   UNL d   1     -38.637  14.433  15.803  0.00  0.00     0.000 A 
ATOM     21  C   UNL d   1     -39.011  14.450  16.527  0.00  0.00     0.000 A 
ENDBRANCH  15  16
ENDBRANCH  14  15
ENDBRANCH   2  14
TORSDOF 5
ENDMDL
