MODEL 1
REMARK VINA RESULT:      -7.8      0.000      0.000
REMARK  2 active torsions:
REMARK  status: ('A' for Active; 'I' for Inactive)
REMARK    1  A    between atoms: N_10  and  C_3 
REMARK    2  A    between atoms: C_12  and  C_5 
ROOT
ATOM      1  N   UNL d   1      52.356  34.135  53.566  0.00  0.00    -0.196 N 
ATOM      2  C   UNL d   1      53.041  33.886  53.964  0.00  0.00     0.167 A 
ATOM      3  C   UNL d   1      51.929  33.588  53.127  0.00  0.00     0.152 A 
ATOM      4  N   UNL d   1      52.553  35.442  54.055  0.00  0.00    -0.163 NA
ATOM      5  C   UNL d   1      53.476  34.409  54.402  0.00  0.00     0.055 A 
ATOM      6  N   UNL d   1      53.282  33.096  53.914  0.00  0.00    -0.227 NA
ATOM      7  C   UNL d   1      52.165  32.808  53.076  0.00  0.00     0.052 A 
ATOM      8  C   UNL d   1      53.233  35.195  54.450  0.00  0.00     0.104 A 
ATOM      9  C   UNL d   1      52.846  32.561  53.472  0.00  0.00     0.086 A 
ATOM     10  C   UNL d   1      51.720  32.272  52.628  0.00  0.00     0.004 A 
ATOM     11  C   UNL d   1      53.658  35.726  54.883  0.00  0.00     0.023 C 
ATOM     12  C   UNL d   1      53.088  31.776  53.423  0.00  0.00     0.019 A 
ATOM     13  C   UNL d   1      51.969  31.476  52.581  0.00  0.00     0.000 A 
ATOM     14  C   UNL d   1      52.650  31.228  52.977  0.00  0.00     0.002 A 
ENDROOT
BRANCH   3  15
ATOM     15  N   UNL d   1      51.233  33.836  52.721  0.00  0.00    -0.286 N 
ATOM     16  C   UNL d   1      50.498  33.849  53.126  0.00  0.00     0.101 A 
ATOM     17  C   UNL d   1      49.796  34.100  52.717  0.00  0.00     0.100 A 
ATOM     18  N   UNL d   1      49.837  34.334  51.913  0.00  0.00    -0.299 N 
ATOM     19  C   UNL d   1      50.574  34.322  51.505  0.00  0.00     0.100 A 
ATOM     20  C   UNL d   1      49.133  34.583  51.513  0.00  0.00     0.100 C 
ATOM     21  C   UNL d   1      51.281  34.072  51.907  0.00  0.00     0.101 A 
ENDBRANCH   3  15
BRANCH   5  22
ATOM     22  C   UNL d   1      54.156  34.162  54.797  0.00  0.00     0.004 A 
ATOM     23  C   UNL d   1      54.878  34.219  54.425  0.00  0.00     0.000 A 
ATOM     24  C   UNL d   1      55.558  33.972  54.821  0.00  0.00     0.000 A 
ATOM     25  C   UNL d   1      55.506  33.671  55.582  0.00  0.00     0.000 A 
ATOM     26  C   UNL d   1      54.775  33.618  55.949  0.00  0.00     0.000 A 
ATOM     27  C   UNL d   1      54.094  33.865  55.553  0.00  0.00     0.000 A 
ENDBRANCH   5  22
TORSDOF 2
ENDMDL
MODEL 2
REMARK VINA RESULT:      -5.9      1.675      3.470
REMARK  2 active torsions:
REMARK  status: ('A' for Active; 'I' for Inactive)
REMARK    1  A    between atoms: N_10  and  C_3 
REMARK    2  A    between atoms: C_12  and  C_5 
ROOT
ATOM      1  N   UNL d   1      52.434  31.758  53.379  0.00  0.00    -0.196 N 
ATOM      2  C   UNL d   1      52.927  31.194  53.737  0.00  0.00     0.167 A 
ATOM      3  C   UNL d   1      52.550  32.554  53.549  0.00  0.00     0.152 A 
ATOM      4  N   UNL d   1      51.745  30.726  52.712  0.00  0.00    -0.163 NA
ATOM      5  C   UNL d   1      52.829  30.406  53.583  0.00  0.00     0.055 A 
ATOM      6  N   UNL d   1      53.524  31.438  54.255  0.00  0.00    -0.227 NA
ATOM      7  C   UNL d   1      53.138  32.796  54.060  0.00  0.00     0.052 A 
ATOM      8  C   UNL d   1      52.234  30.165  53.067  0.00  0.00     0.104 A 
ATOM      9  C   UNL d   1      53.627  32.236  54.415  0.00  0.00     0.086 A 
ATOM     10  C   UNL d   1      53.237  33.604  54.217  0.00  0.00     0.004 A 
ATOM     11  C   UNL d   1      52.127  29.383  52.906  0.00  0.00     0.023 C 
ATOM     12  C   UNL d   1      54.222  32.476  54.931  0.00  0.00     0.019 A 
ATOM     13  C   UNL d   1      53.843  33.844  54.742  0.00  0.00     0.000 A 
ATOM     14  C   UNL d   1      54.332  33.283  55.097  0.00  0.00     0.002 A 
ENDROOT
BRANCH   3  15
ATOM     15  N   UNL d   1      52.051  33.130  53.188  0.00  0.00    -0.286 N 
ATOM     16  C   UNL d   1      51.310  33.314  53.536  0.00  0.00     0.101 A 
ATOM     17  C   UNL d   1      50.807  33.896  53.171  0.00  0.00     0.100 A 
ATOM     18  N   UNL d   1      51.049  34.282  52.469  0.00  0.00    -0.299 N 
ATOM     19  C   UNL d   1      51.793  34.098  52.118  0.00  0.00     0.100 A 
ATOM     20  C   UNL d   1      50.542  34.860  52.113  0.00  0.00     0.100 C 
ATOM     21  C   UNL d   1      52.302  33.518  52.476  0.00  0.00     0.101 A 
ENDBRANCH   3  15
BRANCH   5  22
ATOM     22  C   UNL d   1      53.319  29.845  53.938  0.00  0.00     0.004 A 
ATOM     23  C   UNL d   1      54.031  29.658  53.590  0.00  0.00     0.000 A 
ATOM     24  C   UNL d   1      54.520  29.097  53.945  0.00  0.00     0.000 A 
ATOM     25  C   UNL d   1      54.291  28.732  54.643  0.00  0.00     0.000 A 
ATOM     26  C   UNL d   1      53.572  28.928  54.986  0.00  0.00     0.000 A 
ATOM     27  C   UNL d   1      53.082  29.488  54.631  0.00  0.00     0.000 A 
ENDBRANCH   5  22
TORSDOF 2
ENDMDL
MODEL 3
REMARK VINA RESULT:      -5.7      1.545      3.614
REMARK  2 active torsions:
REMARK  status: ('A' for Active; 'I' for Inactive)
REMARK    1  A    between atoms: N_10  and  C_3 
REMARK    2  A    between atoms: C_12  and  C_5 
ROOT
ATOM      1  N   UNL d   1      53.067  33.034  53.778  0.00  0.00    -0.196 N 
ATOM      2  C   UNL d   1      52.825  32.288  53.504  0.00  0.00     0.167 A 
ATOM      3  C   UNL d   1      52.557  33.673  53.699  0.00  0.00     0.152 A 
ATOM      4  N   UNL d   1      54.294  32.479  54.192  0.00  0.00    -0.163 NA
ATOM      5  C   UNL d   1      53.312  31.646  53.573  0.00  0.00     0.055 A 
ATOM      6  N   UNL d   1      52.079  32.199  53.157  0.00  0.00    -0.227 NA
ATOM      7  C   UNL d   1      51.821  33.587  53.357  0.00  0.00     0.052 A 
ATOM      8  C   UNL d   1      54.054  31.738  53.919  0.00  0.00     0.104 A 
ATOM      9  C   UNL d   1      51.581  32.846  53.084  0.00  0.00     0.086 A 
ATOM     10  C   UNL d   1      51.322  34.244  53.286  0.00  0.00     0.004 A 
ATOM     11  C   UNL d   1      54.549  31.105  53.994  0.00  0.00     0.023 C 
ATOM     12  C   UNL d   1      50.839  32.755  52.738  0.00  0.00     0.019 A 
ATOM     13  C   UNL d   1      50.569  34.148  52.934  0.00  0.00     0.000 A 
ATOM     14  C   UNL d   1      50.329  33.407  52.662  0.00  0.00     0.002 A 
ENDROOT
BRANCH   3  15
ATOM     15  N   UNL d   1      52.798  34.431  53.976  0.00  0.00    -0.286 N 
ATOM     16  C   UNL d   1      52.671  34.640  54.779  0.00  0.00     0.101 A 
ATOM     17  C   UNL d   1      52.915  35.406  55.058  0.00  0.00     0.100 A 
ATOM     18  N   UNL d   1      53.281  35.949  54.536  0.00  0.00    -0.299 N 
ATOM     19  C   UNL d   1      53.410  35.741  53.729  0.00  0.00     0.100 A 
ATOM     20  C   UNL d   1      53.521  36.709  54.822  0.00  0.00     0.100 C 
ATOM     21  C   UNL d   1      53.169  34.977  53.441  0.00  0.00     0.101 A 
ENDBRANCH   3  15
BRANCH   5  22
ATOM     22  C   UNL d   1      53.072  30.906  53.301  0.00  0.00     0.004 A 
ATOM     23  C   UNL d   1      52.713  30.387  53.816  0.00  0.00     0.000 A 
ATOM     24  C   UNL d   1      52.473  29.646  53.543  0.00  0.00     0.000 A 
ATOM     25  C   UNL d   1      52.596  29.436  52.760  0.00  0.00     0.000 A 
ATOM     26  C   UNL d   1      52.959  29.965  52.250  0.00  0.00     0.000 A 
ATOM     27  C   UNL d   1      53.199  30.706  52.522  0.00  0.00     0.000 A 
ENDBRANCH   5  22
TORSDOF 2
ENDMDL
MODEL 4
REMARK VINA RESULT:      -5.2      1.024      4.037
REMARK  2 active torsions:
REMARK  status: ('A' for Active; 'I' for Inactive)
REMARK    1  A    between atoms: N_10  and  C_3 
REMARK    2  A    between atoms: C_12  and  C_5 
ROOT
ATOM      1  N   UNL d   1      52.761  33.822  53.740  0.00  0.00    -0.196 N 
ATOM      2  C   UNL d   1      52.108  33.696  53.243  0.00  0.00     0.167 A 
ATOM      3  C   UNL d   1      53.279  33.200  53.884  0.00  0.00     0.152 A 
ATOM      4  N   UNL d   1      52.359  35.160  53.922  0.00  0.00    -0.163 NA
ATOM      5  C   UNL d   1      51.587  34.295  53.088  0.00  0.00     0.055 A 
ATOM      6  N   UNL d   1      51.987  32.952  52.903  0.00  0.00    -0.227 NA
ATOM      7  C   UNL d   1      53.161  32.466  53.550  0.00  0.00     0.052 A 
ATOM      8  C   UNL d   1      51.710  35.035  53.429  0.00  0.00     0.104 A 
ATOM      9  C   UNL d   1      52.512  32.341  53.056  0.00  0.00     0.086 A 
ATOM     10  C   UNL d   1      53.695  31.852  53.708  0.00  0.00     0.004 A 
ATOM     11  C   UNL d   1      51.197  35.640  53.282  0.00  0.00     0.023 C 
ATOM     12  C   UNL d   1      52.390  31.601  52.716  0.00  0.00     0.019 A 
ATOM     13  C   UNL d   1      53.567  31.102  53.361  0.00  0.00     0.000 A 
ATOM     14  C   UNL d   1      52.918  30.977  52.867  0.00  0.00     0.002 A 
ENDROOT
BRANCH   3  15
ATOM     15  N   UNL d   1      53.943  33.324  54.388  0.00  0.00    -0.286 N 
ATOM     16  C   UNL d   1      53.870  33.190  55.213  0.00  0.00     0.101 A 
ATOM     17  C   UNL d   1      54.540  33.315  55.722  0.00  0.00     0.100 A 
ATOM     18  N   UNL d   1      55.271  33.571  55.401  0.00  0.00    -0.299 N 
ATOM     19  C   UNL d   1      55.346  33.707  54.573  0.00  0.00     0.100 A 
ATOM     20  C   UNL d   1      55.933  33.694  55.915  0.00  0.00     0.100 C 
ATOM     21  C   UNL d   1      54.680  33.585  54.057  0.00  0.00     0.101 A 
ENDBRANCH   3  15
BRANCH   5  22
ATOM     22  C   UNL d   1      50.938  34.170  52.595  0.00  0.00     0.004 A 
ATOM     23  C   UNL d   1      51.026  34.251  51.790  0.00  0.00     0.000 A 
ATOM     24  C   UNL d   1      50.377  34.126  51.296  0.00  0.00     0.000 A 
ATOM     25  C   UNL d   1      49.650  33.922  51.615  0.00  0.00     0.000 A 
ATOM     26  C   UNL d   1      49.571  33.842  52.428  0.00  0.00     0.000 A 
ATOM     27  C   UNL d   1      50.220  33.968  52.921  0.00  0.00     0.000 A 
ENDBRANCH   5  22
TORSDOF 2
ENDMDL
