MODEL 1
REMARK VINA RESULT:      -2.5      0.000      0.000
REMARK  3 active torsions:
REMARK  status: ('A' for Active; 'I' for Inactive)
REMARK    1  A    between atoms: C_4  and  C_1 
REMARK    2  A    between atoms: C_12  and  N_3 
REMARK    3  A    between atoms: C_14  and  C_7 
ROOT
ATOM      1  N   UNL d   1      57.911  -1.026  30.540  0.00  0.00    -0.165 NA
ATOM      2  N   UNL d   1      58.550  -1.055  30.041  0.00  0.00    -0.230 N 
ATOM      3  C   UNL d   1      57.835  -0.297  30.853  0.00  0.00     0.108 A 
ATOM      4  C   UNL d   1      58.900  -0.281  30.044  0.00  0.00     0.084 A 
ATOM      5  C   UNL d   1      58.455   0.190  30.549  0.00  0.00     0.040 A 
ENDROOT
BRANCH   3   6
ATOM      6  C   UNL d   1      57.240  -0.098  31.378  0.00  0.00     0.083 A 
ATOM      7  C   UNL d   1      56.622   0.396  31.125  0.00  0.00     0.302 A 
ATOM      8  O   UNL d   1      56.015   0.600  31.659  0.00  0.00    -0.273 OA
ATOM      9  O   UNL d   1      56.616   0.681  30.342  0.00  0.00    -0.259 OA
ATOM     10  C   UNL d   1      56.026   0.316  32.428  0.00  0.00     0.103 A 
ATOM     11  C   UNL d   1      56.645  -0.178  32.681  0.00  0.00     0.023 A 
ATOM     12  C   UNL d   1      55.428   0.521  32.943  0.00  0.00     0.025 A 
ATOM     13  C   UNL d   1      57.245  -0.383  32.161  0.00  0.00     0.009 A 
ATOM     14  C   UNL d   1      56.658  -0.461  33.445  0.00  0.00     0.002 A 
ATOM     15  C   UNL d   1      56.058  -0.256  33.965  0.00  0.00     0.000 A 
ATOM     16  C   UNL d   1      55.439   0.238  33.712  0.00  0.00     0.002 A 
ENDBRANCH   3   6
BRANCH   2  17
ATOM     17  C   UNL d   1      58.786  -1.720  29.628  0.00  0.00     0.083 A 
ATOM     18  C   UNL d   1      58.469  -1.872  28.881  0.00  0.00     0.019 A 
ATOM     19  C   UNL d   1      58.703  -2.545  28.455  0.00  0.00     0.002 A 
ATOM     20  C   UNL d   1      59.265  -3.067  28.794  0.00  0.00     0.000 A 
ATOM     21  C   UNL d   1      59.582  -2.914  29.540  0.00  0.00     0.002 A 
ATOM     22  C   UNL d   1      59.343  -2.234  29.966  0.00  0.00     0.019 A 
ENDBRANCH   2  17
BRANCH   4  23
ATOM     23  C   UNL d   1      59.552  -0.039  29.629  0.00  0.00     0.018 A 
ATOM     24  C   UNL d   1      59.482   0.280  28.881  0.00  0.00     0.002 A 
ATOM     25  C   UNL d   1      60.143   0.524  28.462  0.00  0.00     0.000 A 
ATOM     26  C   UNL d   1      60.898   0.452  28.790  0.00  0.00     0.000 A 
ATOM     27  C   UNL d   1      60.976   0.129  29.549  0.00  0.00     0.000 A 
ATOM     28  C   UNL d   1      60.299  -0.117  29.969  0.00  0.00     0.002 A 
ENDBRANCH   4  23
TORSDOF 3
ENDMDL
MODEL 2
REMARK VINA RESULT:      -2.2      0.489      2.082
REMARK  3 active torsions:
REMARK  status: ('A' for Active; 'I' for Inactive)
REMARK    1  A    between atoms: C_4  and  C_1 
REMARK    2  A    between atoms: C_12  and  N_3 
REMARK    3  A    between atoms: C_14  and  C_7 
ROOT
ATOM      1  N   UNL d   1      58.448  -0.202  30.462  0.00  0.00    -0.165 NA
ATOM      2  N   UNL d   1      58.947  -0.620  29.978  0.00  0.00    -0.230 N 
ATOM      3  C   UNL d   1      57.862  -0.670  30.729  0.00  0.00     0.108 A 
ATOM      4  C   UNL d   1      58.646  -1.414  29.942  0.00  0.00     0.084 A 
ATOM      5  C   UNL d   1      57.971  -1.445  30.409  0.00  0.00     0.040 A 
ENDROOT
BRANCH   3   6
ATOM      6  C   UNL d   1      57.272  -0.404  31.230  0.00  0.00     0.083 A 
ATOM      7  C   UNL d   1      56.842   0.278  31.028  0.00  0.00     0.302 A 
ATOM      8  O   UNL d   1      56.241   0.550  31.536  0.00  0.00    -0.273 OA
ATOM      9  O   UNL d   1      57.018   0.679  30.319  0.00  0.00    -0.259 OA
ATOM     10  C   UNL d   1      56.074   0.150  32.233  0.00  0.00     0.103 A 
ATOM     11  C   UNL d   1      56.504  -0.531  32.435  0.00  0.00     0.023 A 
ATOM     12  C   UNL d   1      55.484   0.425  32.724  0.00  0.00     0.025 A 
ATOM     13  C   UNL d   1      57.097  -0.805  31.939  0.00  0.00     0.009 A 
ATOM     14  C   UNL d   1      56.340  -0.931  33.127  0.00  0.00     0.002 A 
ATOM     15  C   UNL d   1      55.747  -0.656  33.623  0.00  0.00     0.000 A 
ATOM     16  C   UNL d   1      55.317   0.025  33.421  0.00  0.00     0.002 A 
ENDBRANCH   3   6
BRANCH   2  17
ATOM     17  C   UNL d   1      59.606  -0.306  29.609  0.00  0.00     0.083 A 
ATOM     18  C   UNL d   1      60.343  -0.356  29.977  0.00  0.00     0.019 A 
ATOM     19  C   UNL d   1      61.017  -0.040  29.610  0.00  0.00     0.002 A 
ATOM     20  C   UNL d   1      60.939   0.328  28.861  0.00  0.00     0.000 A 
ATOM     21  C   UNL d   1      60.202   0.378  28.493  0.00  0.00     0.002 A 
ATOM     22  C   UNL d   1      59.525   0.058  28.868  0.00  0.00     0.019 A 
ENDBRANCH   2  17
BRANCH   4  23
ATOM     23  C   UNL d   1      58.959  -2.035  29.526  0.00  0.00     0.018 A 
ATOM     24  C   UNL d   1      58.572  -2.345  28.877  0.00  0.00     0.002 A 
ATOM     25  C   UNL d   1      58.890  -2.974  28.457  0.00  0.00     0.000 A 
ATOM     26  C   UNL d   1      59.611  -3.308  28.683  0.00  0.00     0.000 A 
ATOM     27  C   UNL d   1      60.008  -2.997  29.341  0.00  0.00     0.000 A 
ATOM     28  C   UNL d   1      59.679  -2.358  29.762  0.00  0.00     0.002 A 
ENDBRANCH   4  23
TORSDOF 3
ENDMDL
