MODEL 1
REMARK VINA RESULT:      -4.8      0.000      0.000
REMARK  5 active torsions:
REMARK  status: ('A' for Active; 'I' for Inactive)
REMARK    1  A    between atoms: C_2  and  C_1 
REMARK    2  A    between atoms: O_6  and  C_1 
REMARK    3  A    between atoms: C_11  and  O_6 
REMARK    4  A    between atoms: C_12  and  C_11 
REMARK    5  A    between atoms: C_13  and  C_12 
ROOT
ATOM      1  C   UNL d   1     -41.659-122.652 -53.931  0.00  0.00     0.064 A 
ATOM      2  C   UNL d   1     -42.355-122.207 -53.947  0.00  0.00     0.009 A 
ATOM      3  C   UNL d   1     -41.216-122.738 -54.622  0.00  0.00     0.009 A 
ATOM      4  C   UNL d   1     -42.172-121.933 -55.334  0.00  0.00     0.196 A 
ATOM      5  C   UNL d   1     -42.615-121.847 -54.642  0.00  0.00     0.042 A 
ATOM      6  C   UNL d   1     -41.479-122.377 -55.316  0.00  0.00     0.042 A 
ATOM      7  O   UNL d   1     -42.411-121.579 -56.052  0.00  0.00    -0.287 OA
ENDROOT
BRANCH   1   8
ATOM      8  C   UNL d   1     -41.409-123.009 -53.225  0.00  0.00     0.300 C 
ATOM      9  O   UNL d   1     -41.140-123.789 -53.224  0.00  0.00    -0.259 OA
BRANCH   8  10
ATOM     10  O   UNL d   1     -41.435-122.572 -52.527  0.00  0.00    -0.271 OA
BRANCH  10  11
ATOM     11  C   UNL d   1     -41.228-122.943 -51.817  0.00  0.00     0.126 C 
BRANCH  11  12
ATOM     12  C   UNL d   1     -41.274-122.513 -51.113  0.00  0.00     0.027 C 
BRANCH  12  13
ATOM     13  C   UNL d   1     -41.123-122.884 -50.398  0.00  0.00     0.002 C 
ATOM     14  C   UNL d   1     -41.697-122.894 -49.808  0.00  0.00     0.000 C 
ENDBRANCH  12  13
ENDBRANCH  11  12
ENDBRANCH  10  11
ENDBRANCH   8  10
ENDBRANCH   1   8
TORSDOF 5
ENDMDL
MODEL 2
REMARK VINA RESULT:      -4.5      0.962      3.927
REMARK  5 active torsions:
REMARK  status: ('A' for Active; 'I' for Inactive)
REMARK    1  A    between atoms: C_2  and  C_1 
REMARK    2  A    between atoms: O_6  and  C_1 
REMARK    3  A    between atoms: C_11  and  O_6 
REMARK    4  A    between atoms: C_12  and  C_11 
REMARK    5  A    between atoms: C_13  and  C_12 
ROOT
ATOM      1  C   UNL d   1     -41.346-123.050 -51.968  0.00  0.00     0.064 A 
ATOM      2  C   UNL d   1     -41.357-122.303 -51.614  0.00  0.00     0.009 A 
ATOM      3  C   UNL d   1     -41.315-123.725 -51.492  0.00  0.00     0.009 A 
ATOM      4  C   UNL d   1     -41.306-122.895 -50.317  0.00  0.00     0.196 A 
ATOM      5  C   UNL d   1     -41.337-122.221 -50.793  0.00  0.00     0.042 A 
ATOM      6  C   UNL d   1     -41.295-123.638 -50.671  0.00  0.00     0.042 A 
ATOM      7  O   UNL d   1     -41.285-122.841 -49.484  0.00  0.00    -0.287 OA
ENDROOT
BRANCH   1   8
ATOM      8  C   UNL d   1     -41.366-123.120 -52.794  0.00  0.00     0.300 C 
ATOM      9  O   UNL d   1     -41.123-123.817 -53.160  0.00  0.00    -0.259 OA
BRANCH   8  10
ATOM     10  O   UNL d   1     -41.634-122.482 -53.241  0.00  0.00    -0.271 OA
BRANCH  10  11
ATOM     11  C   UNL d   1     -41.701-122.569 -54.060  0.00  0.00     0.126 C 
BRANCH  11  12
ATOM     12  C   UNL d   1     -42.025-121.951 -54.504  0.00  0.00     0.027 C 
BRANCH  12  13
ATOM     13  C   UNL d   1     -41.946-121.950 -55.319  0.00  0.00     0.002 C 
ATOM     14  C   UNL d   1     -42.616-121.951 -55.799  0.00  0.00     0.000 C 
ENDBRANCH  12  13
ENDBRANCH  11  12
ENDBRANCH  10  11
ENDBRANCH   8  10
ENDBRANCH   1   8
TORSDOF 5
ENDMDL
MODEL 3
REMARK VINA RESULT:      -4.4      1.563      4.485
REMARK  5 active torsions:
REMARK  status: ('A' for Active; 'I' for Inactive)
REMARK    1  A    between atoms: C_2  and  C_1 
REMARK    2  A    between atoms: O_6  and  C_1 
REMARK    3  A    between atoms: C_11  and  O_6 
REMARK    4  A    between atoms: C_12  and  C_11 
REMARK    5  A    between atoms: C_13  and  C_12 
ROOT
ATOM      1  C   UNL d   1     -41.869-122.620 -50.418  0.00  0.00     0.064 A 
ATOM      2  C   UNL d   1     -41.457-123.149 -49.935  0.00  0.00     0.009 A 
ATOM      3  C   UNL d   1     -42.620-122.364 -50.190  0.00  0.00     0.009 A 
ATOM      4  C   UNL d   1     -42.534-123.168 -49.001  0.00  0.00     0.196 A 
ATOM      5  C   UNL d   1     -41.783-123.425 -49.230  0.00  0.00     0.042 A 
ATOM      6  C   UNL d   1     -42.944-122.641 -49.483  0.00  0.00     0.042 A 
ATOM      7  O   UNL d   1     -42.889-123.431 -48.292  0.00  0.00    -0.287 OA
ENDROOT
BRANCH   1   8
ATOM      8  C   UNL d   1     -41.530-122.350 -51.125  0.00  0.00     0.300 C 
ATOM      9  O   UNL d   1     -41.144-121.622 -51.152  0.00  0.00    -0.259 OA
BRANCH   8  10
ATOM     10  O   UNL d   1     -41.586-122.822 -51.799  0.00  0.00    -0.271 OA
BRANCH  10  11
ATOM     11  C   UNL d   1     -41.285-122.533 -52.513  0.00  0.00     0.126 C 
BRANCH  11  12
ATOM     12  C   UNL d   1     -41.289-123.026 -53.177  0.00  0.00     0.027 C 
BRANCH  12  13
ATOM     13  C   UNL d   1     -41.290-122.697 -53.927  0.00  0.00     0.002 C 
ATOM     14  C   UNL d   1     -41.290-123.184 -54.592  0.00  0.00     0.000 C 
ENDBRANCH  12  13
ENDBRANCH  11  12
ENDBRANCH  10  11
ENDBRANCH   8  10
ENDBRANCH   1   8
TORSDOF 5
ENDMDL
MODEL 4
REMARK VINA RESULT:      -4.1      1.352      2.235
REMARK  5 active torsions:
REMARK  status: ('A' for Active; 'I' for Inactive)
REMARK    1  A    between atoms: C_2  and  C_1 
REMARK    2  A    between atoms: O_6  and  C_1 
REMARK    3  A    between atoms: C_11  and  O_6 
REMARK    4  A    between atoms: C_12  and  C_11 
REMARK    5  A    between atoms: C_13  and  C_12 
ROOT
ATOM      1  C   UNL d   1     -41.443-122.686 -52.102  0.00  0.00     0.064 A 
ATOM      2  C   UNL d   1     -41.220-123.436 -52.368  0.00  0.00     0.009 A 
ATOM      3  C   UNL d   1     -41.574-122.082 -52.651  0.00  0.00     0.009 A 
ATOM      4  C   UNL d   1     -41.256-122.988 -53.721  0.00  0.00     0.196 A 
ATOM      5  C   UNL d   1     -41.126-123.591 -53.173  0.00  0.00     0.042 A 
ATOM      6  C   UNL d   1     -41.478-122.242 -53.455  0.00  0.00     0.042 A 
ATOM      7  O   UNL d   1     -41.168-123.117 -54.542  0.00  0.00    -0.287 OA
ENDROOT
BRANCH   1   8
ATOM      8  C   UNL d   1     -41.535-122.542 -51.290  0.00  0.00     0.300 C 
ATOM      9  O   UNL d   1     -41.123-121.927 -50.925  0.00  0.00    -0.259 OA
BRANCH   8  10
ATOM     10  O   UNL d   1     -42.043-123.023 -50.855  0.00  0.00    -0.271 OA
BRANCH  10  11
ATOM     11  C   UNL d   1     -42.223-122.812 -50.076  0.00  0.00     0.126 C 
BRANCH  11  12
ATOM     12  C   UNL d   1     -42.748-123.283 -49.645  0.00  0.00     0.027 C 
BRANCH  12  13
ATOM     13  C   UNL d   1     -42.861-123.139 -48.846  0.00  0.00     0.002 C 
ATOM     14  C   UNL d   1     -42.993-123.767 -48.329  0.00  0.00     0.000 C 
ENDBRANCH  12  13
ENDBRANCH  11  12
ENDBRANCH  10  11
ENDBRANCH   8  10
ENDBRANCH   1   8
TORSDOF 5
ENDMDL
MODEL 5
REMARK VINA RESULT:      -2.9      0.721      1.198
REMARK  5 active torsions:
REMARK  status: ('A' for Active; 'I' for Inactive)
REMARK    1  A    between atoms: C_2  and  C_1 
REMARK    2  A    between atoms: O_6  and  C_1 
REMARK    3  A    between atoms: C_11  and  O_6 
REMARK    4  A    between atoms: C_12  and  C_11 
REMARK    5  A    between atoms: C_13  and  C_12 
ROOT
ATOM      1  C   UNL d   1     -41.612-122.244 -53.339  0.00  0.00     0.064 A 
ATOM      2  C   UNL d   1     -41.420-122.927 -53.764  0.00  0.00     0.009 A 
ATOM      3  C   UNL d   1     -41.998-121.623 -53.723  0.00  0.00     0.009 A 
ATOM      4  C   UNL d   1     -41.994-122.377 -54.948  0.00  0.00     0.196 A 
ATOM      5  C   UNL d   1     -41.608-122.998 -54.564  0.00  0.00     0.042 A 
ATOM      6  C   UNL d   1     -42.185-121.698 -54.523  0.00  0.00     0.042 A 
ATOM      7  O   UNL d   1     -42.197-122.422 -55.757  0.00  0.00    -0.287 OA
ENDROOT
BRANCH   1   8
ATOM      8  C   UNL d   1     -41.417-122.185 -52.535  0.00  0.00     0.300 C 
ATOM      9  O   UNL d   1     -41.170-121.465 -52.217  0.00  0.00    -0.259 OA
BRANCH   8  10
ATOM     10  O   UNL d   1     -41.475-122.856 -52.061  0.00  0.00    -0.271 OA
BRANCH  10  11
ATOM     11  C   UNL d   1     -41.581-122.760 -51.247  0.00  0.00     0.126 C 
BRANCH  11  12
ATOM     12  C   UNL d   1     -41.132-123.222 -50.728  0.00  0.00     0.027 C 
BRANCH  12  13
ATOM     13  C   UNL d   1     -41.500-123.612 -50.108  0.00  0.00     0.002 C 
ATOM     14  C   UNL d   1     -42.253-123.384 -49.866  0.00  0.00     0.000 C 
ENDBRANCH  12  13
ENDBRANCH  11  12
ENDBRANCH  10  11
ENDBRANCH   8  10
ENDBRANCH   1   8
TORSDOF 5
ENDMDL
