MODEL 1
REMARK VINA RESULT:      24.6      0.000      0.000
REMARK  7 active torsions:
REMARK  status: ('A' for Active; 'I' for Inactive)
REMARK    1  A    between atoms: C_2  and  P_1 
REMARK    2  A    between atoms: O_3  and  P_1 
REMARK    3  A    between atoms: C_4  and  P_1 
REMARK    4  A    between atoms: C_12  and  C_2 
REMARK    5  A    between atoms: C_13  and  O_3 
REMARK    6  A    between atoms: N_7  and  C_6 
REMARK    7  A    between atoms: C_15  and  C_13 
ROOT
ATOM      1  P   UNL d   1      46.359 -18.660  43.696  0.00  0.00     0.307 P 
ATOM      2  O   UNL d   1      46.365 -18.686  44.557  0.00  0.00    -0.277 OA
ENDROOT
BRANCH   1   3
ATOM      3  C   UNL d   1      46.381 -19.515  43.660  0.00  0.00     0.253 C 
ATOM      4  O   UNL d   1      46.644 -19.887  42.972  0.00  0.00    -0.281 OA
BRANCH   3   5
ATOM      5  C   UNL d   1      46.144 -19.968  44.307  0.00  0.00     0.044 C 
ATOM      6  C   UNL d   1      46.647 -20.056  44.954  0.00  0.00     0.004 C 
ATOM      7  C   UNL d   1      45.408 -20.329  44.307  0.00  0.00     0.004 C 
ENDBRANCH   3   5
ENDBRANCH   1   3
BRANCH   1   8
ATOM      8  O   UNL d   1      46.336 -17.812  43.754  0.00  0.00    -0.279 OA
BRANCH   8   9
ATOM      9  C   UNL d   1      46.212 -17.430  44.507  0.00  0.00     0.124 C 
BRANCH   9  10
ATOM     10  C   UNL d   1      45.947 -16.656  44.563  0.00  0.00     0.025 A 
ATOM     11  C   UNL d   1      46.481 -16.031  44.495  0.00  0.00     0.002 A 
ATOM     12  C   UNL d   1      46.219 -15.246  44.551  0.00  0.00     0.000 A 
ATOM     13  C   UNL d   1      45.419 -15.091  44.673  0.00  0.00     0.000 A 
ATOM     14  C   UNL d   1      44.883 -15.721  44.741  0.00  0.00     0.000 A 
ATOM     15  C   UNL d   1      45.147 -16.501  44.685  0.00  0.00     0.002 A 
ENDBRANCH   9  10
ENDBRANCH   8   9
ENDBRANCH   1   8
BRANCH   1  16
ATOM     16  C   UNL d   1      46.352 -18.599  42.843  0.00  0.00     0.061 A 
ATOM     17  C   UNL d   1      46.073 -19.236  42.402  0.00  0.00     0.007 A 
ATOM     18  C   UNL d   1      46.059 -19.195  41.583  0.00  0.00     0.018 A 
ATOM     19  C   UNL d   1      46.325 -18.514  41.201  0.00  0.00     0.064 A 
ATOM     20  C   UNL d   1      46.604 -17.878  41.641  0.00  0.00     0.018 A 
ATOM     21  C   UNL d   1      46.617 -17.921  42.465  0.00  0.00     0.007 A 
BRANCH  19  22
ATOM     22  N   UNL d   1      46.306 -18.482  40.342  0.00  0.00    -0.301 N 
ATOM     23  C   UNL d   1      46.260 -17.745  39.964  0.00  0.00     0.100 C 
ATOM     24  C   UNL d   1      46.334 -19.176  39.889  0.00  0.00     0.100 C 
ENDBRANCH  19  22
ENDBRANCH   1  16
TORSDOF 7
ENDMDL
