MODEL 1
REMARK VINA RESULT:      -1.1      0.000      0.000
REMARK  4 active torsions:
REMARK  status: ('A' for Active; 'I' for Inactive)
REMARK    1  A    between atoms: N_3  and  S_1 
REMARK    2  A    between atoms: C_6  and  S_1 
REMARK       I    between atoms: C_2  and  N_4 
REMARK       I    between atoms: N_5  and  C_2 
REMARK    3  A    between atoms: C_14  and  N_5 
REMARK    4  A    between atoms: C_15  and  N_5 
ROOT
ATOM      1  C   UNL d   1      32.941  17.765 -23.048  0.00  0.00     0.339 C 
ATOM      2  N   UNL d   1      32.977  19.990 -21.964  0.00  0.00    -0.226 N 
ATOM      3  N   UNL d   1      32.953  18.518 -22.681  0.00  0.00    -0.254 N 
ATOM      4  N   UNL d   1      32.679  17.672 -23.818  0.00  0.00    -0.260 N 
ATOM      5  C   UNL d   1      33.236  19.320 -21.539  0.00  0.00     0.111 A 
ATOM      6  C   UNL d   1      32.712  19.913 -22.739  0.00  0.00     0.111 A 
ATOM      7  O   UNL d   1      33.199  17.106 -22.618  0.00  0.00    -0.245 OA
ATOM      8  C   UNL d   1      32.700  19.179 -23.096  0.00  0.00     0.104 A 
ATOM      9  C   UNL d   1      33.223  18.586 -21.897  0.00  0.00     0.104 A 
ENDROOT
BRANCH   4  10
ATOM     10  C   UNL d   1      32.418  18.346 -24.249  0.00  0.00     0.068 A 
ATOM     11  C   UNL d   1      31.604  18.535 -24.251  0.00  0.00     0.018 A 
ATOM     12  C   UNL d   1      31.336  19.200 -24.675  0.00  0.00     0.002 A 
ATOM     13  C   UNL d   1      31.887  19.672 -25.095  0.00  0.00     0.000 A 
ATOM     14  C   UNL d   1      32.701  19.477 -25.089  0.00  0.00     0.002 A 
ATOM     15  C   UNL d   1      32.966  18.806 -24.660  0.00  0.00     0.018 A 
ENDBRANCH   4  10
BRANCH   4  16
ATOM     16  C   UNL d   1      32.672  16.937 -24.163  0.00  0.00     0.068 A 
ATOM     17  C   UNL d   1      33.241  16.744 -24.733  0.00  0.00     0.018 A 
ATOM     18  C   UNL d   1      33.236  16.005 -25.082  0.00  0.00     0.002 A 
ATOM     19  C   UNL d   1      32.666  15.453 -24.866  0.00  0.00     0.000 A 
ATOM     20  C   UNL d   1      32.101  15.647 -24.299  0.00  0.00     0.002 A 
ATOM     21  C   UNL d   1      32.108  16.386 -23.952  0.00  0.00     0.018 A 
ENDBRANCH   4  16
BRANCH   2  22
ATOM     22  S   UNL d   1      32.990  20.732 -21.603  0.00  0.00     0.271 S 
ATOM     23  O   UNL d   1      32.808  21.407 -22.039  0.00  0.00    -0.200 OA
ATOM     24  O   UNL d   1      33.183  20.799 -20.805  0.00  0.00    -0.200 OA
BRANCH  22  25
ATOM     25  C   UNL d   1      33.002  21.473 -21.241  0.00  0.00     0.104 A 
ATOM     26  C   UNL d   1      33.202  22.146 -21.686  0.00  0.00     0.013 A 
ATOM     27  C   UNL d   1      33.214  22.887 -21.325  0.00  0.00     0.001 A 
ATOM     28  C   UNL d   1      33.026  22.956 -20.519  0.00  0.00     0.000 A 
ATOM     29  C   UNL d   1      32.828  22.283 -20.083  0.00  0.00     0.001 A 
ATOM     30  C   UNL d   1      33.038  23.698 -20.157  0.00  0.00     0.000 C 
ATOM     31  C   UNL d   1      32.816  21.546 -20.442  0.00  0.00     0.013 A 
ENDBRANCH  22  25
ENDBRANCH   2  22
TORSDOF 4
ENDMDL
MODEL 2
REMARK VINA RESULT:      -0.4      1.602      5.922
REMARK  4 active torsions:
REMARK  status: ('A' for Active; 'I' for Inactive)
REMARK    1  A    between atoms: N_3  and  S_1 
REMARK    2  A    between atoms: C_6  and  S_1 
REMARK       I    between atoms: C_2  and  N_4 
REMARK       I    between atoms: N_5  and  C_2 
REMARK    3  A    between atoms: C_14  and  N_5 
REMARK    4  A    between atoms: C_15  and  N_5 
ROOT
ATOM      1  C   UNL d   1      32.804  21.679 -19.400  0.00  0.00     0.339 C 
ATOM      2  N   UNL d   1      32.968  20.423 -21.526  0.00  0.00    -0.226 N 
ATOM      3  N   UNL d   1      32.860  21.254 -20.119  0.00  0.00    -0.254 N 
ATOM      4  N   UNL d   1      32.664  22.486 -19.392  0.00  0.00    -0.260 N 
ATOM      5  C   UNL d   1      33.058  20.020 -20.801  0.00  0.00     0.111 A 
ATOM      6  C   UNL d   1      32.826  21.233 -21.536  0.00  0.00     0.111 A 
ATOM      7  O   UNL d   1      32.895  21.270 -18.685  0.00  0.00    -0.245 OA
ATOM      8  C   UNL d   1      32.772  21.648 -20.834  0.00  0.00     0.104 A 
ATOM      9  C   UNL d   1      33.004  20.434 -20.099  0.00  0.00     0.104 A 
ENDROOT
BRANCH   4  10
ATOM     10  C   UNL d   1      32.573  22.895 -20.122  0.00  0.00     0.068 A 
ATOM     11  C   UNL d   1      31.806  22.985 -20.443  0.00  0.00     0.018 A 
ATOM     12  C   UNL d   1      31.707  23.388 -21.165  0.00  0.00     0.002 A 
ATOM     13  C   UNL d   1      32.377  23.699 -21.560  0.00  0.00     0.000 A 
ATOM     14  C   UNL d   1      33.142  23.606 -21.234  0.00  0.00     0.002 A 
ATOM     15  C   UNL d   1      33.237  23.198 -20.506  0.00  0.00     0.018 A 
ENDBRANCH   4  10
BRANCH   4  16
ATOM     16  C   UNL d   1      32.612  22.887 -18.688  0.00  0.00     0.068 A 
ATOM     17  C   UNL d   1      31.916  23.292 -18.496  0.00  0.00     0.018 A 
ATOM     18  C   UNL d   1      31.861  23.697 -17.788  0.00  0.00     0.002 A 
ATOM     19  C   UNL d   1      32.498  23.701 -17.267  0.00  0.00     0.000 A 
ATOM     20  C   UNL d   1      33.189  23.297 -17.460  0.00  0.00     0.002 A 
ATOM     21  C   UNL d   1      33.240  22.894 -18.169  0.00  0.00     0.018 A 
ENDBRANCH   4  16
BRANCH   2  22
ATOM     22  S   UNL d   1      33.023  20.004 -22.234  0.00  0.00     0.271 S 
ATOM     23  O   UNL d   1      33.060  19.181 -22.226  0.00  0.00    -0.200 OA
ATOM     24  O   UNL d   1      33.040  20.407 -22.952  0.00  0.00    -0.200 OA
BRANCH  22  25
ATOM     25  C   UNL d   1      33.077  19.585 -22.943  0.00  0.00     0.104 A 
ATOM     26  C   UNL d   1      33.178  19.995 -23.659  0.00  0.00     0.013 A 
ATOM     27  C   UNL d   1      33.233  19.576 -24.367  0.00  0.00     0.001 A 
ATOM     28  C   UNL d   1      33.186  18.747 -24.360  0.00  0.00     0.000 A 
ATOM     29  C   UNL d   1      33.086  18.346 -23.646  0.00  0.00     0.001 A 
ATOM     30  C   UNL d   1      33.241  18.329 -25.069  0.00  0.00     0.000 C 
ATOM     31  C   UNL d   1      33.032  18.762 -22.941  0.00  0.00     0.013 A 
ENDBRANCH  22  25
ENDBRANCH   2  22
TORSDOF 4
ENDMDL
