MODEL 1
REMARK VINA RESULT:      61.5      0.000      0.000
REMARK  4 active torsions:
REMARK  status: ('A' for Active; 'I' for Inactive)
REMARK    1  A    between atoms: C_23  and  N_1 
REMARK       I    between atoms: N_7  and  C_10 
REMARK    2  A    between atoms: C_10  and  C_25 
REMARK    3  A    between atoms: C_26  and  C_23 
REMARK    4  A    between atoms: C_25  and  C_26 
ROOT
ATOM      1  N   UNL d   1     -50.145  27.191  33.359  0.00  0.00    -0.249 N 
ATOM      2  C   UNL d   1     -49.995  26.381  33.366  0.00  0.00     0.268 A 
ATOM      3  C   UNL d   1     -50.914  27.461  33.336  0.00  0.00     0.208 A 
ATOM      4  C   UNL d   1     -50.620  25.842  33.350  0.00  0.00     0.076 A 
ATOM      5  C   UNL d   1     -51.388  26.112  33.327  0.00  0.00     0.090 A 
ATOM      6  N   UNL d   1     -51.517  26.917  33.321  0.00  0.00    -0.218 NA
ATOM      7  C   UNL d   1     -50.471  25.027  33.357  0.00  0.00     0.033 A 
ATOM      8  C   UNL d   1     -51.994  25.561  33.312  0.00  0.00     0.046 A 
ATOM      9  C   UNL d   1     -51.101  24.476  33.340  0.00  0.00     0.119 A 
ATOM     10  C   UNL d   1     -51.865  24.759  33.318  0.00  0.00     0.121 A 
ATOM     11  S   UNL d   1     -51.044  28.280  33.330  0.00  0.00    -0.038 SA
ATOM     12  O   UNL d   1     -49.234  26.113  33.388  0.00  0.00    -0.267 OA
ATOM     13  O   UNL d   1     -51.135  23.655  33.342  0.00  0.00    -0.300 OA
ATOM     14  O   UNL d   1     -52.355  24.088  33.306  0.00  0.00    -0.299 OA
ATOM     15  C   UNL d   1     -51.913  23.406  33.321  0.00  0.00     0.304 A 
ENDROOT
BRANCH   1  16
ATOM     16  C   UNL d   1     -49.516  27.742  33.375  0.00  0.00     0.085 C 
BRANCH  16  17
ATOM     17  C   UNL d   1     -49.350  28.134  34.061  0.00  0.00     0.024 C 
BRANCH  17  18
ATOM     18  C   UNL d   1     -48.696  28.617  34.091  0.00  0.00     0.063 C 
BRANCH  18  19
ATOM     19  C   UNL d   1     -48.314  28.728  34.794  0.00  0.00     0.265 C 
ATOM     20  N   UNL d   1     -48.023  29.477  34.979  0.00  0.00    -0.272 N 
ATOM     21  C   UNL d   1     -48.129  30.102  34.437  0.00  0.00     0.083 A 
ATOM     22  C   UNL d   1     -47.632  29.603  35.692  0.00  0.00     0.083 A 
ATOM     23  C   UNL d   1     -47.838  30.855  34.618  0.00  0.00     0.018 A 
ATOM     24  C   UNL d   1     -47.942  31.472  34.084  0.00  0.00     0.002 A 
ATOM     25  C   UNL d   1     -47.441  30.989  35.340  0.00  0.00     0.003 A 
ATOM     26  C   UNL d   1     -47.650  32.226  34.266  0.00  0.00     0.000 A 
ATOM     27  C   UNL d   1     -47.255  32.359  34.984  0.00  0.00     0.000 A 
ATOM     28  C   UNL d   1     -47.152  31.737  35.519  0.00  0.00     0.000 A 
ATOM     29  C   UNL d   1     -47.339  30.359  35.875  0.00  0.00     0.019 A 
ATOM     30  O   UNL d   1     -48.229  28.077  35.309  0.00  0.00    -0.267 OA
ENDBRANCH  18  19
ENDBRANCH  17  18
ENDBRANCH  16  17
ENDBRANCH   1  16
TORSDOF 4
ENDMDL
