MODEL 1
REMARK VINA RESULT:      49.8      0.000      0.000
REMARK  4 active torsions:
REMARK  status: ('A' for Active; 'I' for Inactive)
REMARK    1  A    between atoms: C_5  and  C_1 
REMARK    2  A    between atoms: O_9  and  C_5 
REMARK    3  A    between atoms: C_18  and  O_9 
REMARK       I    between atoms: C_11  and  N_14 
REMARK    4  A    between atoms: N_14  and  C_20 
ROOT
ATOM      1  C   UNL d   1      14.340  13.143  -2.143  0.00  0.00     0.127 A 
ATOM      2  C   UNL d   1      14.108  12.365  -2.264  0.00  0.00     0.305 A 
ATOM      3  O   UNL d   1      13.663  12.175  -2.931  0.00  0.00    -0.272 OA
ATOM      4  C   UNL d   1      14.131  13.739  -2.683  0.00  0.00     0.013 A 
ATOM      5  C   UNL d   1      13.684  13.542  -3.350  0.00  0.00     0.024 A 
ATOM      6  C   UNL d   1      13.447  12.762  -3.479  0.00  0.00     0.110 A 
ATOM      7  C   UNL d   1      13.001  12.561  -4.143  0.00  0.00     0.058 A 
ATOM      8  C   UNL d   1      12.789  13.146  -4.685  0.00  0.00     0.015 A 
ATOM      9  C   UNL d   1      13.467  14.127  -3.899  0.00  0.00     0.009 A 
ATOM     10  O   UNL d   1      14.321  11.783  -1.722  0.00  0.00    -0.259 OA
ATOM     11  C   UNL d   1      13.023  13.932  -4.562  0.00  0.00     0.035 A 
ATOM     12 BR   UNL d   1      12.769  11.781  -4.265  0.00  0.00    -0.047 Br
ATOM     13 BR   UNL d   1      12.812  14.516  -5.102  0.00  0.00    -0.049 Br
ENDROOT
BRANCH   1  14
ATOM     14  C   UNL d   1      14.787  13.345  -1.479  0.00  0.00     0.305 C 
ATOM     15  O   UNL d   1      15.560  13.073  -1.415  0.00  0.00    -0.259 OA
BRANCH  14  16
ATOM     16  O   UNL d   1      14.466  13.817  -0.880  0.00  0.00    -0.273 OA
BRANCH  16  17
ATOM     17  C   UNL d   1      14.806  14.542  -0.696  0.00  0.00     0.103 A 
ATOM     18  C   UNL d   1      14.481  15.239  -0.990  0.00  0.00     0.026 A 
ATOM     19  C   UNL d   1      14.815  15.963  -0.810  0.00  0.00     0.021 A 
ATOM     20  C   UNL d   1      15.484  16.002  -0.329  0.00  0.00     0.085 A 
ATOM     21  C   UNL d   1      15.819  15.306  -0.027  0.00  0.00     0.021 A 
ATOM     22  C   UNL d   1      15.475  14.570  -0.214  0.00  0.00     0.026 A 
BRANCH  20  23
ATOM     23  N   UNL d   1      15.828  16.729  -0.142  0.00  0.00    -0.208 NA
ATOM     24  C   UNL d   1      15.706  17.378  -0.642  0.00  0.00     0.279 C 
ATOM     25  O   UNL d   1      15.242  17.300  -1.325  0.00  0.00    -0.265 OA
ATOM     26  C   UNL d   1      16.049  18.112  -0.460  0.00  0.00     0.068 C 
ENDBRANCH  20  23
ENDBRANCH  16  17
ENDBRANCH  14  16
ENDBRANCH   1  14
TORSDOF 4
ENDMDL
MODEL 2
REMARK VINA RESULT:      52.3      2.607      4.030
REMARK  4 active torsions:
REMARK  status: ('A' for Active; 'I' for Inactive)
REMARK    1  A    between atoms: C_5  and  C_1 
REMARK    2  A    between atoms: O_9  and  C_5 
REMARK    3  A    between atoms: C_18  and  O_9 
REMARK       I    between atoms: C_11  and  N_14 
REMARK    4  A    between atoms: N_14  and  C_20 
ROOT
ATOM      1  C   UNL d   1      13.722  12.922  -2.811  0.00  0.00     0.127 A 
ATOM      2  C   UNL d   1      13.400  12.269  -2.434  0.00  0.00     0.305 A 
ATOM      3  O   UNL d   1      13.608  12.109  -1.652  0.00  0.00    -0.272 OA
ATOM      4  C   UNL d   1      14.255  13.424  -2.416  0.00  0.00     0.013 A 
ATOM      5  C   UNL d   1      14.460  13.258  -1.632  0.00  0.00     0.024 A 
ATOM      6  C   UNL d   1      14.140  12.603  -1.245  0.00  0.00     0.110 A 
ATOM      7  C   UNL d   1      14.342  12.434  -0.464  0.00  0.00     0.058 A 
ATOM      8  C   UNL d   1      14.869  12.927  -0.064  0.00  0.00     0.015 A 
ATOM      9  C   UNL d   1      14.990  13.750  -1.224  0.00  0.00     0.009 A 
ATOM     10  O   UNL d   1      12.874  11.779  -2.835  0.00  0.00    -0.259 OA
ATOM     11  C   UNL d   1      15.195  13.587  -0.445  0.00  0.00     0.035 A 
ATOM     12 BR   UNL d   1      14.019  11.779  -0.085  0.00  0.00    -0.047 Br
ATOM     13 BR   UNL d   1      15.721  14.078  -0.046  0.00  0.00    -0.049 Br
ENDROOT
BRANCH   1  14
ATOM     14  C   UNL d   1      13.521  13.092  -3.594  0.00  0.00     0.305 C 
ATOM     15  O   UNL d   1      13.840  12.637  -4.199  0.00  0.00    -0.259 OA
BRANCH  14  16
ATOM     16  O   UNL d   1      13.004  13.712  -3.773  0.00  0.00    -0.273 OA
BRANCH  16  17
ATOM     17  C   UNL d   1      13.274  14.374  -4.177  0.00  0.00     0.103 A 
ATOM     18  C   UNL d   1      13.333  14.363  -4.998  0.00  0.00     0.026 A 
ATOM     19  C   UNL d   1      13.602  15.019  -5.406  0.00  0.00     0.021 A 
ATOM     20  C   UNL d   1      13.817  15.701  -4.995  0.00  0.00     0.085 A 
ATOM     21  C   UNL d   1      13.761  15.723  -4.168  0.00  0.00     0.021 A 
ATOM     22  C   UNL d   1      13.487  15.051  -3.757  0.00  0.00     0.026 A 
BRANCH  20  23
ATOM     23  N   UNL d   1      14.089  16.369  -5.398  0.00  0.00    -0.208 NA
ATOM     24  C   UNL d   1      13.611  16.717  -5.978  0.00  0.00     0.279 C 
ATOM     25  O   UNL d   1      12.866  16.400  -6.154  0.00  0.00    -0.265 OA
ATOM     26  C   UNL d   1      13.878  17.388  -6.387  0.00  0.00     0.068 C 
ENDBRANCH  20  23
ENDBRANCH  16  17
ENDBRANCH  14  16
ENDBRANCH   1  14
TORSDOF 4
ENDMDL
