MODEL 1
REMARK VINA RESULT:      -4.0      0.000      0.000
REMARK  6 active torsions:
REMARK  status: ('A' for Active; 'I' for Inactive)
REMARK    1  A    between atoms: C_2  and  N_10 
REMARK    2  A    between atoms: N_8  and  C_2 
REMARK    3  A    between atoms: C_4  and  N_8 
REMARK    4  A    between atoms: N_10  and  C_16 
REMARK    5  A    between atoms: C_22  and  C_13 
REMARK    6  A    between atoms: C_16  and  C_15 
ROOT
ATOM      1  C   UNL d   1     -41.686-122.750 -50.787  0.00  0.00     0.221 C 
ATOM      2  S   UNL d   1     -41.180-122.251 -50.368  0.00  0.00    -0.037 SA
ENDROOT
BRANCH   1   3
ATOM      3  N   UNL d   1     -41.791-122.643 -51.600  0.00  0.00    -0.216 NA
BRANCH   3   4
ATOM      4  C   UNL d   1     -41.165-122.785 -52.126  0.00  0.00     0.101 C 
BRANCH   4   5
ATOM      5  C   UNL d   1     -41.318-122.854 -52.936  0.00  0.00     0.019 A 
ATOM      6  C   UNL d   1     -41.143-123.555 -53.337  0.00  0.00     0.003 A 
ATOM      7  C   UNL d   1     -41.299-123.616 -54.146  0.00  0.00     0.019 A 
ATOM      8  C   UNL d   1     -41.627-122.981 -54.549  0.00  0.00     0.081 A 
ATOM      9  C   UNL d   1     -41.802-122.281 -54.148  0.00  0.00     0.019 A 
ATOM     10  N   UNL d   1     -41.840-122.880 -55.341  0.00  0.00    -0.246 NA
ATOM     11  C   UNL d   1     -41.649-122.217 -53.345  0.00  0.00     0.003 A 
ATOM     12  C   UNL d   1     -42.122-121.752 -54.695  0.00  0.00     0.021 A 
ATOM     13  C   UNL d   1     -42.146-122.115 -55.421  0.00  0.00     0.082 A 
ATOM     14  C   UNL d   1     -42.429-121.772 -56.117  0.00  0.00     0.021 C 
ENDBRANCH   4   5
ENDBRANCH   3   4
ENDBRANCH   1   3
BRANCH   1  15
ATOM     15  N   UNL d   1     -42.085-123.355 -50.395  0.00  0.00    -0.217 NA
BRANCH  15  16
ATOM     16  C   UNL d   1     -42.342-123.243 -49.621  0.00  0.00     0.084 A 
ATOM     17  C   UNL d   1     -41.863-123.473 -48.990  0.00  0.00     0.018 A 
ATOM     18  C   UNL d   1     -42.120-123.362 -48.215  0.00  0.00     0.002 A 
ATOM     19  C   UNL d   1     -41.123-123.817 -49.132  0.00  0.00     0.002 C 
ATOM     20  C   UNL d   1     -42.861-123.017 -48.067  0.00  0.00     0.000 A 
ATOM     21  C   UNL d   1     -43.340-122.787 -48.698  0.00  0.00     0.002 A 
ATOM     22  C   UNL d   1     -43.077-122.901 -49.478  0.00  0.00     0.018 A 
BRANCH  22  23
ATOM     23  C   UNL d   1     -43.556-122.671 -50.109  0.00  0.00     0.002 C 
ATOM     24  C   UNL d   1     -44.305-122.375 -49.973  0.00  0.00     0.000 C 
ENDBRANCH  22  23
ENDBRANCH  15  16
ENDBRANCH   1  15
TORSDOF 6
ENDMDL
MODEL 2
REMARK VINA RESULT:      -3.3      1.068      5.210
REMARK  6 active torsions:
REMARK  status: ('A' for Active; 'I' for Inactive)
REMARK    1  A    between atoms: C_2  and  N_10 
REMARK    2  A    between atoms: N_8  and  C_2 
REMARK    3  A    between atoms: C_4  and  N_8 
REMARK    4  A    between atoms: N_10  and  C_16 
REMARK    5  A    between atoms: C_22  and  C_13 
REMARK    6  A    between atoms: C_16  and  C_15 
ROOT
ATOM      1  C   UNL d   1     -41.666-122.299 -52.802  0.00  0.00     0.221 C 
ATOM      2  S   UNL d   1     -41.218-121.620 -52.941  0.00  0.00    -0.037 SA
ENDROOT
BRANCH   1   3
ATOM      3  N   UNL d   1     -41.605-122.691 -52.077  0.00  0.00    -0.216 NA
BRANCH   3   4
ATOM      4  C   UNL d   1     -41.750-122.286 -51.367  0.00  0.00     0.101 C 
BRANCH   4   5
ATOM      5  C   UNL d   1     -41.715-122.694 -50.648  0.00  0.00     0.019 A 
ATOM      6  C   UNL d   1     -41.199-123.331 -50.552  0.00  0.00     0.003 A 
ATOM      7  C   UNL d   1     -41.169-123.732 -49.830  0.00  0.00     0.019 A 
ATOM      8  C   UNL d   1     -41.653-123.497 -49.211  0.00  0.00     0.081 A 
ATOM      9  C   UNL d   1     -42.169-122.860 -49.307  0.00  0.00     0.019 A 
ATOM     10  N   UNL d   1     -41.745-123.785 -48.441  0.00  0.00    -0.246 NA
ATOM     11  C   UNL d   1     -42.201-122.459 -50.022  0.00  0.00     0.003 A 
ATOM     12  C   UNL d   1     -42.577-122.758 -48.596  0.00  0.00     0.021 A 
ATOM     13  C   UNL d   1     -42.320-123.320 -48.069  0.00  0.00     0.082 A 
ATOM     14  C   UNL d   1     -42.592-123.406 -47.294  0.00  0.00     0.021 C 
ENDBRANCH   4   5
ENDBRANCH   3   4
ENDBRANCH   1   3
BRANCH   1  15
ATOM     15  N   UNL d   1     -42.174-122.585 -53.384  0.00  0.00    -0.217 NA
BRANCH  15  16
ATOM     16  C   UNL d   1     -41.907-122.664 -54.158  0.00  0.00     0.084 A 
ATOM     17  C   UNL d   1     -41.391-123.277 -54.356  0.00  0.00     0.018 A 
ATOM     18  C   UNL d   1     -41.123-123.357 -55.132  0.00  0.00     0.002 A 
ATOM     19  C   UNL d   1     -41.140-123.814 -53.778  0.00  0.00     0.002 C 
ATOM     20  C   UNL d   1     -41.372-122.821 -55.716  0.00  0.00     0.000 A 
ATOM     21  C   UNL d   1     -41.887-122.208 -55.518  0.00  0.00     0.002 A 
ATOM     22  C   UNL d   1     -42.155-122.131 -54.735  0.00  0.00     0.018 A 
BRANCH  22  23
ATOM     23  C   UNL d   1     -42.670-121.519 -54.537  0.00  0.00     0.002 C 
ATOM     24  C   UNL d   1     -43.141-121.174 -55.108  0.00  0.00     0.000 C 
ENDBRANCH  22  23
ENDBRANCH  15  16
ENDBRANCH   1  15
TORSDOF 6
ENDMDL
