MODEL 1
REMARK VINA RESULT:      96.1      0.000      0.000
REMARK  9 active torsions:
REMARK  status: ('A' for Active; 'I' for Inactive)
REMARK    1  A    between atoms: C_22  and  N_1 
REMARK    2  A    between atoms: S_10  and  C_2 
REMARK    3  A    between atoms: N_8  and  C_9 
REMARK    4  A    between atoms: C_24  and  S_10 
REMARK    5  A    between atoms: C_11  and  C_24 
REMARK       I    between atoms: N_15  and  C_11 
REMARK    6  A    between atoms: C_13  and  C_25 
REMARK    7  A    between atoms: C_25  and  N_15 
REMARK    8  A    between atoms: C_30  and  C_22 
REMARK    9  A    between atoms: C_31  and  C_30 
ROOT
ATOM      1  N   UNL d   1      61.027  48.002  51.468  0.00  0.00    -0.253 N 
ATOM      2  C   UNL d   1      60.980  48.235  50.678  0.00  0.00     0.182 A 
ATOM      3  C   UNL d   1      61.184  47.208  51.654  0.00  0.00     0.268 A 
ATOM      4  C   UNL d   1      61.293  46.655  51.054  0.00  0.00     0.076 A 
ATOM      5  N   UNL d   1      61.090  47.675  50.074  0.00  0.00    -0.222 NA
ATOM      6  C   UNL d   1      61.246  46.888  50.264  0.00  0.00     0.088 A 
ATOM      7  C   UNL d   1      61.449  45.870  51.243  0.00  0.00     0.024 A 
ATOM      8  C   UNL d   1      61.558  45.316  50.643  0.00  0.00     0.065 A 
ATOM      9  O   UNL d   1      61.232  46.975  52.444  0.00  0.00    -0.267 OA
ATOM     10  C   UNL d   1      61.355  46.336  49.663  0.00  0.00     0.021 A 
ATOM     11  C   UNL d   1      61.511  45.550  49.853  0.00  0.00     0.019 A 
ENDROOT
BRANCH   2  12
ATOM     12  S   UNL d   1      60.823  49.026  50.485  0.00  0.00    -0.044 SA
BRANCH  12  13
ATOM     13  C   UNL d   1      60.182  49.216  49.986  0.00  0.00     0.101 C 
BRANCH  13  14
ATOM     14  C   UNL d   1      59.463  49.462  50.316  0.00  0.00     0.286 C 
ATOM     15  N   UNL d   1      58.776  49.460  49.851  0.00  0.00    -0.204 NA
ATOM     16  O   UNL d   1      59.438  49.707  51.104  0.00  0.00    -0.265 OA
BRANCH  15  17
ATOM     17  C   UNL d   1      58.054  49.708  50.185  0.00  0.00     0.127 C 
BRANCH  17  18
ATOM     18  C   UNL d   1      57.351  49.621  49.750  0.00  0.00     0.119 A 
ATOM     19  O   UNL d   1      57.199  49.623  48.945  0.00  0.00    -0.304 OA
ATOM     20  C   UNL d   1      56.388  49.512  48.836  0.00  0.00     0.123 A 
ATOM     21  C   UNL d   1      56.033  49.441  49.574  0.00  0.00     0.029 A 
ATOM     22  C   UNL d   1      56.633  49.509  50.142  0.00  0.00     0.028 A 
ENDBRANCH  17  18
ENDBRANCH  15  17
ENDBRANCH  13  14
ENDBRANCH  12  13
ENDBRANCH   2  12
BRANCH   1  23
ATOM     23  C   UNL d   1      60.918  48.558  52.069  0.00  0.00     0.085 C 
BRANCH  23  24
ATOM     24  C   UNL d   1      61.527  48.712  52.602  0.00  0.00     0.019 C 
BRANCH  24  25
ATOM     25  C   UNL d   1      61.955  49.423  52.548  0.00  0.00     0.002 C 
ATOM     26  C   UNL d   1      62.382  49.703  53.210  0.00  0.00     0.000 C 
ENDBRANCH  24  25
ENDBRANCH  23  24
ENDBRANCH   1  23
BRANCH   8  27
ATOM     27  N   UNL d   1      61.714  44.531  50.832  0.00  0.00    -0.300 N 
ATOM     28  C   UNL d   1      62.478  44.217  50.717  0.00  0.00     0.107 A 
ATOM     29  C   UNL d   1      62.633  43.431  50.907  0.00  0.00     0.142 A 
ATOM     30  O   UNL d   1      62.030  42.944  51.213  0.00  0.00    -0.300 OA
ATOM     31  C   UNL d   1      61.266  43.258  51.328  0.00  0.00     0.142 A 
ATOM     32  C   UNL d   1      61.113  44.051  51.136  0.00  0.00     0.107 A 
ENDBRANCH   8  27
TORSDOF 9
ENDMDL
