MODEL 1
REMARK VINA RESULT:      -5.8      0.000      0.000
REMARK  2 active torsions:
REMARK  status: ('A' for Active; 'I' for Inactive)
REMARK    1  A    between atoms: C_3  and  C_1 
REMARK       I    between atoms: N_7  and  C_3 
REMARK    2  A    between atoms: C_11  and  N_7 
ROOT
ATOM      1  C   UNL d   1     -41.802-122.368 -51.520  0.00  0.00     0.121 A 
ATOM      2  C   UNL d   1     -42.345-121.902 -51.106  0.00  0.00     0.305 A 
ATOM      3  C   UNL d   1     -41.398-122.961 -51.122  0.00  0.00     0.012 A 
ATOM      4  O   UNL d   1     -42.487-122.025 -50.304  0.00  0.00    -0.273 OA
ATOM      5  C   UNL d   1     -41.529-123.096 -50.319  0.00  0.00     0.023 A 
ATOM      6  C   UNL d   1     -42.077-122.623 -49.911  0.00  0.00     0.103 A 
ATOM      7  O   UNL d   1     -42.760-121.295 -51.508  0.00  0.00    -0.259 OA
ATOM      8  C   UNL d   1     -41.124-123.691 -49.918  0.00  0.00     0.002 A 
ATOM      9  C   UNL d   1     -42.213-122.753 -49.103  0.00  0.00     0.025 A 
ATOM     10  C   UNL d   1     -41.258-123.817 -49.130  0.00  0.00     0.000 A 
ATOM     11  C   UNL d   1     -41.806-123.344 -48.723  0.00  0.00     0.002 A 
ENDROOT
BRANCH   1  12
ATOM     12  C   UNL d   1     -41.665-122.239 -52.327  0.00  0.00     0.284 C 
ATOM     13  N   UNL d   1     -42.046-122.721 -52.884  0.00  0.00    -0.208 NA
ATOM     14  O   UNL d   1     -41.159-121.640 -52.558  0.00  0.00    -0.265 OA
BRANCH  13  15
ATOM     15  C   UNL d   1     -41.903-122.583 -53.690  0.00  0.00     0.085 A 
ATOM     16  C   UNL d   1     -42.381-122.065 -54.128  0.00  0.00     0.021 A 
ATOM     17  C   UNL d   1     -42.229-121.937 -54.921  0.00  0.00     0.031 A 
ATOM     18  C   UNL d   1     -41.606-122.319 -55.292  0.00  0.00     0.140 A 
ATOM     19  C   UNL d   1     -41.123-122.840 -54.860  0.00  0.00     0.031 A 
ATOM     20  F   UNL d   1     -41.456-122.192 -56.081  0.00  0.00    -0.204 F 
ATOM     21  C   UNL d   1     -41.274-122.971 -54.055  0.00  0.00     0.021 A 
ENDBRANCH  13  15
ENDBRANCH   1  12
TORSDOF 2
ENDMDL
MODEL 2
REMARK VINA RESULT:      -4.2      2.231      4.547
REMARK  2 active torsions:
REMARK  status: ('A' for Active; 'I' for Inactive)
REMARK    1  A    between atoms: C_3  and  C_1 
REMARK       I    between atoms: N_7  and  C_3 
REMARK    2  A    between atoms: C_11  and  N_7 
ROOT
ATOM      1  C   UNL d   1     -41.602-122.800 -51.630  0.00  0.00     0.121 A 
ATOM      2  C   UNL d   1     -41.494-122.010 -51.849  0.00  0.00     0.305 A 
ATOM      3  C   UNL d   1     -41.572-123.384 -52.205  0.00  0.00     0.012 A 
ATOM      4  O   UNL d   1     -41.357-121.802 -52.635  0.00  0.00    -0.273 OA
ATOM      5  C   UNL d   1     -41.436-123.191 -52.995  0.00  0.00     0.023 A 
ATOM      6  C   UNL d   1     -41.328-122.395 -53.207  0.00  0.00     0.103 A 
ATOM      7  O   UNL d   1     -41.524-121.410 -51.264  0.00  0.00    -0.259 OA
ATOM      8  C   UNL d   1     -41.405-123.776 -53.575  0.00  0.00     0.002 A 
ATOM      9  C   UNL d   1     -41.191-122.194 -54.000  0.00  0.00     0.025 A 
ATOM     10  C   UNL d   1     -41.272-123.579 -54.348  0.00  0.00     0.000 A 
ATOM     11  C   UNL d   1     -41.164-122.783 -54.559  0.00  0.00     0.002 A 
ENDROOT
BRANCH   1  12
ATOM     12  C   UNL d   1     -41.739-123.001 -50.838  0.00  0.00     0.284 C 
ATOM     13  N   UNL d   1     -42.502-122.912 -50.524  0.00  0.00    -0.208 NA
ATOM     14  O   UNL d   1     -41.122-123.282 -50.381  0.00  0.00    -0.265 OA
BRANCH  13  15
ATOM     15  C   UNL d   1     -42.629-123.116 -49.729  0.00  0.00     0.085 A 
ATOM     16  C   UNL d   1     -43.252-123.619 -49.510  0.00  0.00     0.021 A 
ATOM     17  C   UNL d   1     -43.366-123.813 -48.724  0.00  0.00     0.031 A 
ATOM     18  C   UNL d   1     -42.869-123.513 -48.145  0.00  0.00     0.140 A 
ATOM     19  C   UNL d   1     -42.243-123.009 -48.357  0.00  0.00     0.031 A 
ATOM     20  F   UNL d   1     -42.984-123.706 -47.363  0.00  0.00    -0.204 F 
ATOM     21  C   UNL d   1     -42.124-122.810 -49.154  0.00  0.00     0.021 A 
ENDBRANCH  13  15
ENDBRANCH   1  12
TORSDOF 2
ENDMDL
