MODEL 1
REMARK VINA RESULT:      27.5      0.000      0.000
REMARK  4 active torsions:
REMARK  status: ('A' for Active; 'I' for Inactive)
REMARK       I    between atoms: C_3  and  N_1 
REMARK    1  A    between atoms: C_7  and  C_3 
REMARK    2  A    between atoms: C_9  and  C_4 
REMARK    3  A    between atoms: C_12  and  C_5 
REMARK    4  A    between atoms: O_20  and  C_17 
ROOT
ATOM      1  N   UNL d   1     -41.888-122.076 -51.558  0.00  0.00    -0.194 N 
ATOM      2  N   UNL d   1     -41.945-122.060 -50.742  0.00  0.00    -0.163 NA
ATOM      3  C   UNL d   1     -41.802-121.403 -52.065  0.00  0.00     0.286 C 
ATOM      4  C   UNL d   1     -41.929-122.864 -51.795  0.00  0.00     0.088 A 
ATOM      5  C   UNL d   1     -42.021-122.826 -50.465  0.00  0.00     0.103 A 
ATOM      6  C   UNL d   1     -42.010-123.322 -51.121  0.00  0.00     0.040 A 
ATOM      7  O   UNL d   1     -41.772-120.656 -51.714  0.00  0.00    -0.265 OA
ENDROOT
BRANCH   4   8
ATOM      8  C   UNL d   1     -41.887-123.070 -52.603  0.00  0.00     0.018 A 
ATOM      9  C   UNL d   1     -42.550-122.967 -53.108  0.00  0.00     0.004 A 
ATOM     10  C   UNL d   1     -42.491-123.176 -53.904  0.00  0.00     0.024 A 
ATOM     11  C   UNL d   1     -41.786-123.487 -54.219  0.00  0.00     0.094 A 
ATOM     12  C   UNL d   1     -41.123-123.590 -53.714  0.00  0.00     0.024 A 
ATOM     13  C   UNL d   1     -41.182-123.379 -52.910  0.00  0.00     0.004 A 
BRANCH  11  14
ATOM     14  O   UNL d   1     -41.742-123.693 -55.027  0.00  0.00    -0.328 OA
ATOM     15  C   UNL d   1     -42.453-123.816 -55.459  0.00  0.00     0.181 C 
ENDBRANCH  11  14
ENDBRANCH   4   8
BRANCH   3  16
ATOM     16  C   UNL d   1     -41.751-121.484 -52.875  0.00  0.00     0.087 A 
ATOM     17  S   UNL d   1     -41.122-121.669 -53.396  0.00  0.00    -0.082 SA
ATOM     18  C   UNL d   1     -41.416-121.669 -54.155  0.00  0.00     0.036 A 
ATOM     19  C   UNL d   1     -42.214-121.489 -54.133  0.00  0.00     0.008 A 
ATOM     20  C   UNL d   1     -42.423-121.375 -53.355  0.00  0.00     0.012 A 
ENDBRANCH   3  16
BRANCH   5  21
ATOM     21  C   UNL d   1     -42.097-123.131 -49.704  0.00  0.00     0.019 A 
ATOM     22  C   UNL d   1     -41.436-123.467 -49.334  0.00  0.00     0.002 A 
ATOM     23  C   UNL d   1     -41.517-123.770 -48.576  0.00  0.00     0.000 A 
ATOM     24  C   UNL d   1     -42.238-123.744 -48.183  0.00  0.00     0.000 A 
ATOM     25  C   UNL d   1     -42.900-123.408 -48.553  0.00  0.00     0.000 A 
ATOM     26  C   UNL d   1     -42.819-123.104 -49.315  0.00  0.00     0.002 A 
ENDBRANCH   5  21
TORSDOF 4
ENDMDL
