MODEL 1
REMARK VINA RESULT:      -1.9      0.000      0.000
REMARK  5 active torsions:
REMARK  status: ('A' for Active; 'I' for Inactive)
REMARK    1  A    between atoms: C_2  and  C_1 
REMARK    2  A    between atoms: C_7  and  C_2 
REMARK    3  A    between atoms: C_9  and  N_3 
REMARK    4  A    between atoms: N_5  and  C_7 
REMARK    5  A    between atoms: O_24  and  C_20 
ROOT
ATOM      1  N   UNL d   1      55.961   0.130  33.063  0.00  0.00    -0.301 N 
ATOM      2  N   UNL d   1      56.789  -0.147  31.654  0.00  0.00    -0.297 N 
ATOM      3  C   UNL d   1      55.933   0.681  32.452  0.00  0.00     0.100 A 
ATOM      4  C   UNL d   1      56.402  -0.561  32.970  0.00  0.00     0.100 A 
ATOM      5  C   UNL d   1      56.349   0.545  31.742  0.00  0.00     0.100 A 
ATOM      6  C   UNL d   1      56.813  -0.693  32.265  0.00  0.00     0.100 A 
ENDROOT
BRANCH   2   7
ATOM      7  C   UNL d   1      57.198  -0.281  30.953  0.00  0.00     0.123 C 
BRANCH   7   8
ATOM      8  C   UNL d   1      57.980  -0.033  30.872  0.00  0.00     0.216 C 
ATOM      9  O   UNL d   1      58.290   0.531  31.389  0.00  0.00    -0.285 OA
BRANCH   8  10
ATOM     10  C   UNL d   1      58.458  -0.349  30.271  0.00  0.00     0.080 A 
ATOM     11  C   UNL d   1      59.173  -0.007  30.093  0.00  0.00     0.202 A 
ATOM     12  C   UNL d   1      59.646  -0.317  29.501  0.00  0.00     0.084 A 
ATOM     13  O   UNL d   1      59.423   0.658  30.514  0.00  0.00    -0.286 OA
ATOM     14  C   UNL d   1      59.398  -0.987  29.074  0.00  0.00     0.199 A 
ATOM     15  C   UNL d   1      58.667  -1.336  29.257  0.00  0.00     0.042 A 
ATOM     16  O   UNL d   1      59.871  -1.297  28.482  0.00  0.00    -0.286 OA
ATOM     17  C   UNL d   1      58.195  -1.020  29.853  0.00  0.00     0.010 A 
ENDBRANCH   8  10
ENDBRANCH   7   8
ENDBRANCH   2   7
BRANCH   1  18
ATOM     18  C   UNL d   1      55.551   0.266  33.760  0.00  0.00     0.064 A 
ATOM     19  C   UNL d   1      55.926   0.163  34.479  0.00  0.00     0.020 A 
ATOM     20  C   UNL d   1      55.510   0.301  35.184  0.00  0.00     0.026 A 
ATOM     21  C   UNL d   1      54.721   0.543  35.156  0.00  0.00     0.094 A 
ATOM     22  C   UNL d   1      54.346   0.646  34.420  0.00  0.00     0.026 A 
ATOM     23  C   UNL d   1      54.763   0.508  33.728  0.00  0.00     0.020 A 
BRANCH  21  24
ATOM     24  O   UNL d   1      54.310   0.680  35.861  0.00  0.00    -0.328 OA
ATOM     25  C   UNL d   1      53.507   0.495  35.902  0.00  0.00     0.181 C 
ENDBRANCH  21  24
ENDBRANCH   1  18
TORSDOF 5
ENDMDL
MODEL 2
REMARK VINA RESULT:      -0.5      1.866      5.919
REMARK  5 active torsions:
REMARK  status: ('A' for Active; 'I' for Inactive)
REMARK    1  A    between atoms: C_2  and  C_1 
REMARK    2  A    between atoms: C_7  and  C_2 
REMARK    3  A    between atoms: C_9  and  N_3 
REMARK    4  A    between atoms: N_5  and  C_7 
REMARK    5  A    between atoms: O_24  and  C_20 
ROOT
ATOM      1  N   UNL d   1      58.745  -1.979  29.837  0.00  0.00    -0.301 N 
ATOM      2  N   UNL d   1      57.827  -0.787  30.534  0.00  0.00    -0.297 N 
ATOM      3  C   UNL d   1      58.742  -1.220  29.519  0.00  0.00     0.100 A 
ATOM      4  C   UNL d   1      58.289  -2.144  30.505  0.00  0.00     0.100 A 
ATOM      5  C   UNL d   1      58.282  -0.618  29.867  0.00  0.00     0.100 A 
ATOM      6  C   UNL d   1      57.834  -1.545  30.847  0.00  0.00     0.100 A 
ENDROOT
BRANCH   2   7
ATOM      7  C   UNL d   1      57.373  -0.193  30.877  0.00  0.00     0.123 C 
BRANCH   7   8
ATOM      8  C   UNL d   1      57.565   0.101  31.622  0.00  0.00     0.216 C 
ATOM      9  O   UNL d   1      58.322   0.393  31.770  0.00  0.00    -0.285 OA
BRANCH   8  10
ATOM     10  C   UNL d   1      56.995   0.105  32.228  0.00  0.00     0.080 A 
ATOM     11  C   UNL d   1      57.183   0.392  32.964  0.00  0.00     0.202 A 
ATOM     12  C   UNL d   1      56.623   0.397  33.562  0.00  0.00     0.084 A 
ATOM     13  O   UNL d   1      57.942   0.681  33.108  0.00  0.00    -0.286 OA
ATOM     14  C   UNL d   1      55.855   0.106  33.421  0.00  0.00     0.199 A 
ATOM     15  C   UNL d   1      55.666  -0.187  32.668  0.00  0.00     0.042 A 
ATOM     16  O   UNL d   1      55.297   0.111  34.020  0.00  0.00    -0.286 OA
ATOM     17  C   UNL d   1      56.232  -0.190  32.070  0.00  0.00     0.010 A 
ENDBRANCH   8  10
ENDBRANCH   7   8
ENDBRANCH   2   7
BRANCH   1  18
ATOM     18  C   UNL d   1      59.199  -2.569  29.493  0.00  0.00     0.064 A 
ATOM     19  C   UNL d   1      58.836  -3.165  29.068  0.00  0.00     0.020 A 
ATOM     20  C   UNL d   1      59.297  -3.762  28.719  0.00  0.00     0.026 A 
ATOM     21  C   UNL d   1      60.118  -3.750  28.804  0.00  0.00     0.094 A 
ATOM     22  C   UNL d   1      60.480  -3.139  29.239  0.00  0.00     0.026 A 
ATOM     23  C   UNL d   1      60.019  -2.554  29.580  0.00  0.00     0.020 A 
BRANCH  21  24
ATOM     24  O   UNL d   1      60.574  -4.346  28.456  0.00  0.00    -0.328 OA
ATOM     25  C   UNL d   1      60.819  -4.987  28.913  0.00  0.00     0.181 C 
ENDBRANCH  21  24
ENDBRANCH   1  18
TORSDOF 5
ENDMDL
