MODEL 1
REMARK VINA RESULT:      -8.9      0.000      0.000
REMARK  2 active torsions:
REMARK  status: ('A' for Active; 'I' for Inactive)
REMARK    1  A    between atoms: N_2  and  S_1 
REMARK    2  A    between atoms: C_4  and  S_1 
ROOT
ATOM      1  N   UNL d   1     -47.398  13.524  22.722  0.00  0.00    -0.231 N 
ATOM      2  C   UNL d   1     -47.278  12.769  23.047  0.00  0.00     0.075 A 
ATOM      3  C   UNL d   1     -46.513  12.469  23.164  0.00  0.00     0.017 A 
ATOM      4  C   UNL d   1     -46.730  13.984  22.512  0.00  0.00     0.092 A 
ATOM      5  C   UNL d   1     -47.946  12.309  23.257  0.00  0.00     0.018 A 
ATOM      6  C   UNL d   1     -45.965  13.684  22.630  0.00  0.00     0.020 A 
ATOM      7  C   UNL d   1     -45.867  12.924  22.957  0.00  0.00     0.003 A 
ATOM      8  C   UNL d   1     -46.413  11.713  23.490  0.00  0.00     0.002 A 
ATOM      9  C   UNL d   1     -47.835  11.558  23.580  0.00  0.00     0.002 A 
ATOM     10  C   UNL d   1     -47.069  11.257  23.698  0.00  0.00     0.000 A 
ENDROOT
BRANCH   1  11
ATOM     11  S   UNL d   1     -48.168  13.817  22.608  0.00  0.00     0.271 S 
ATOM     12  O   UNL d   1     -48.218  14.073  23.338  0.00  0.00    -0.200 OA
ATOM     13  O   UNL d   1     -48.158  13.560  21.818  0.00  0.00    -0.200 OA
BRANCH  11  14
ATOM     14  C   UNL d   1     -48.884  14.091  22.506  0.00  0.00     0.104 A 
ATOM     15  C   UNL d   1     -49.342  13.787  21.958  0.00  0.00     0.015 A 
ATOM     16  C   UNL d   1     -50.058  14.064  21.859  0.00  0.00     0.022 A 
ATOM     17  C   UNL d   1     -50.318  14.643  22.304  0.00  0.00     0.103 A 
ATOM     18  C   UNL d   1     -49.851  14.943  22.853  0.00  0.00     0.022 A 
ATOM     19  N   UNL d   1     -51.059  14.933  22.205  0.00  0.00    -0.148 N 
ATOM     20  C   UNL d   1     -49.143  14.672  22.954  0.00  0.00     0.015 A 
ENDBRANCH  11  14
ENDBRANCH   1  11
TORSDOF 2
ENDMDL
MODEL 2
REMARK VINA RESULT:      -8.7      1.385      3.354
REMARK  2 active torsions:
REMARK  status: ('A' for Active; 'I' for Inactive)
REMARK    1  A    between atoms: N_2  and  S_1 
REMARK    2  A    between atoms: C_4  and  S_1 
ROOT
ATOM      1  N   UNL d   1     -49.371  13.507  22.380  0.00  0.00    -0.231 N 
ATOM      2  C   UNL d   1     -49.791  12.932  22.807  0.00  0.00     0.075 A 
ATOM      3  C   UNL d   1     -50.620  12.897  22.780  0.00  0.00     0.017 A 
ATOM      4  C   UNL d   1     -49.800  14.058  21.917  0.00  0.00     0.092 A 
ATOM      5  C   UNL d   1     -49.362  12.380  23.270  0.00  0.00     0.018 A 
ATOM      6  C   UNL d   1     -50.629  14.024  21.890  0.00  0.00     0.020 A 
ATOM      7  C   UNL d   1     -51.030  13.438  22.327  0.00  0.00     0.003 A 
ATOM      8  C   UNL d   1     -51.021  12.315  23.214  0.00  0.00     0.002 A 
ATOM      9  C   UNL d   1     -49.772  11.805  23.697  0.00  0.00     0.002 A 
ATOM     10  C   UNL d   1     -50.602  11.770  23.671  0.00  0.00     0.000 A 
ENDROOT
BRANCH   1  11
ATOM     11  S   UNL d   1     -48.541  13.535  22.412  0.00  0.00     0.271 S 
ATOM     12  O   UNL d   1     -48.465  13.041  21.820  0.00  0.00    -0.200 OA
ATOM     13  O   UNL d   1     -48.574  14.067  23.049  0.00  0.00    -0.200 OA
BRANCH  11  14
ATOM     14  C   UNL d   1     -47.768  13.558  22.438  0.00  0.00     0.104 A 
ATOM     15  C   UNL d   1     -47.410  14.092  22.873  0.00  0.00     0.015 A 
ATOM     16  C   UNL d   1     -46.637  14.112  22.897  0.00  0.00     0.022 A 
ATOM     17  C   UNL d   1     -46.220  13.601  22.488  0.00  0.00     0.103 A 
ATOM     18  C   UNL d   1     -46.587  13.067  22.053  0.00  0.00     0.022 A 
ATOM     19  N   UNL d   1     -45.418  13.618  22.510  0.00  0.00    -0.148 N 
ATOM     20  C   UNL d   1     -47.352  13.045  22.027  0.00  0.00     0.015 A 
ENDBRANCH  11  14
ENDBRANCH   1  11
TORSDOF 2
ENDMDL
MODEL 3
REMARK VINA RESULT:      -8.5      0.952      3.594
REMARK  2 active torsions:
REMARK  status: ('A' for Active; 'I' for Inactive)
REMARK    1  A    between atoms: N_2  and  S_1 
REMARK    2  A    between atoms: C_4  and  S_1 
ROOT
ATOM      1  N   UNL d   1     -49.114  14.384  22.839  0.00  0.00    -0.231 N 
ATOM      2  C   UNL d   1     -49.732  14.099  22.362  0.00  0.00     0.075 A 
ATOM      3  C   UNL d   1     -50.460  14.496  22.320  0.00  0.00     0.017 A 
ATOM      4  C   UNL d   1     -49.237  15.085  23.282  0.00  0.00     0.092 A 
ATOM      5  C   UNL d   1     -49.609  13.399  21.919  0.00  0.00     0.018 A 
ATOM      6  C   UNL d   1     -49.965  15.481  23.240  0.00  0.00     0.020 A 
ATOM      7  C   UNL d   1     -50.572  15.177  22.755  0.00  0.00     0.003 A 
ATOM      8  C   UNL d   1     -51.064  14.195  21.838  0.00  0.00     0.002 A 
ATOM      9  C   UNL d   1     -50.218  13.109  21.442  0.00  0.00     0.002 A 
ATOM     10  C   UNL d   1     -50.947  13.506  21.400  0.00  0.00     0.000 A 
ENDROOT
BRANCH   1  11
ATOM     11  S   UNL d   1     -48.388  13.981  22.875  0.00  0.00     0.271 S 
ATOM     12  O   UNL d   1     -48.639  13.503  23.431  0.00  0.00    -0.200 OA
ATOM     13  O   UNL d   1     -48.076  14.471  22.281  0.00  0.00    -0.200 OA
BRANCH  11  14
ATOM     14  C   UNL d   1     -47.714  13.603  22.912  0.00  0.00     0.104 A 
ATOM     15  C   UNL d   1     -47.668  12.926  23.288  0.00  0.00     0.015 A 
ATOM     16  C   UNL d   1     -46.992  12.552  23.323  0.00  0.00     0.022 A 
ATOM     17  C   UNL d   1     -46.362  12.850  22.984  0.00  0.00     0.103 A 
ATOM     18  C   UNL d   1     -46.416  13.532  22.608  0.00  0.00     0.022 A 
ATOM     19  N   UNL d   1     -45.659  12.465  23.017  0.00  0.00    -0.148 N 
ATOM     20  C   UNL d   1     -47.083  13.905  22.571  0.00  0.00     0.015 A 
ENDBRANCH  11  14
ENDBRANCH   1  11
TORSDOF 2
ENDMDL
MODEL 4
REMARK VINA RESULT:      -6.4      8.529      9.581
REMARK  2 active torsions:
REMARK  status: ('A' for Active; 'I' for Inactive)
REMARK    1  A    between atoms: N_2  and  S_1 
REMARK    2  A    between atoms: C_4  and  S_1 
ROOT
ATOM      1  N   UNL d   1     -40.171  15.291  18.565  0.00  0.00    -0.231 N 
ATOM      2  C   UNL d   1     -39.806  14.678  18.140  0.00  0.00     0.075 A 
ATOM      3  C   UNL d   1     -39.956  14.566  17.331  0.00  0.00     0.017 A 
ATOM      4  C   UNL d   1     -40.701  15.801  18.162  0.00  0.00     0.092 A 
ATOM      5  C   UNL d   1     -39.277  14.168  18.543  0.00  0.00     0.018 A 
ATOM      6  C   UNL d   1     -40.851  15.689  17.353  0.00  0.00     0.020 A 
ATOM      7  C   UNL d   1     -40.473  15.068  16.947  0.00  0.00     0.003 A 
ATOM      8  C   UNL d   1     -39.581  13.949  16.924  0.00  0.00     0.002 A 
ATOM      9  C   UNL d   1     -38.909  13.556  18.127  0.00  0.00     0.002 A 
ATOM     10  C   UNL d   1     -39.060  13.445  17.318  0.00  0.00     0.000 A 
ENDROOT
BRANCH   1  11
ATOM     11  S   UNL d   1     -40.015  15.396  19.374  0.00  0.00     0.271 S 
ATOM     12  O   UNL d   1     -40.582  14.911  19.584  0.00  0.00    -0.200 OA
ATOM     13  O   UNL d   1     -39.397  15.922  19.196  0.00  0.00    -0.200 OA
BRANCH  11  14
ATOM     14  C   UNL d   1     -39.873  15.491  20.129  0.00  0.00     0.104 A 
ATOM     15  C   UNL d   1     -39.212  15.824  20.360  0.00  0.00     0.015 A 
ATOM     16  C   UNL d   1     -39.073  15.917  21.116  0.00  0.00     0.022 A 
ATOM     17  C   UNL d   1     -39.591  15.678  21.641  0.00  0.00     0.103 A 
ATOM     18  C   UNL d   1     -40.254  15.344  21.400  0.00  0.00     0.022 A 
ATOM     19  N   UNL d   1     -39.451  15.773  22.425  0.00  0.00    -0.148 N 
ATOM     20  C   UNL d   1     -40.395  15.250  20.654  0.00  0.00     0.015 A 
ENDBRANCH  11  14
ENDBRANCH   1  11
TORSDOF 2
ENDMDL
