MODEL 1
REMARK VINA RESULT:      -4.7      0.000      0.000
REMARK  4 active torsions:
REMARK  status: ('A' for Active; 'I' for Inactive)
REMARK    1  A    between atoms: N_3  and  S_1 
REMARK    2  A    between atoms: C_4  and  S_1 
REMARK    3  A    between atoms: C_13  and  N_3 
REMARK    4  A    between atoms: C_16  and  N_3 
ROOT
ATOM      1  S   UNL d   1      58.270   0.081  30.280  0.00  0.00     0.271 S 
ATOM      2  O   UNL d   1      58.862   0.636  30.139  0.00  0.00    -0.200 OA
ATOM      3  O   UNL d   1      58.081  -0.474  29.704  0.00  0.00    -0.200 OA
ENDROOT
BRANCH   1   4
ATOM      4  N   UNL d   1      58.668   0.074  29.560  0.00  0.00    -0.231 N 
BRANCH   4   5
ATOM      5  C   UNL d   1      59.189  -0.553  29.377  0.00  0.00     0.075 A 
ATOM      6  C   UNL d   1      58.897  -1.238  29.033  0.00  0.00     0.018 A 
ATOM      7  C   UNL d   1      59.410  -1.857  28.853  0.00  0.00     0.002 A 
ATOM      8  C   UNL d   1      60.217  -1.790  29.016  0.00  0.00     0.000 A 
ATOM      9  C   UNL d   1      60.509  -1.107  29.359  0.00  0.00     0.002 A 
ATOM     10  C   UNL d   1      59.996  -0.483  29.542  0.00  0.00     0.018 A 
ENDBRANCH   4   5
BRANCH   4  11
ATOM     11  C   UNL d   1      58.554   0.682  29.022  0.00  0.00     0.092 C 
ATOM     12  C   UNL d   1      57.957   0.632  28.455  0.00  0.00     0.021 C 
ENDBRANCH   4  11
ENDBRANCH   1   4
BRANCH   1  13
ATOM     13  C   UNL d   1      57.867   0.080  30.997  0.00  0.00     0.106 A 
ATOM     14  C   UNL d   1      57.300  -0.495  31.147  0.00  0.00     0.034 A 
ATOM     15  C   UNL d   1      56.892  -0.498  31.870  0.00  0.00     0.105 A 
ATOM     16  N   UNL d   1      56.304  -0.994  32.175  0.00  0.00    -0.189 NA
ATOM     17  C   UNL d   1      57.058   0.083  32.441  0.00  0.00     0.104 A 
ATOM     18  C   UNL d   1      56.105  -0.722  32.937  0.00  0.00     0.369 A 
ATOM     19  O   UNL d   1      55.543  -1.055  33.440  0.00  0.00    -0.242 OA
ATOM     20  N   UNL d   1      56.573  -0.058  33.096  0.00  0.00    -0.189 NA
ATOM     21  C   UNL d   1      57.631   0.662  32.285  0.00  0.00     0.021 A 
ATOM     22  C   UNL d   1      58.032   0.656  31.563  0.00  0.00     0.015 A 
ENDBRANCH   1  13
TORSDOF 4
ENDMDL
MODEL 2
REMARK VINA RESULT:      -3.4      8.935      9.946
REMARK  4 active torsions:
REMARK  status: ('A' for Active; 'I' for Inactive)
REMARK    1  A    between atoms: N_3  and  S_1 
REMARK    2  A    between atoms: C_4  and  S_1 
REMARK    3  A    between atoms: C_13  and  N_3 
REMARK    4  A    between atoms: C_16  and  N_3 
ROOT
ATOM      1  S   UNL d   1      59.678  -8.918  34.765  0.00  0.00     0.271 S 
ATOM      2  O   UNL d   1      60.407  -8.552  34.881  0.00  0.00    -0.200 OA
ATOM      3  O   UNL d   1      59.180  -9.055  35.403  0.00  0.00    -0.200 OA
ENDROOT
BRANCH   1   4
ATOM      4  N   UNL d   1      59.901  -8.692  35.523  0.00  0.00    -0.231 N 
BRANCH   4   5
ATOM      5  C   UNL d   1      59.917  -7.882  35.729  0.00  0.00     0.075 A 
ATOM      6  C   UNL d   1      60.620  -7.540  35.977  0.00  0.00     0.018 A 
ATOM      7  C   UNL d   1      60.637  -6.741  36.180  0.00  0.00     0.002 A 
ATOM      8  C   UNL d   1      59.950  -6.285  36.136  0.00  0.00     0.000 A 
ATOM      9  C   UNL d   1      59.248  -6.627  35.889  0.00  0.00     0.002 A 
ATOM     10  C   UNL d   1      59.227  -7.429  35.684  0.00  0.00     0.018 A 
ENDBRANCH   4   5
BRANCH   4  11
ATOM     11  C   UNL d   1      60.106  -9.260  36.078  0.00  0.00     0.092 C 
ATOM     12  C   UNL d   1      59.554  -9.817  36.330  0.00  0.00     0.021 C 
ENDBRANCH   4  11
ENDBRANCH   1   4
BRANCH   1  13
ATOM     13  C   UNL d   1      59.448  -9.148  34.009  0.00  0.00     0.106 A 
ATOM     14  C   UNL d   1      58.653  -9.135  33.802  0.00  0.00     0.034 A 
ATOM     15  C   UNL d   1      58.417  -9.366  33.041  0.00  0.00     0.105 A 
ATOM     16  N   UNL d   1      57.676  -9.412  32.677  0.00  0.00    -0.189 NA
ATOM     17  C   UNL d   1      58.989  -9.610  32.487  0.00  0.00     0.104 A 
ATOM     18  C   UNL d   1      57.785  -9.684  31.897  0.00  0.00     0.369 A 
ATOM     19  O   UNL d   1      57.192  -9.810  31.339  0.00  0.00    -0.242 OA
ATOM     20  N   UNL d   1      58.596  -9.805  31.786  0.00  0.00    -0.189 NA
ATOM     21  C   UNL d   1      59.790  -9.621  32.700  0.00  0.00     0.021 A 
ATOM     22  C   UNL d   1      60.014  -9.389  33.461  0.00  0.00     0.015 A 
ENDBRANCH   1  13
TORSDOF 4
ENDMDL
MODEL 3
REMARK VINA RESULT:      -3.1      1.708      4.008
REMARK  4 active torsions:
REMARK  status: ('A' for Active; 'I' for Inactive)
REMARK    1  A    between atoms: N_3  and  S_1 
REMARK    2  A    between atoms: C_4  and  S_1 
REMARK    3  A    between atoms: C_13  and  N_3 
REMARK    4  A    between atoms: C_16  and  N_3 
ROOT
ATOM      1  S   UNL d   1      58.968  -0.572  29.386  0.00  0.00     0.271 S 
ATOM      2  O   UNL d   1      59.341   0.104  29.673  0.00  0.00    -0.200 OA
ATOM      3  O   UNL d   1      58.150  -0.588  29.305  0.00  0.00    -0.200 OA
ENDROOT
BRANCH   1   4
ATOM      4  N   UNL d   1      58.516   0.083  29.590  0.00  0.00    -0.231 N 
BRANCH   4   5
ATOM      5  C   UNL d   1      58.186   0.141  30.356  0.00  0.00     0.075 A 
ATOM      6  C   UNL d   1      58.540   0.625  30.916  0.00  0.00     0.018 A 
ATOM      7  C   UNL d   1      58.215   0.682  31.671  0.00  0.00     0.002 A 
ATOM      8  C   UNL d   1      57.537   0.255  31.867  0.00  0.00     0.000 A 
ATOM      9  C   UNL d   1      57.184  -0.229  31.308  0.00  0.00     0.002 A 
ATOM     10  C   UNL d   1      57.506  -0.289  30.548  0.00  0.00     0.018 A 
ENDBRANCH   4   5
BRANCH   4  11
ATOM     11  C   UNL d   1      58.387   0.681  29.043  0.00  0.00     0.092 C 
ATOM     12  C   UNL d   1      57.807   0.600  28.464  0.00  0.00     0.021 C 
ENDBRANCH   4  11
ENDBRANCH   1   4
BRANCH   1  13
ATOM     13  C   UNL d   1      59.413  -1.232  29.179  0.00  0.00     0.106 A 
ATOM     14  C   UNL d   1      59.068  -1.978  29.191  0.00  0.00     0.034 A 
ATOM     15  C   UNL d   1      59.514  -2.646  28.983  0.00  0.00     0.105 A 
ATOM     16  N   UNL d   1      59.326  -3.451  28.943  0.00  0.00    -0.189 NA
ATOM     17  C   UNL d   1      60.311  -2.559  28.762  0.00  0.00     0.104 A 
ATOM     18  C   UNL d   1      60.007  -3.865  28.696  0.00  0.00     0.369 A 
ATOM     19  O   UNL d   1      60.065  -4.679  28.584  0.00  0.00    -0.242 OA
ATOM     20  N   UNL d   1      60.610  -3.310  28.587  0.00  0.00    -0.189 NA
ATOM     21  C   UNL d   1      60.655  -1.804  28.751  0.00  0.00     0.021 A 
ATOM     22  C   UNL d   1      60.203  -1.146  28.960  0.00  0.00     0.015 A 
ENDBRANCH   1  13
TORSDOF 4
ENDMDL
