MODEL 1
REMARK VINA RESULT:      -9.7      0.000      0.000
REMARK  4 active torsions:
REMARK  status: ('A' for Active; 'I' for Inactive)
REMARK    1  A    between atoms: C_9  and  C_3 
REMARK    2  A    between atoms: C_11  and  C_7 
REMARK    3  A    between atoms: O_22  and  C_16 
REMARK    4  A    between atoms: O_23  and  C_17 
ROOT
ATOM      1  N   UNL d   1      53.396  33.670  54.197  0.00  0.00    -0.186 N 
ATOM      2  N   UNL d   1      52.728  33.661  53.698  0.00  0.00    -0.162 NA
ATOM      3  C   UNL d   1      53.905  33.087  54.440  0.00  0.00     0.187 A 
ATOM      4  C   UNL d   1      53.638  34.377  54.541  0.00  0.00     0.217 A 
ATOM      5  N   UNL d   1      54.464  33.414  54.933  0.00  0.00    -0.127 NA
ATOM      6  N   UNL d   1      54.305  34.206  54.998  0.00  0.00    -0.120 NA
ATOM      7  C   UNL d   1      52.316  34.357  53.552  0.00  0.00     0.108 A 
ATOM      8  S   UNL d   1      53.215  35.065  54.386  0.00  0.00    -0.045 SA
ATOM      9  C   UNL d   1      52.554  35.070  53.895  0.00  0.00     0.059 A 
ENDROOT
BRANCH   3  10
ATOM     10  C   UNL d   1      53.842  32.294  54.209  0.00  0.00     0.038 A 
ATOM     11  C   UNL d   1      53.447  31.766  54.686  0.00  0.00     0.005 A 
ATOM     12  C   UNL d   1      53.384  30.973  54.454  0.00  0.00     0.024 A 
ATOM     13  C   UNL d   1      53.723  30.732  53.742  0.00  0.00     0.094 A 
ATOM     14  C   UNL d   1      54.119  31.264  53.263  0.00  0.00     0.024 A 
ATOM     15  C   UNL d   1      54.179  32.050  53.498  0.00  0.00     0.005 A 
BRANCH  13  16
ATOM     16  O   UNL d   1      53.671  29.939  53.490  0.00  0.00    -0.328 OA
ATOM     17  C   UNL d   1      52.920  29.572  53.399  0.00  0.00     0.181 C 
ENDBRANCH  13  16
ENDBRANCH   3  10
BRANCH   7  18
ATOM     18  C   UNL d   1      51.658  34.344  53.059  0.00  0.00     0.020 A 
ATOM     19  C   UNL d   1      51.752  34.354  52.239  0.00  0.00     0.004 A 
ATOM     20  C   UNL d   1      51.099  34.342  51.734  0.00  0.00     0.024 A 
ATOM     21  C   UNL d   1      50.330  34.319  52.060  0.00  0.00     0.094 A 
ATOM     22  C   UNL d   1      50.230  34.309  52.864  0.00  0.00     0.024 A 
ATOM     23  C   UNL d   1      50.894  34.322  53.374  0.00  0.00     0.004 A 
BRANCH  21  24
ATOM     24  O   UNL d   1      49.674  34.307  51.555  0.00  0.00    -0.328 OA
ATOM     25  C   UNL d   1      48.981  34.715  51.766  0.00  0.00     0.181 C 
ENDBRANCH  21  24
ENDBRANCH   7  18
TORSDOF 4
ENDMDL
MODEL 2
REMARK VINA RESULT:      -9.4      0.740      4.134
REMARK  4 active torsions:
REMARK  status: ('A' for Active; 'I' for Inactive)
REMARK    1  A    between atoms: C_9  and  C_3 
REMARK    2  A    between atoms: C_11  and  C_7 
REMARK    3  A    between atoms: O_22  and  C_16 
REMARK    4  A    between atoms: O_23  and  C_17 
ROOT
ATOM      1  N   UNL d   1      53.099  33.908  54.015  0.00  0.00    -0.186 N 
ATOM      2  N   UNL d   1      53.053  33.084  53.897  0.00  0.00    -0.162 NA
ATOM      3  C   UNL d   1      52.638  34.525  53.755  0.00  0.00     0.187 A 
ATOM      4  C   UNL d   1      53.706  34.221  54.473  0.00  0.00     0.217 A 
ATOM      5  N   UNL d   1      52.945  35.222  54.043  0.00  0.00    -0.127 NA
ATOM      6  N   UNL d   1      53.601  35.041  54.484  0.00  0.00    -0.120 NA
ATOM      7  C   UNL d   1      53.613  32.589  54.239  0.00  0.00     0.108 A 
ATOM      8  S   UNL d   1      54.259  33.714  54.808  0.00  0.00    -0.045 SA
ATOM      9  C   UNL d   1      54.226  32.898  54.700  0.00  0.00     0.059 A 
ENDROOT
BRANCH   3  10
ATOM     10  C   UNL d   1      51.969  34.430  53.277  0.00  0.00     0.038 A 
ATOM     11  C   UNL d   1      51.241  34.314  53.621  0.00  0.00     0.005 A 
ATOM     12  C   UNL d   1      50.572  34.219  53.142  0.00  0.00     0.024 A 
ATOM     13  C   UNL d   1      50.656  34.244  52.322  0.00  0.00     0.094 A 
ATOM     14  C   UNL d   1      51.389  34.361  51.977  0.00  0.00     0.024 A 
ATOM     15  C   UNL d   1      52.049  34.454  52.457  0.00  0.00     0.005 A 
BRANCH  13  16
ATOM     16  O   UNL d   1      49.996  34.151  51.821  0.00  0.00    -0.328 OA
ATOM     17  C   UNL d   1      49.326  34.652  51.906  0.00  0.00     0.181 C 
ENDBRANCH  13  16
ENDBRANCH   3  10
BRANCH   7  18
ATOM     18  C   UNL d   1      53.565  31.778  54.121  0.00  0.00     0.020 A 
ATOM     19  C   UNL d   1      53.713  31.455  53.375  0.00  0.00     0.004 A 
ATOM     20  C   UNL d   1      53.668  30.642  53.244  0.00  0.00     0.024 A 
ATOM     21  C   UNL d   1      53.468  30.136  53.879  0.00  0.00     0.094 A 
ATOM     22  C   UNL d   1      53.321  30.444  54.614  0.00  0.00     0.024 A 
ATOM     23  C   UNL d   1      53.368  31.271  54.743  0.00  0.00     0.004 A 
BRANCH  21  24
ATOM     24  O   UNL d   1      53.422  29.319  53.749  0.00  0.00    -0.328 OA
ATOM     25  C   UNL d   1      53.343  28.802  54.395  0.00  0.00     0.181 C 
ENDBRANCH  21  24
ENDBRANCH   7  18
TORSDOF 4
ENDMDL
MODEL 3
REMARK VINA RESULT:      -7.4      1.969      2.733
REMARK  4 active torsions:
REMARK  status: ('A' for Active; 'I' for Inactive)
REMARK    1  A    between atoms: C_9  and  C_3 
REMARK    2  A    between atoms: C_11  and  C_7 
REMARK    3  A    between atoms: O_22  and  C_16 
REMARK    4  A    between atoms: O_23  and  C_17 
ROOT
ATOM      1  N   UNL d   1      53.118  31.938  53.541  0.00  0.00    -0.186 N 
ATOM      2  N   UNL d   1      52.617  32.597  53.445  0.00  0.00    -0.162 NA
ATOM      3  C   UNL d   1      53.831  31.842  53.918  0.00  0.00     0.187 A 
ATOM      4  C   UNL d   1      52.906  31.213  53.214  0.00  0.00     0.217 A 
ATOM      5  N   UNL d   1      54.072  31.069  53.834  0.00  0.00    -0.127 NA
ATOM      6  N   UNL d   1      53.507  30.679  53.403  0.00  0.00    -0.120 NA
ATOM      7  C   UNL d   1      51.915  32.520  53.025  0.00  0.00     0.108 A 
ATOM      8  S   UNL d   1      52.200  31.152  52.797  0.00  0.00    -0.045 SA
ATOM      9  C   UNL d   1      51.696  31.795  52.695  0.00  0.00     0.059 A 
ENDROOT
BRANCH   3  10
ATOM     10  C   UNL d   1      54.227  32.452  54.315  0.00  0.00     0.038 A 
ATOM     11  C   UNL d   1      54.760  32.915  53.912  0.00  0.00     0.005 A 
ATOM     12  C   UNL d   1      55.156  33.525  54.310  0.00  0.00     0.024 A 
ATOM     13  C   UNL d   1      55.002  33.651  55.110  0.00  0.00     0.094 A 
ATOM     14  C   UNL d   1      54.466  33.184  55.515  0.00  0.00     0.024 A 
ATOM     15  C   UNL d   1      54.076  32.581  55.115  0.00  0.00     0.005 A 
BRANCH  13  16
ATOM     16  O   UNL d   1      55.390  34.259  55.530  0.00  0.00    -0.328 OA
ATOM     17  C   UNL d   1      55.937  34.761  55.138  0.00  0.00     0.181 C 
ENDBRANCH  13  16
ENDBRANCH   3  10
BRANCH   7  18
ATOM     18  C   UNL d   1      51.423  33.172  52.932  0.00  0.00     0.020 A 
ATOM     19  C   UNL d   1      51.552  33.707  52.316  0.00  0.00     0.004 A 
ATOM     20  C   UNL d   1      51.066  34.366  52.212  0.00  0.00     0.024 A 
ATOM     21  C   UNL d   1      50.431  34.492  52.742  0.00  0.00     0.094 A 
ATOM     22  C   UNL d   1      50.298  33.972  53.349  0.00  0.00     0.024 A 
ATOM     23  C   UNL d   1      50.794  33.305  53.451  0.00  0.00     0.004 A 
BRANCH  21  24
ATOM     24  O   UNL d   1      49.942  35.152  52.639  0.00  0.00    -0.328 OA
ATOM     25  C   UNL d   1      49.184  35.162  52.981  0.00  0.00     0.181 C 
ENDBRANCH  21  24
ENDBRANCH   7  18
TORSDOF 4
ENDMDL
