MODEL 1
REMARK VINA RESULT:      59.9      0.000      0.000
REMARK  6 active torsions:
REMARK  status: ('A' for Active; 'I' for Inactive)
REMARK    1  A    between atoms: C_10  and  N_1 
REMARK    2  A    between atoms: S_8  and  C_2 
REMARK       I    between atoms: N_7  and  C_9 
REMARK    3  A    between atoms: C_13  and  S_8 
REMARK    4  A    between atoms: C_9  and  C_13 
REMARK    5  A    between atoms: C_21  and  N_11 
REMARK    6  A    between atoms: C_25  and  C_21 
ROOT
ATOM      1  N   UNL d   1     -58.556 -98.837 -44.637  0.00  0.00    -0.254 N 
ATOM      2  C   UNL d   1     -57.791 -98.815 -44.930  0.00  0.00     0.182 A 
ATOM      3  C   UNL d   1     -59.196 -98.833 -45.160  0.00  0.00     0.268 A 
ATOM      4  N   UNL d   1     -57.666 -98.789 -45.745  0.00  0.00    -0.222 NA
ATOM      5  C   UNL d   1     -59.070 -98.807 -45.975  0.00  0.00     0.074 A 
ATOM      6  C   UNL d   1     -58.304 -98.785 -46.269  0.00  0.00     0.088 A 
ATOM      7  O   UNL d   1     -59.960 -98.855 -44.867  0.00  0.00    -0.267 OA
ATOM      8  C   UNL d   1     -59.703 -98.804 -46.482  0.00  0.00     0.006 A 
ATOM      9  C   UNL d   1     -58.173 -98.760 -47.068  0.00  0.00     0.019 A 
ATOM     10  C   UNL d   1     -59.577 -98.778 -47.298  0.00  0.00     0.000 A 
ATOM     11  C   UNL d   1     -58.811 -98.756 -47.591  0.00  0.00     0.002 A 
ENDROOT
BRANCH   2  12
ATOM     12  S   UNL d   1     -57.135 -98.818 -44.413  0.00  0.00    -0.044 SA
BRANCH  12  13
ATOM     13  C   UNL d   1     -56.369 -98.829 -44.743  0.00  0.00     0.099 C 
BRANCH  13  14
ATOM     14  C   UNL d   1     -55.756 -99.197 -44.312  0.00  0.00     0.272 C 
ATOM     15  N   UNL d   1     -55.610-100.008 -44.442  0.00  0.00    -0.269 N 
ATOM     16  C   UNL d   1     -55.008-100.358 -44.015  0.00  0.00     0.102 A 
ATOM     17  C   UNL d   1     -56.059-100.435 -44.980  0.00  0.00     0.102 A 
ATOM     18  C   UNL d   1     -54.862-101.170 -44.145  0.00  0.00     0.100 A 
ATOM     19  N   UNL d   1     -55.311-101.596 -44.683  0.00  0.00    -0.297 N 
ATOM     20  C   UNL d   1     -55.915-101.220 -45.103  0.00  0.00     0.100 A 
ATOM     21  O   UNL d   1     -55.308 -98.771 -43.775  0.00  0.00    -0.266 OA
BRANCH  19  22
ATOM     22  C   UNL d   1     -55.144-102.417 -44.797  0.00  0.00     0.126 C 
BRANCH  22  23
ATOM     23  C   UNL d   1     -54.839-102.679 -45.496  0.00  0.00     0.253 C 
ATOM     24  O   UNL d   1     -54.770-102.158 -46.133  0.00  0.00    -0.281 OA
ENDBRANCH  22  23
ENDBRANCH  19  22
ENDBRANCH  13  14
ENDBRANCH  12  13
ENDBRANCH   2  12
BRANCH   1  25
ATOM     25  C   UNL d   1     -58.675 -98.862 -43.838  0.00  0.00     0.069 A 
ATOM     26  C   UNL d   1     -59.446 -98.963 -43.542  0.00  0.00     0.018 A 
ATOM     27  C   UNL d   1     -59.572 -98.990 -42.726  0.00  0.00     0.002 A 
ATOM     28  C   UNL d   1     -58.929 -98.915 -42.214  0.00  0.00     0.000 A 
ATOM     29  C   UNL d   1     -58.170 -98.815 -42.505  0.00  0.00     0.002 A 
ATOM     30  C   UNL d   1     -58.040 -98.788 -43.322  0.00  0.00     0.018 A 
ENDBRANCH   1  25
TORSDOF 6
ENDMDL
