MODEL 1
REMARK VINA RESULT:      23.5      0.000      0.000
REMARK  4 active torsions:
REMARK  status: ('A' for Active; 'I' for Inactive)
REMARK    1  A    between atoms: C_7  and  C_4 
REMARK    2  A    between atoms: C_8  and  C_5 
REMARK    3  A    between atoms: S_9  and  C_6 
REMARK    4  A    between atoms: C_14  and  S_9 
ROOT
ATOM      1  N   UNL d   1     -58.917 -98.760 -45.067  0.00  0.00    -0.200 NA
ATOM      2  N   UNL d   1     -57.620 -98.768 -45.624  0.00  0.00    -0.202 NA
ATOM      3  N   UNL d   1     -57.789 -98.773 -44.204  0.00  0.00    -0.206 NA
ATOM      4  C   UNL d   1     -58.619 -98.765 -44.319  0.00  0.00     0.187 A 
ATOM      5  C   UNL d   1     -57.304 -98.774 -44.862  0.00  0.00     0.166 A 
ATOM      6  C   UNL d   1     -58.420 -98.761 -45.717  0.00  0.00     0.197 A 
ENDROOT
BRANCH   5   7
ATOM      7  C   UNL d   1     -56.486 -98.782 -44.756  0.00  0.00     0.036 A 
ATOM      8  C   UNL d   1     -56.007 -98.812 -45.404  0.00  0.00     0.003 A 
ATOM      9  C   UNL d   1     -55.189 -98.820 -45.298  0.00  0.00     0.000 A 
ATOM     10  C   UNL d   1     -54.870 -98.796 -44.536  0.00  0.00     0.000 A 
ATOM     11  C   UNL d   1     -55.370 -98.765 -43.880  0.00  0.00     0.000 A 
ATOM     12  C   UNL d   1     -56.167 -98.758 -43.995  0.00  0.00     0.003 A 
ENDBRANCH   5   7
BRANCH   6  13
ATOM     13  S   UNL d   1     -58.740 -98.755 -46.506  0.00  0.00    -0.048 SA
BRANCH  13  14
ATOM     14  C   UNL d   1     -59.551 -98.870 -46.632  0.00  0.00     0.038 C 
ATOM     15  C   UNL d   1     -59.846 -98.976 -47.399  0.00  0.00     0.008 C 
ENDBRANCH  13  14
ENDBRANCH   6  13
BRANCH   4  16
ATOM     16  C   UNL d   1     -59.137 -98.763 -43.680  0.00  0.00     0.151 C 
ATOM     17 CL   UNL d   1     -59.934 -98.766 -43.820  0.00  0.00    -0.067 Cl
ATOM     18 CL   UNL d   1     -58.858 -98.759 -42.926  0.00  0.00    -0.067 Cl
ENDBRANCH   4  16
TORSDOF 4
ENDMDL
MODEL 2
REMARK VINA RESULT:      24.5      1.383      2.356
REMARK  4 active torsions:
REMARK  status: ('A' for Active; 'I' for Inactive)
REMARK    1  A    between atoms: C_7  and  C_4 
REMARK    2  A    between atoms: C_8  and  C_5 
REMARK    3  A    between atoms: S_9  and  C_6 
REMARK    4  A    between atoms: C_14  and  S_9 
ROOT
ATOM      1  N   UNL d   1     -59.052 -98.846 -44.313  0.00  0.00    -0.200 NA
ATOM      2  N   UNL d   1     -57.832 -98.786 -43.606  0.00  0.00    -0.202 NA
ATOM      3  N   UNL d   1     -57.828 -98.875 -45.034  0.00  0.00    -0.206 NA
ATOM      4  C   UNL d   1     -58.665 -98.886 -45.019  0.00  0.00     0.187 A 
ATOM      5  C   UNL d   1     -57.426 -98.825 -44.323  0.00  0.00     0.166 A 
ATOM      6  C   UNL d   1     -58.637 -98.796 -43.610  0.00  0.00     0.197 A 
ENDROOT
BRANCH   5   7
ATOM      7  C   UNL d   1     -56.601 -98.815 -44.330  0.00  0.00     0.036 A 
ATOM      8  C   UNL d   1     -56.203 -98.782 -43.630  0.00  0.00     0.003 A 
ATOM      9  C   UNL d   1     -55.379 -98.771 -43.637  0.00  0.00     0.000 A 
ATOM     10  C   UNL d   1     -54.971 -98.794 -44.354  0.00  0.00     0.000 A 
ATOM     11  C   UNL d   1     -55.387 -98.828 -45.065  0.00  0.00     0.000 A 
ATOM     12  C   UNL d   1     -56.193 -98.838 -45.048  0.00  0.00     0.003 A 
ENDBRANCH   5   7
BRANCH   6  13
ATOM     13  S   UNL d   1     -59.050 -98.755 -42.867  0.00  0.00    -0.048 SA
BRANCH  13  14
ATOM     14  C   UNL d   1     -59.656 -99.293 -42.692  0.00  0.00     0.038 C 
ATOM     15  C   UNL d   1     -59.947 -99.360 -41.919  0.00  0.00     0.008 C 
ENDBRANCH  13  14
ENDBRANCH   6  13
BRANCH   4  16
ATOM     16  C   UNL d   1     -59.102 -98.935 -45.714  0.00  0.00     0.151 C 
ATOM     17 CL   UNL d   1     -58.732 -98.803 -46.422  0.00  0.00    -0.067 Cl
ATOM     18 CL   UNL d   1     -59.886 -99.112 -45.694  0.00  0.00    -0.067 Cl
ENDBRANCH   4  16
TORSDOF 4
ENDMDL
