MODEL 1
REMARK VINA RESULT:      -5.6      0.000      0.000
REMARK  5 active torsions:
REMARK  status: ('A' for Active; 'I' for Inactive)
REMARK    1  A    between atoms: C_6  and  N_2 
REMARK    2  A    between atoms: C_7  and  C_6 
REMARK    3  A    between atoms: C_8  and  C_7 
REMARK       I    between atoms: N_10  and  C_8 
REMARK    4  A    between atoms: C_12  and  N_10 
REMARK    5  A    between atoms: C_13  and  C_12 
ROOT
ATOM      1  C   UNL d   1      58.658  -0.523  29.424  0.00  0.00     0.088 C 
ENDROOT
BRANCH   1   2
ATOM      2  N   UNL d   1      59.342  -0.930  29.214  0.00  0.00    -0.268 N 
ATOM      3  C   UNL d   1      60.086  -0.601  29.098  0.00  0.00     0.296 A 
ATOM      4  S   UNL d   1      60.608  -1.247  28.889  0.00  0.00    -0.025 SA
ATOM      5  O   UNL d   1      60.278   0.197  29.173  0.00  0.00    -0.259 OA
ATOM      6  C   UNL d   1      60.178  -1.914  28.885  0.00  0.00     0.050 A 
ATOM      7  C   UNL d   1      60.403  -2.695  28.721  0.00  0.00     0.008 A 
ATOM      8  C   UNL d   1      59.395  -1.743  29.083  0.00  0.00     0.073 A 
ATOM      9  C   UNL d   1      59.841  -3.305  28.755  0.00  0.00     0.001 A 
ATOM     10  C   UNL d   1      59.062  -3.122  28.954  0.00  0.00     0.002 A 
ATOM     11  C   UNL d   1      58.841  -2.342  29.116  0.00  0.00     0.018 A 
ENDBRANCH   1   2
BRANCH   1  12
ATOM     12  C   UNL d   1      58.574  -0.218  30.181  0.00  0.00     0.082 C 
BRANCH  12  13
ATOM     13  C   UNL d   1      57.851   0.087  30.433  0.00  0.00     0.281 C 
ATOM     14  N   UNL d   1      57.525  -0.147  31.150  0.00  0.00    -0.206 NA
ATOM     15  O   UNL d   1      57.451   0.632  29.960  0.00  0.00    -0.265 OA
BRANCH  14  16
ATOM     16  C   UNL d   1      56.806   0.158  31.396  0.00  0.00     0.102 C 
BRANCH  16  17
ATOM     17  C   UNL d   1      56.448  -0.139  32.074  0.00  0.00     0.019 A 
ATOM     18  C   UNL d   1      56.395  -0.962  32.194  0.00  0.00     0.002 A 
ATOM     19  C   UNL d   1      56.032  -1.254  32.882  0.00  0.00     0.000 A 
ATOM     20  C   UNL d   1      55.725  -0.739  33.445  0.00  0.00     0.000 A 
ATOM     21  C   UNL d   1      55.778   0.084  33.326  0.00  0.00     0.000 A 
ATOM     22  C   UNL d   1      56.137   0.389  32.644  0.00  0.00     0.002 A 
ENDBRANCH  16  17
ENDBRANCH  14  16
ENDBRANCH  12  13
ENDBRANCH   1  12
TORSDOF 5
ENDMDL
MODEL 2
REMARK VINA RESULT:      -4.4      1.795      5.151
REMARK  5 active torsions:
REMARK  status: ('A' for Active; 'I' for Inactive)
REMARK    1  A    between atoms: C_6  and  N_2 
REMARK    2  A    between atoms: C_7  and  C_6 
REMARK    3  A    between atoms: C_8  and  C_7 
REMARK       I    between atoms: N_10  and  C_8 
REMARK    4  A    between atoms: C_12  and  N_10 
REMARK    5  A    between atoms: C_13  and  C_12 
ROOT
ATOM      1  C   UNL d   1      57.125   0.648  31.878  0.00  0.00     0.088 C 
ENDROOT
BRANCH   1   2
ATOM      2  N   UNL d   1      57.002   0.660  32.692  0.00  0.00    -0.268 N 
ATOM      3  C   UNL d   1      57.585   0.675  33.270  0.00  0.00     0.296 A 
ATOM      4  S   UNL d   1      57.180   0.682  34.025  0.00  0.00    -0.025 SA
ATOM      5  O   UNL d   1      58.398   0.682  33.135  0.00  0.00    -0.259 OA
ATOM      6  C   UNL d   1      56.401   0.671  33.881  0.00  0.00     0.050 A 
ATOM      7  C   UNL d   1      55.759   0.672  34.406  0.00  0.00     0.008 A 
ATOM      8  C   UNL d   1      56.267   0.657  33.067  0.00  0.00     0.073 A 
ATOM      9  C   UNL d   1      54.983   0.659  34.114  0.00  0.00     0.001 A 
ATOM     10  C   UNL d   1      54.861   0.645  33.298  0.00  0.00     0.002 A 
ATOM     11  C   UNL d   1      55.503   0.644  32.778  0.00  0.00     0.018 A 
ENDBRANCH   1   2
BRANCH   1  12
ATOM     12  C   UNL d   1      57.330  -0.050  31.500  0.00  0.00     0.082 C 
BRANCH  12  13
ATOM     13  C   UNL d   1      57.556  -0.047  30.707  0.00  0.00     0.281 C 
ATOM     14  N   UNL d   1      57.975  -0.679  30.389  0.00  0.00    -0.206 NA
ATOM     15  O   UNL d   1      57.360   0.596  30.229  0.00  0.00    -0.265 OA
BRANCH  14  16
ATOM     16  C   UNL d   1      58.197  -0.673  29.601  0.00  0.00     0.102 C 
BRANCH  16  17
ATOM     17  C   UNL d   1      58.709  -1.249  29.318  0.00  0.00     0.019 A 
ATOM     18  C   UNL d   1      58.517  -2.056  29.396  0.00  0.00     0.002 A 
ATOM     19  C   UNL d   1      59.040  -2.633  29.107  0.00  0.00     0.000 A 
ATOM     20  C   UNL d   1      59.745  -2.415  28.745  0.00  0.00     0.000 A 
ATOM     21  C   UNL d   1      59.939  -1.608  28.666  0.00  0.00     0.000 A 
ATOM     22  C   UNL d   1      59.426  -1.023  28.950  0.00  0.00     0.002 A 
ENDBRANCH  16  17
ENDBRANCH  14  16
ENDBRANCH  12  13
ENDBRANCH   1  12
TORSDOF 5
ENDMDL
MODEL 3
REMARK VINA RESULT:      -2.7      8.994      9.794
REMARK  5 active torsions:
REMARK  status: ('A' for Active; 'I' for Inactive)
REMARK    1  A    between atoms: C_6  and  N_2 
REMARK    2  A    between atoms: C_7  and  C_6 
REMARK    3  A    between atoms: C_8  and  C_7 
REMARK       I    between atoms: N_10  and  C_8 
REMARK    4  A    between atoms: C_12  and  N_10 
REMARK    5  A    between atoms: C_13  and  C_12 
ROOT
ATOM      1  C   UNL d   1      59.160  -9.116  33.475  0.00  0.00     0.088 C 
ENDROOT
BRANCH   1   2
ATOM      2  N   UNL d   1      59.819  -9.115  33.968  0.00  0.00    -0.268 N 
ATOM      3  C   UNL d   1      60.576  -9.363  33.766  0.00  0.00     0.296 A 
ATOM      4  S   UNL d   1      61.062  -9.255  34.462  0.00  0.00    -0.025 SA
ATOM      5  O   UNL d   1      60.807  -9.656  33.031  0.00  0.00    -0.259 OA
ATOM      6  C   UNL d   1      60.601  -8.959  35.035  0.00  0.00     0.050 A 
ATOM      7  C   UNL d   1      60.785  -8.751  35.817  0.00  0.00     0.008 A 
ATOM      8  C   UNL d   1      59.831  -8.864  34.754  0.00  0.00     0.073 A 
ATOM      9  C   UNL d   1      60.196  -8.447  36.316  0.00  0.00     0.001 A 
ATOM     10  C   UNL d   1      59.430  -8.357  36.024  0.00  0.00     0.002 A 
ATOM     11  C   UNL d   1      59.250  -8.565  35.244  0.00  0.00     0.018 A 
ENDBRANCH   1   2
BRANCH   1  12
ATOM     12  C   UNL d   1      58.905  -9.813  33.125  0.00  0.00     0.082 C 
BRANCH  12  13
ATOM     13  C   UNL d   1      58.267  -9.811  32.604  0.00  0.00     0.281 C 
ATOM     14  N   UNL d   1      58.391  -9.807  31.791  0.00  0.00    -0.206 NA
ATOM     15  O   UNL d   1      57.497  -9.813  32.900  0.00  0.00    -0.265 OA
BRANCH  14  16
ATOM     16  C   UNL d   1      57.754  -9.805  31.276  0.00  0.00     0.102 C 
BRANCH  16  17
ATOM     17  C   UNL d   1      57.886  -9.768  30.466  0.00  0.00     0.019 A 
ATOM     18  C   UNL d   1      57.246  -9.682  29.940  0.00  0.00     0.002 A 
ATOM     19  C   UNL d   1      57.388  -9.646  29.122  0.00  0.00     0.000 A 
ATOM     20  C   UNL d   1      58.154  -9.694  28.827  0.00  0.00     0.000 A 
ATOM     21  C   UNL d   1      58.795  -9.780  29.352  0.00  0.00     0.000 A 
ATOM     22  C   UNL d   1      58.668  -9.818  30.170  0.00  0.00     0.002 A 
ENDBRANCH  16  17
ENDBRANCH  14  16
ENDBRANCH  12  13
ENDBRANCH   1  12
TORSDOF 5
ENDMDL
