MODEL 1
REMARK VINA RESULT:      26.3      0.000      0.000
REMARK  5 active torsions:
REMARK  status: ('A' for Active; 'I' for Inactive)
REMARK    1  A    between atoms: C_10  and  N_2 
REMARK    2  A    between atoms: C_11  and  N_4 
REMARK    3  A    between atoms: C_12  and  C_11 
REMARK       I    between atoms: N_16  and  C_12 
REMARK       I    between atoms: C_15  and  N_17 
REMARK    4  A    between atoms: C_22  and  N_16 
REMARK    5  A    between atoms: N_17  and  C_23 
ROOT
ATOM      1  C   UNL d   1     -42.095-121.105 -50.485  0.00  0.00     0.172 A 
ATOM      2  N   UNL d   1     -42.154-122.292 -49.675  0.00  0.00    -0.226 N 
ATOM      3  C   UNL d   1     -41.749-122.709 -50.287  0.00  0.00     0.342 A 
ATOM      4  N   UNL d   1     -41.530-122.322 -50.972  0.00  0.00    -0.252 N 
ATOM      5  C   UNL d   1     -41.700-121.526 -51.073  0.00  0.00     0.098 A 
ATOM      6  C   UNL d   1     -42.321-121.493 -49.785  0.00  0.00     0.292 A 
ATOM      7  O   UNL d   1     -42.192-120.329 -50.729  0.00  0.00    -0.301 OA
ATOM      8  C   UNL d   1     -41.562-120.987 -51.675  0.00  0.00     0.041 A 
ATOM      9  C   UNL d   1     -41.867-120.262 -51.451  0.00  0.00     0.102 A 
ATOM     10  O   UNL d   1     -41.570-123.525 -50.193  0.00  0.00    -0.245 OA
ATOM     11  O   UNL d   1     -42.722-121.068 -49.186  0.00  0.00    -0.264 OA
ATOM     12  C   UNL d   1     -41.187-121.073 -52.413  0.00  0.00     0.004 A 
ATOM     13  C   UNL d   1     -41.804-119.610 -51.959  0.00  0.00     0.025 A 
ATOM     14  C   UNL d   1     -41.124-120.421 -52.922  0.00  0.00     0.000 A 
ATOM     15  C   UNL d   1     -41.435-119.703 -52.683  0.00  0.00     0.002 A 
ENDROOT
BRANCH   4  16
ATOM     16  C   UNL d   1     -41.125-122.739 -51.583  0.00  0.00     0.147 C 
BRANCH  16  17
ATOM     17  C   UNL d   1     -41.552-122.969 -52.279  0.00  0.00     0.297 C 
ATOM     18  N   UNL d   1     -41.202-122.899 -53.007  0.00  0.00    -0.207 NA
ATOM     19  O   UNL d   1     -42.319-123.262 -52.200  0.00  0.00    -0.264 OA
BRANCH  18  20
ATOM     20  C   UNL d   1     -41.612-123.120 -53.672  0.00  0.00     0.085 A 
ATOM     21  C   UNL d   1     -41.259-123.094 -54.417  0.00  0.00     0.021 A 
ATOM     22  C   UNL d   1     -41.676-123.318 -55.086  0.00  0.00     0.021 A 
ATOM     23  C   UNL d   1     -42.461-123.573 -55.016  0.00  0.00     0.085 A 
ATOM     24  C   UNL d   1     -42.826-123.603 -54.268  0.00  0.00     0.021 A 
ATOM     25  C   UNL d   1     -42.401-123.376 -53.596  0.00  0.00     0.021 A 
BRANCH  23  26
ATOM     26  N   UNL d   1     -42.886-123.800 -55.689  0.00  0.00    -0.208 NA
ATOM     27  C   UNL d   1     -43.136-123.222 -56.234  0.00  0.00     0.279 C 
ATOM     28  O   UNL d   1     -43.547-123.446 -56.884  0.00  0.00    -0.265 OA
ATOM     29  C   UNL d   1     -42.948-122.415 -56.085  0.00  0.00     0.068 C 
ENDBRANCH  23  26
ENDBRANCH  18  20
ENDBRANCH  16  17
ENDBRANCH   4  16
BRANCH   2  30
ATOM     30  C   UNL d   1     -42.384-122.673 -48.972  0.00  0.00     0.071 A 
ATOM     31  C   UNL d   1     -41.860-122.742 -48.348  0.00  0.00     0.020 A 
ATOM     32  C   UNL d   1     -42.079-123.114 -47.655  0.00  0.00     0.031 A 
ATOM     33  C   UNL d   1     -42.839-123.423 -47.585  0.00  0.00     0.140 A 
ATOM     34  C   UNL d   1     -43.368-123.362 -48.194  0.00  0.00     0.031 A 
ATOM     35  F   UNL d   1     -43.062-123.803 -46.878  0.00  0.00    -0.204 F 
ATOM     36  C   UNL d   1     -43.145-122.982 -48.902  0.00  0.00     0.020 A 
ENDBRANCH   2  30
TORSDOF 5
ENDMDL
