MODEL 1
REMARK VINA RESULT:      -4.5      0.000      0.000
REMARK  5 active torsions:
REMARK  status: ('A' for Active; 'I' for Inactive)
REMARK    1  A    between atoms: C_6  and  N_2 
REMARK    2  A    between atoms: C_8  and  C_6 
REMARK    3  A    between atoms: C_13  and  C_8 
REMARK    4  A    between atoms: C_9  and  O_12 
REMARK    5  A    between atoms: O_12  and  C_13 
ROOT
ATOM      1  N   UNL d   1     -43.163-122.684 -49.465  0.00  0.00    -0.227 NA
ATOM      2  N   UNL d   1     -42.103-122.595 -50.277  0.00  0.00    -0.289 N 
ATOM      3  C   UNL d   1     -42.906-122.372 -50.199  0.00  0.00     0.148 A 
ATOM      4  C   UNL d   1     -41.878-123.025 -49.618  0.00  0.00     0.083 A 
ATOM      5  C   UNL d   1     -42.563-123.083 -49.094  0.00  0.00     0.099 A 
ATOM      6  C   UNL d   1     -43.358-121.930 -50.741  0.00  0.00     0.041 C 
ATOM      7  C   UNL d   1     -41.167-123.368 -49.418  0.00  0.00     0.019 A 
ATOM      8  C   UNL d   1     -42.442-123.506 -48.385  0.00  0.00     0.021 A 
ATOM      9  C   UNL d   1     -41.123-123.764 -48.713  0.00  0.00     0.002 A 
ATOM     10  C   UNL d   1     -41.763-123.818 -48.223  0.00  0.00     0.002 A 
ENDROOT
BRANCH   2  11
ATOM     11  C   UNL d   1     -41.761-122.342 -50.954  0.00  0.00     0.084 C 
BRANCH  11  12
ATOM     12  C   UNL d   1     -41.639-122.836 -51.603  0.00  0.00     0.046 C 
BRANCH  12  13
ATOM     13  C   UNL d   1     -41.481-122.560 -52.357  0.00  0.00     0.124 C 
BRANCH  13  14
ATOM     14  O   UNL d   1     -41.540-123.026 -53.025  0.00  0.00    -0.305 OA
BRANCH  14  15
ATOM     15  C   UNL d   1     -41.623-122.720 -53.786  0.00  0.00     0.100 A 
ATOM     16  C   UNL d   1     -41.123-123.017 -54.389  0.00  0.00     0.025 A 
ATOM     17  C   UNL d   1     -41.188-122.722 -55.171  0.00  0.00     0.002 A 
ATOM     18  C   UNL d   1     -41.753-122.130 -55.350  0.00  0.00     0.000 A 
ATOM     19  C   UNL d   1     -42.253-121.832 -54.747  0.00  0.00     0.002 A 
ATOM     20  C   UNL d   1     -42.171-122.137 -53.987  0.00  0.00     0.025 A 
ENDBRANCH  14  15
ENDBRANCH  13  14
ENDBRANCH  12  13
ENDBRANCH  11  12
ENDBRANCH   2  11
TORSDOF 5
ENDMDL
MODEL 2
REMARK VINA RESULT:      -4.4      1.480      5.011
REMARK  5 active torsions:
REMARK  status: ('A' for Active; 'I' for Inactive)
REMARK    1  A    between atoms: C_6  and  N_2 
REMARK    2  A    between atoms: C_8  and  C_6 
REMARK    3  A    between atoms: C_13  and  C_8 
REMARK    4  A    between atoms: C_9  and  O_12 
REMARK    5  A    between atoms: O_12  and  C_13 
ROOT
ATOM      1  N   UNL d   1     -41.624-123.413 -54.364  0.00  0.00    -0.227 NA
ATOM      2  N   UNL d   1     -41.570-122.454 -53.433  0.00  0.00    -0.289 N 
ATOM      3  C   UNL d   1     -41.418-123.267 -53.565  0.00  0.00     0.148 A 
ATOM      4  C   UNL d   1     -41.857-122.118 -54.122  0.00  0.00     0.083 A 
ATOM      5  C   UNL d   1     -41.891-122.738 -54.723  0.00  0.00     0.099 A 
ATOM      6  C   UNL d   1     -41.123-123.818 -53.015  0.00  0.00     0.041 C 
ATOM      7  C   UNL d   1     -42.088-121.356 -54.291  0.00  0.00     0.019 A 
ATOM      8  C   UNL d   1     -42.173-122.501 -55.472  0.00  0.00     0.021 A 
ATOM      9  C   UNL d   1     -42.351-121.198 -55.041  0.00  0.00     0.002 A 
ATOM     10  C   UNL d   1     -42.383-121.778 -55.603  0.00  0.00     0.002 A 
ENDROOT
BRANCH   2  11
ATOM     11  C   UNL d   1     -41.404-122.210 -52.690  0.00  0.00     0.084 C 
BRANCH  11  12
ATOM     12  C   UNL d   1     -41.966-122.207 -52.086  0.00  0.00     0.046 C 
BRANCH  12  13
ATOM     13  C   UNL d   1     -41.787-122.045 -51.304  0.00  0.00     0.124 C 
BRANCH  13  14
ATOM     14  O   UNL d   1     -42.344-122.049 -50.708  0.00  0.00    -0.305 OA
BRANCH  14  15
ATOM     15  C   UNL d   1     -42.277-122.508 -50.026  0.00  0.00     0.100 A 
ATOM     16  C   UNL d   1     -42.980-122.742 -49.636  0.00  0.00     0.025 A 
ATOM     17  C   UNL d   1     -42.937-123.209 -48.940  0.00  0.00     0.002 A 
ATOM     18  C   UNL d   1     -42.192-123.440 -48.635  0.00  0.00     0.000 A 
ATOM     19  C   UNL d   1     -41.489-123.206 -49.025  0.00  0.00     0.002 A 
ATOM     20  C   UNL d   1     -41.556-122.748 -49.706  0.00  0.00     0.025 A 
ENDBRANCH  14  15
ENDBRANCH  13  14
ENDBRANCH  12  13
ENDBRANCH  11  12
ENDBRANCH   2  11
TORSDOF 5
ENDMDL
