MODEL 1
REMARK VINA RESULT:      -4.4      0.000      0.000
REMARK  7 active torsions:
REMARK  status: ('A' for Active; 'I' for Inactive)
REMARK    1  A    between atoms: C_6  and  N_1 
REMARK    2  A    between atoms: C_9  and  C_5 
REMARK    3  A    between atoms: C_7  and  C_6 
REMARK       I    between atoms: N_10  and  C_7 
REMARK    4  A    between atoms: C_12  and  C_9 
REMARK    5  A    between atoms: C_15  and  N_10 
REMARK    6  A    between atoms: C_14  and  C_12 
REMARK    7  A    between atoms: C_17  and  C_14 
ROOT
ATOM      1  N   UNL d   1     -46.069  12.784  22.996  0.00  0.00    -0.230 N 
ATOM      2  C   UNL d   1     -45.822  12.030  23.192  0.00  0.00     0.299 A 
ATOM      3  C   UNL d   1     -45.510  13.108  22.480  0.00  0.00     0.274 A 
ATOM      4  S   UNL d   1     -45.117  11.889  22.801  0.00  0.00    -0.022 SA
ATOM      5  C   UNL d   1     -44.924  12.551  22.362  0.00  0.00     0.090 A 
ATOM      6  O   UNL d   1     -46.222  11.509  23.698  0.00  0.00    -0.259 OA
ATOM      7  O   UNL d   1     -45.538  13.853  22.146  0.00  0.00    -0.266 OA
ENDROOT
BRANCH   1   8
ATOM      8  C   UNL d   1     -46.755  13.152  23.268  0.00  0.00     0.149 C 
BRANCH   8   9
ATOM      9  C   UNL d   1     -47.477  13.018  22.875  0.00  0.00     0.297 C 
ATOM     10  N   UNL d   1     -48.104  13.546  22.972  0.00  0.00    -0.207 NA
ATOM     11  O   UNL d   1     -47.559  12.350  22.388  0.00  0.00    -0.264 OA
BRANCH  10  12
ATOM     12  C   UNL d   1     -48.819  13.411  22.582  0.00  0.00     0.085 A 
ATOM     13  C   UNL d   1     -49.399  12.930  22.927  0.00  0.00     0.022 A 
ATOM     14  C   UNL d   1     -50.113  12.795  22.538  0.00  0.00     0.044 A 
ATOM     15  C   UNL d   1     -50.251  13.143  21.795  0.00  0.00     0.196 A 
ATOM     16  C   UNL d   1     -49.670  13.626  21.449  0.00  0.00     0.044 A 
ATOM     17  O   UNL d   1     -50.969  13.008  21.404  0.00  0.00    -0.287 OA
ATOM     18  C   UNL d   1     -48.951  13.759  21.846  0.00  0.00     0.022 A 
ENDBRANCH  10  12
ENDBRANCH   8   9
ENDBRANCH   1   8
BRANCH   5  19
ATOM     19  C   UNL d   1     -44.502  13.042  21.856  0.00  0.00     0.011 C 
BRANCH  19  20
ATOM     20  C   UNL d   1     -43.680  12.947  21.781  0.00  0.00     0.001 C 
BRANCH  20  21
ATOM     21  C   UNL d   1     -43.306  13.166  21.081  0.00  0.00     0.000 C 
BRANCH  21  22
ATOM     22  C   UNL d   1     -42.536  13.460  21.097  0.00  0.00     0.000 A 
ATOM     23  C   UNL d   1     -42.388  14.226  20.817  0.00  0.00     0.000 A 
ATOM     24  C   UNL d   1     -41.614  14.527  20.831  0.00  0.00     0.000 A 
ATOM     25  C   UNL d   1     -41.001  14.063  21.122  0.00  0.00     0.000 A 
ATOM     26  C   UNL d   1     -41.159  13.296  21.400  0.00  0.00     0.000 A 
ATOM     27  C   UNL d   1     -41.923  13.005  21.384  0.00  0.00     0.000 A 
ENDBRANCH  21  22
ENDBRANCH  20  21
ENDBRANCH  19  20
ENDBRANCH   5  19
TORSDOF 7
ENDMDL
MODEL 2
REMARK VINA RESULT:      -3.8      4.586      8.173
REMARK  7 active torsions:
REMARK  status: ('A' for Active; 'I' for Inactive)
REMARK    1  A    between atoms: C_6  and  N_1 
REMARK    2  A    between atoms: C_9  and  C_5 
REMARK    3  A    between atoms: C_7  and  C_6 
REMARK       I    between atoms: N_10  and  C_7 
REMARK    4  A    between atoms: C_12  and  C_9 
REMARK    5  A    between atoms: C_15  and  N_10 
REMARK    6  A    between atoms: C_14  and  C_12 
REMARK    7  A    between atoms: C_17  and  C_14 
ROOT
ATOM      1  N   UNL d   1     -39.914  15.100  20.355  0.00  0.00    -0.230 N 
ATOM      2  C   UNL d   1     -39.522  14.725  20.965  0.00  0.00     0.299 A 
ATOM      3  C   UNL d   1     -40.689  14.812  20.336  0.00  0.00     0.274 A 
ATOM      4  S   UNL d   1     -40.050  14.210  21.321  0.00  0.00    -0.022 SA
ATOM      5  C   UNL d   1     -40.768  14.262  20.934  0.00  0.00     0.090 A 
ATOM      6  O   UNL d   1     -38.731  14.850  21.179  0.00  0.00    -0.259 OA
ATOM      7  O   UNL d   1     -41.273  15.037  19.811  0.00  0.00    -0.266 OA
ENDROOT
BRANCH   1   8
ATOM      8  C   UNL d   1     -39.590  15.665  19.850  0.00  0.00     0.149 C 
BRANCH   8   9
ATOM      9  C   UNL d   1     -39.247  15.425  19.129  0.00  0.00     0.297 C 
ATOM     10  N   UNL d   1     -39.391  15.855  18.440  0.00  0.00    -0.207 NA
ATOM     11  O   UNL d   1     -38.761  14.751  19.113  0.00  0.00    -0.264 OA
BRANCH  10  12
ATOM     12  C   UNL d   1     -39.050  15.615  17.727  0.00  0.00     0.085 A 
ATOM     13  C   UNL d   1     -38.281  15.854  17.531  0.00  0.00     0.022 A 
ATOM     14  C   UNL d   1     -37.940  15.615  16.819  0.00  0.00     0.044 A 
ATOM     15  C   UNL d   1     -38.371  15.132  16.297  0.00  0.00     0.196 A 
ATOM     16  C   UNL d   1     -39.142  14.892  16.494  0.00  0.00     0.044 A 
ATOM     17  O   UNL d   1     -38.029  14.891  15.581  0.00  0.00    -0.287 OA
ATOM     18  C   UNL d   1     -39.481  15.136  17.213  0.00  0.00     0.022 A 
ENDBRANCH  10  12
ENDBRANCH   8   9
ENDBRANCH   1   8
BRANCH   5  19
ATOM     19  C   UNL d   1     -41.555  14.113  20.750  0.00  0.00     0.011 C 
BRANCH  19  20
ATOM     20  C   UNL d   1     -42.002  13.606  21.233  0.00  0.00     0.001 C 
BRANCH  20  21
ATOM     21  C   UNL d   1     -42.606  13.154  20.902  0.00  0.00     0.000 C 
BRANCH  21  22
ATOM     22  C   UNL d   1     -43.214  12.864  21.377  0.00  0.00     0.000 A 
ATOM     23  C   UNL d   1     -43.954  13.238  21.363  0.00  0.00     0.000 A 
ATOM     24  C   UNL d   1     -44.569  12.950  21.839  0.00  0.00     0.000 A 
ATOM     25  C   UNL d   1     -44.442  12.297  22.321  0.00  0.00     0.000 A 
ATOM     26  C   UNL d   1     -43.697  11.928  22.329  0.00  0.00     0.000 A 
ATOM     27  C   UNL d   1     -43.094  12.216  21.857  0.00  0.00     0.000 A 
ENDBRANCH  21  22
ENDBRANCH  20  21
ENDBRANCH  19  20
ENDBRANCH   5  19
TORSDOF 7
ENDMDL
MODEL 3
REMARK VINA RESULT:      -3.7      2.098      6.347
REMARK  7 active torsions:
REMARK  status: ('A' for Active; 'I' for Inactive)
REMARK    1  A    between atoms: C_6  and  N_1 
REMARK    2  A    between atoms: C_9  and  C_5 
REMARK    3  A    between atoms: C_7  and  C_6 
REMARK       I    between atoms: N_10  and  C_7 
REMARK    4  A    between atoms: C_12  and  C_9 
REMARK    5  A    between atoms: C_15  and  N_10 
REMARK    6  A    between atoms: C_14  and  C_12 
REMARK    7  A    between atoms: C_17  and  C_14 
ROOT
ATOM      1  N   UNL d   1     -43.563  12.654  21.584  0.00  0.00    -0.230 N 
ATOM      2  C   UNL d   1     -43.577  12.040  22.122  0.00  0.00     0.299 A 
ATOM      3  C   UNL d   1     -44.256  13.095  21.683  0.00  0.00     0.274 A 
ATOM      4  S   UNL d   1     -44.272  12.099  22.550  0.00  0.00    -0.022 SA
ATOM      5  C   UNL d   1     -44.690  12.748  22.282  0.00  0.00     0.090 A 
ATOM      6  O   UNL d   1     -42.988  11.463  22.210  0.00  0.00    -0.259 OA
ATOM      7  O   UNL d   1     -44.469  13.759  21.259  0.00  0.00    -0.266 OA
ENDROOT
BRANCH   1   8
ATOM      8  C   UNL d   1     -42.962  12.804  21.040  0.00  0.00     0.149 C 
BRANCH   8   9
ATOM      9  C   UNL d   1     -42.344  13.325  21.242  0.00  0.00     0.297 C 
ATOM     10  N   UNL d   1     -41.946  13.742  20.651  0.00  0.00    -0.207 NA
ATOM     11  O   UNL d   1     -42.134  13.419  22.040  0.00  0.00    -0.264 OA
BRANCH  10  12
ATOM     12  C   UNL d   1     -41.334  14.257  20.854  0.00  0.00     0.085 A 
ATOM     13  C   UNL d   1     -40.588  13.960  21.057  0.00  0.00     0.022 A 
ATOM     14  C   UNL d   1     -39.976  14.475  21.259  0.00  0.00     0.044 A 
ATOM     15  C   UNL d   1     -40.110  15.296  21.260  0.00  0.00     0.196 A 
ATOM     16  C   UNL d   1     -40.859  15.594  21.056  0.00  0.00     0.044 A 
ATOM     17  O   UNL d   1     -39.496  15.814  21.463  0.00  0.00    -0.287 OA
ATOM     18  C   UNL d   1     -41.472  15.070  20.853  0.00  0.00     0.022 A 
ENDBRANCH  10  12
ENDBRANCH   8   9
ENDBRANCH   1   8
BRANCH   5  19
ATOM     19  C   UNL d   1     -45.294  13.303  22.221  0.00  0.00     0.011 C 
BRANCH  19  20
ATOM     20  C   UNL d   1     -46.037  13.141  22.556  0.00  0.00     0.001 C 
BRANCH  20  21
ATOM     21  C   UNL d   1     -46.457  13.745  22.927  0.00  0.00     0.000 C 
BRANCH  21  22
ATOM     22  C   UNL d   1     -47.281  13.752  22.900  0.00  0.00     0.000 A 
ATOM     23  C   UNL d   1     -47.700  13.068  23.112  0.00  0.00     0.000 A 
ATOM     24  C   UNL d   1     -48.529  13.069  23.087  0.00  0.00     0.000 A 
ATOM     25  C   UNL d   1     -48.930  13.748  22.854  0.00  0.00     0.000 A 
ATOM     26  C   UNL d   1     -48.502  14.429  22.643  0.00  0.00     0.000 A 
ATOM     27  C   UNL d   1     -47.685  14.421  22.670  0.00  0.00     0.000 A 
ENDBRANCH  21  22
ENDBRANCH  20  21
ENDBRANCH  19  20
ENDBRANCH   5  19
TORSDOF 7
ENDMDL
MODEL 4
REMARK VINA RESULT:      -2.9      1.794      5.821
REMARK  7 active torsions:
REMARK  status: ('A' for Active; 'I' for Inactive)
REMARK    1  A    between atoms: C_6  and  N_1 
REMARK    2  A    between atoms: C_9  and  C_5 
REMARK    3  A    between atoms: C_7  and  C_6 
REMARK       I    between atoms: N_10  and  C_7 
REMARK    4  A    between atoms: C_12  and  C_9 
REMARK    5  A    between atoms: C_15  and  N_10 
REMARK    6  A    between atoms: C_14  and  C_12 
REMARK    7  A    between atoms: C_17  and  C_14 
ROOT
ATOM      1  N   UNL d   1     -46.953  11.782  23.420  0.00  0.00    -0.230 N 
ATOM      2  C   UNL d   1     -47.565  11.268  23.254  0.00  0.00     0.299 A 
ATOM      3  C   UNL d   1     -47.276  12.537  23.523  0.00  0.00     0.274 A 
ATOM      4  S   UNL d   1     -48.261  11.699  23.254  0.00  0.00    -0.022 SA
ATOM      5  C   UNL d   1     -48.084  12.480  23.420  0.00  0.00     0.090 A 
ATOM      6  O   UNL d   1     -47.486  10.455  23.112  0.00  0.00    -0.259 OA
ATOM      7  O   UNL d   1     -46.861  13.218  23.698  0.00  0.00    -0.266 OA
ENDROOT
BRANCH   1   8
ATOM      8  C   UNL d   1     -46.156  11.581  23.474  0.00  0.00     0.149 C 
BRANCH   8   9
ATOM      9  C   UNL d   1     -45.626  11.835  22.884  0.00  0.00     0.297 C 
ATOM     10  N   UNL d   1     -44.819  11.893  23.051  0.00  0.00    -0.207 NA
ATOM     11  O   UNL d   1     -45.916  12.027  22.130  0.00  0.00    -0.264 OA
BRANCH  10  12
ATOM     12  C   UNL d   1     -44.296  12.145  22.464  0.00  0.00     0.085 A 
ATOM     13  C   UNL d   1     -44.482  12.800  21.991  0.00  0.00     0.022 A 
ATOM     14  C   UNL d   1     -43.959  13.052  21.406  0.00  0.00     0.044 A 
ATOM     15  C   UNL d   1     -43.242  12.646  21.289  0.00  0.00     0.196 A 
ATOM     16  C   UNL d   1     -43.055  11.989  21.764  0.00  0.00     0.044 A 
ATOM     17  O   UNL d   1     -42.717  12.899  20.701  0.00  0.00    -0.287 OA
ATOM     18  C   UNL d   1     -43.586  11.740  22.353  0.00  0.00     0.022 A 
ENDBRANCH  10  12
ENDBRANCH   8   9
ENDBRANCH   1   8
BRANCH   5  19
ATOM     19  C   UNL d   1     -48.200  13.282  23.556  0.00  0.00     0.011 C 
BRANCH  19  20
ATOM     20  C   UNL d   1     -48.910  13.643  23.318  0.00  0.00     0.001 C 
BRANCH  20  21
ATOM     21  C   UNL d   1     -48.946  14.462  23.244  0.00  0.00     0.000 C 
BRANCH  21  22
ATOM     22  C   UNL d   1     -49.652  14.826  23.022  0.00  0.00     0.000 A 
ATOM     23  C   UNL d   1     -49.994  14.637  22.290  0.00  0.00     0.000 A 
ATOM     24  C   UNL d   1     -50.704  15.001  22.062  0.00  0.00     0.000 A 
ATOM     25  C   UNL d   1     -51.063  15.545  22.562  0.00  0.00     0.000 A 
ATOM     26  C   UNL d   1     -50.713  15.729  23.293  0.00  0.00     0.000 A 
ATOM     27  C   UNL d   1     -50.013  15.367  23.513  0.00  0.00     0.000 A 
ENDBRANCH  21  22
ENDBRANCH  20  21
ENDBRANCH  19  20
ENDBRANCH   5  19
TORSDOF 7
ENDMDL
MODEL 5
REMARK VINA RESULT:      -2.5      3.936      6.125
REMARK  7 active torsions:
REMARK  status: ('A' for Active; 'I' for Inactive)
REMARK    1  A    between atoms: C_6  and  N_1 
REMARK    2  A    between atoms: C_9  and  C_5 
REMARK    3  A    between atoms: C_7  and  C_6 
REMARK       I    between atoms: N_10  and  C_7 
REMARK    4  A    between atoms: C_12  and  C_9 
REMARK    5  A    between atoms: C_15  and  N_10 
REMARK    6  A    between atoms: C_14  and  C_12 
REMARK    7  A    between atoms: C_17  and  C_14 
ROOT
ATOM      1  N   UNL d   1     -40.742  14.403  20.307  0.00  0.00    -0.230 N 
ATOM      2  C   UNL d   1     -40.633  15.192  20.486  0.00  0.00     0.299 A 
ATOM      3  C   UNL d   1     -40.649  14.313  19.490  0.00  0.00     0.274 A 
ATOM      4  S   UNL d   1     -40.475  15.587  19.788  0.00  0.00    -0.022 SA
ATOM      5  C   UNL d   1     -40.484  15.048  19.174  0.00  0.00     0.090 A 
ATOM      6  O   UNL d   1     -40.678  15.524  21.245  0.00  0.00    -0.259 OA
ATOM      7  O   UNL d   1     -40.712  13.614  19.073  0.00  0.00    -0.266 OA
ENDROOT
BRANCH   1   8
ATOM      8  C   UNL d   1     -40.914  13.805  20.848  0.00  0.00     0.149 C 
BRANCH   8   9
ATOM      9  C   UNL d   1     -41.696  13.705  21.117  0.00  0.00     0.297 C 
ATOM     10  N   UNL d   1     -42.035  12.952  21.130  0.00  0.00    -0.207 NA
ATOM     11  O   UNL d   1     -42.129  14.367  21.369  0.00  0.00    -0.264 OA
BRANCH  10  12
ATOM     12  C   UNL d   1     -42.810  12.855  21.396  0.00  0.00     0.085 A 
ATOM     13  C   UNL d   1     -42.975  12.339  22.023  0.00  0.00     0.022 A 
ATOM     14  C   UNL d   1     -43.749  12.242  22.289  0.00  0.00     0.044 A 
ATOM     15  C   UNL d   1     -44.367  12.665  21.927  0.00  0.00     0.196 A 
ATOM     16  C   UNL d   1     -44.202  13.184  21.298  0.00  0.00     0.044 A 
ATOM     17  O   UNL d   1     -45.145  12.568  22.194  0.00  0.00    -0.287 OA
ATOM     18  C   UNL d   1     -43.419  13.277  21.034  0.00  0.00     0.022 A 
ENDBRANCH  10  12
ENDBRANCH   8   9
ENDBRANCH   1   8
BRANCH   5  19
ATOM     19  C   UNL d   1     -40.433  14.752  18.408  0.00  0.00     0.011 C 
BRANCH  19  20
ATOM     20  C   UNL d   1     -39.923  15.114  17.860  0.00  0.00     0.001 C 
BRANCH  20  21
ATOM     21  C   UNL d   1     -39.941  14.881  17.071  0.00  0.00     0.000 C 
BRANCH  21  22
ATOM     22  C   UNL d   1     -39.292  15.021  16.583  0.00  0.00     0.000 A 
ATOM     23  C   UNL d   1     -38.847  14.379  16.306  0.00  0.00     0.000 A 
ATOM     24  C   UNL d   1     -38.192  14.514  15.814  0.00  0.00     0.000 A 
ATOM     25  C   UNL d   1     -37.990  15.283  15.606  0.00  0.00     0.000 A 
ATOM     26  C   UNL d   1     -38.441  15.921  15.889  0.00  0.00     0.000 A 
ATOM     27  C   UNL d   1     -39.086  15.781  16.373  0.00  0.00     0.000 A 
ENDBRANCH  21  22
ENDBRANCH  20  21
ENDBRANCH  19  20
ENDBRANCH   5  19
TORSDOF 7
ENDMDL
MODEL 6
REMARK VINA RESULT:      -2.0      1.955      3.194
REMARK  7 active torsions:
REMARK  status: ('A' for Active; 'I' for Inactive)
REMARK    1  A    between atoms: C_6  and  N_1 
REMARK    2  A    between atoms: C_9  and  C_5 
REMARK    3  A    between atoms: C_7  and  C_6 
REMARK       I    between atoms: N_10  and  C_7 
REMARK    4  A    between atoms: C_12  and  C_9 
REMARK    5  A    between atoms: C_15  and  N_10 
REMARK    6  A    between atoms: C_14  and  C_12 
REMARK    7  A    between atoms: C_17  and  C_14 
ROOT
ATOM      1  N   UNL d   1     -43.289  12.795  21.392  0.00  0.00    -0.230 N 
ATOM      2  C   UNL d   1     -42.827  12.332  21.881  0.00  0.00     0.299 A 
ATOM      3  C   UNL d   1     -42.815  13.403  21.095  0.00  0.00     0.274 A 
ATOM      4  S   UNL d   1     -42.073  12.650  21.887  0.00  0.00    -0.022 SA
ATOM      5  C   UNL d   1     -42.064  13.310  21.403  0.00  0.00     0.090 A 
ATOM      6  O   UNL d   1     -43.085  11.661  22.294  0.00  0.00    -0.259 OA
ATOM      7  O   UNL d   1     -43.054  13.993  20.583  0.00  0.00    -0.266 OA
ENDROOT
BRANCH   1   8
ATOM      8  C   UNL d   1     -44.088  12.673  21.228  0.00  0.00     0.149 C 
BRANCH   8   9
ATOM      9  C   UNL d   1     -44.667  12.996  21.733  0.00  0.00     0.297 C 
ATOM     10  N   UNL d   1     -45.447  12.729  21.691  0.00  0.00    -0.207 NA
ATOM     11  O   UNL d   1     -44.451  13.586  22.276  0.00  0.00    -0.264 OA
BRANCH  10  12
ATOM     12  C   UNL d   1     -46.018  13.051  22.192  0.00  0.00     0.085 A 
ATOM     13  C   UNL d   1     -46.306  12.612  22.834  0.00  0.00     0.022 A 
ATOM     14  C   UNL d   1     -46.876  12.933  23.334  0.00  0.00     0.044 A 
ATOM     15  C   UNL d   1     -47.165  13.700  23.194  0.00  0.00     0.196 A 
ATOM     16  C   UNL d   1     -46.877  14.141  22.550  0.00  0.00     0.044 A 
ATOM     17  O   UNL d   1     -47.739  14.023  23.697  0.00  0.00    -0.287 OA
ATOM     18  C   UNL d   1     -46.301  13.812  22.049  0.00  0.00     0.022 A 
ENDBRANCH  10  12
ENDBRANCH   8   9
ENDBRANCH   1   8
BRANCH   5  19
ATOM     19  C   UNL d   1     -41.775  13.970  21.008  0.00  0.00     0.011 C 
BRANCH  19  20
ATOM     20  C   UNL d   1     -40.988  14.208  21.126  0.00  0.00     0.001 C 
BRANCH  20  21
ATOM     21  C   UNL d   1     -40.671  14.811  20.664  0.00  0.00     0.000 C 
BRANCH  21  22
ATOM     22  C   UNL d   1     -39.891  15.053  20.777  0.00  0.00     0.000 A 
ATOM     23  C   UNL d   1     -39.328  14.895  20.189  0.00  0.00     0.000 A 
ATOM     24  C   UNL d   1     -38.541  15.136  20.297  0.00  0.00     0.000 A 
ATOM     25  C   UNL d   1     -38.326  15.529  20.986  0.00  0.00     0.000 A 
ATOM     26  C   UNL d   1     -38.897  15.684  21.570  0.00  0.00     0.000 A 
ATOM     27  C   UNL d   1     -39.671  15.444  21.457  0.00  0.00     0.000 A 
ENDBRANCH  21  22
ENDBRANCH  20  21
ENDBRANCH  19  20
ENDBRANCH   5  19
TORSDOF 7
ENDMDL
