MODEL 1
REMARK VINA RESULT:      -8.9      0.000      0.000
REMARK  3 active torsions:
REMARK  status: ('A' for Active; 'I' for Inactive)
REMARK    1  A    between atoms: C_5  and  C_1 
REMARK    2  A    between atoms: N_8  and  C_5 
REMARK    3  A    between atoms: C_10  and  C_5 
ROOT
ATOM      1  C   UNL d   1      53.226  32.546  53.544  0.00  0.00     0.085 C 
ENDROOT
BRANCH   1   2
ATOM      2  C   UNL d   1      52.642  33.040  53.219  0.00  0.00     0.059 A 
ATOM      3  C   UNL d   1      51.890  33.053  53.563  0.00  0.00     0.214 A 
ATOM      4  C   UNL d   1      51.315  33.543  53.238  0.00  0.00     0.121 A 
ATOM      5  O   UNL d   1      51.723  32.588  54.213  0.00  0.00    -0.285 OA
ATOM      6  N   UNL d   1      50.563  33.557  53.581  0.00  0.00    -0.241 NA
ATOM      7  C   UNL d   1      51.484  34.013  52.581  0.00  0.00     0.032 A 
ATOM      8  C   UNL d   1      49.983  34.048  53.256  0.00  0.00     0.099 A 
ATOM      9  C   UNL d   1      50.142  34.525  52.596  0.00  0.00     0.021 A 
ATOM     10  C   UNL d   1      50.903  34.503  52.259  0.00  0.00     0.004 A 
ATOM     11  C   UNL d   1      52.231  33.999  52.241  0.00  0.00     0.059 A 
ATOM     12  C   UNL d   1      52.816  33.508  52.563  0.00  0.00     0.016 A 
ATOM     13 CL   UNL d   1      52.399  34.467  51.587  0.00  0.00    -0.082 Cl
ENDBRANCH   1   2
BRANCH   1  14
ATOM     14  N   UNL d   1      53.818  32.860  54.012  0.00  0.00    -0.302 N 
ATOM     15  C   UNL d   1      53.680  33.013  54.817  0.00  0.00     0.080 A 
ATOM     16  C   UNL d   1      54.281  33.331  55.292  0.00  0.00     0.019 A 
ATOM     17  C   UNL d   1      55.013  33.492  54.956  0.00  0.00     0.003 A 
ATOM     18  C   UNL d   1      55.153  33.342  54.159  0.00  0.00     0.019 A 
ATOM     19  C   UNL d   1      54.561  33.028  53.692  0.00  0.00     0.080 A 
ENDBRANCH   1  14
BRANCH   1  20
ATOM     20  C   UNL d   1      53.200  31.735  53.388  0.00  0.00     0.098 A 
ATOM     21  N   UNL d   1      53.253  31.463  52.608  0.00  0.00    -0.243 NA
ATOM     22  C   UNL d   1      53.228  30.666  52.448  0.00  0.00     0.099 A 
ATOM     23  C   UNL d   1      53.148  30.120  53.067  0.00  0.00     0.021 A 
ATOM     24  C   UNL d   1      53.095  30.386  53.847  0.00  0.00     0.003 A 
ATOM     25  C   UNL d   1      53.121  31.192  54.004  0.00  0.00     0.021 A 
ENDBRANCH   1  20
TORSDOF 3
ENDMDL
MODEL 2
REMARK VINA RESULT:      -8.8      1.076      3.168
REMARK  3 active torsions:
REMARK  status: ('A' for Active; 'I' for Inactive)
REMARK    1  A    between atoms: C_5  and  C_1 
REMARK    2  A    between atoms: N_8  and  C_5 
REMARK    3  A    between atoms: C_10  and  C_5 
ROOT
ATOM      1  C   UNL d   1      52.798  32.429  53.251  0.00  0.00     0.085 C 
ENDROOT
BRANCH   1   2
ATOM      2  C   UNL d   1      53.488  32.738  53.596  0.00  0.00     0.059 A 
ATOM      3  C   UNL d   1      53.477  32.951  54.395  0.00  0.00     0.214 A 
ATOM      4  C   UNL d   1      54.162  33.257  54.733  0.00  0.00     0.121 A 
ATOM      5  O   UNL d   1      52.798  32.858  54.840  0.00  0.00    -0.285 OA
ATOM      6  N   UNL d   1      54.152  33.470  55.532  0.00  0.00    -0.241 NA
ATOM      7  C   UNL d   1      54.848  33.351  54.284  0.00  0.00     0.032 A 
ATOM      8  C   UNL d   1      54.839  33.777  55.873  0.00  0.00     0.099 A 
ATOM      9  C   UNL d   1      55.533  33.876  55.431  0.00  0.00     0.021 A 
ATOM     10  C   UNL d   1      55.532  33.658  54.627  0.00  0.00     0.004 A 
ATOM     11  C   UNL d   1      54.857  33.139  53.490  0.00  0.00     0.059 A 
ATOM     12  C   UNL d   1      54.171  32.830  53.143  0.00  0.00     0.016 A 
ATOM     13 CL   UNL d   1      55.539  33.233  53.043  0.00  0.00    -0.082 Cl
ENDBRANCH   1   2
BRANCH   1  14
ATOM     14  N   UNL d   1      52.190  32.926  53.026  0.00  0.00    -0.302 N 
ATOM     15  C   UNL d   1      52.279  33.427  52.369  0.00  0.00     0.080 A 
ATOM     16  C   UNL d   1      51.662  33.932  52.141  0.00  0.00     0.019 A 
ATOM     17  C   UNL d   1      50.963  33.929  52.572  0.00  0.00     0.003 A 
ATOM     18  C   UNL d   1      50.872  33.434  53.223  0.00  0.00     0.019 A 
ATOM     19  C   UNL d   1      51.479  32.937  53.447  0.00  0.00     0.080 A 
ENDBRANCH   1  14
BRANCH   1  20
ATOM     20  C   UNL d   1      52.737  31.612  53.139  0.00  0.00     0.098 A 
ATOM     21  N   UNL d   1      52.965  31.276  52.418  0.00  0.00    -0.243 NA
ATOM     22  C   UNL d   1      52.907  30.473  52.301  0.00  0.00     0.099 A 
ATOM     23  C   UNL d   1      52.617  29.985  52.906  0.00  0.00     0.021 A 
ATOM     24  C   UNL d   1      52.388  30.316  53.628  0.00  0.00     0.003 A 
ATOM     25  C   UNL d   1      52.449  31.127  53.741  0.00  0.00     0.021 A 
ENDBRANCH   1  20
TORSDOF 3
ENDMDL
MODEL 3
REMARK VINA RESULT:      -8.8      0.353      2.181
REMARK  3 active torsions:
REMARK  status: ('A' for Active; 'I' for Inactive)
REMARK    1  A    between atoms: C_5  and  C_1 
REMARK    2  A    between atoms: N_8  and  C_5 
REMARK    3  A    between atoms: C_10  and  C_5 
ROOT
ATOM      1  C   UNL d   1      53.278  32.520  53.632  0.00  0.00     0.085 C 
ENDROOT
BRANCH   1   2
ATOM      2  C   UNL d   1      52.707  33.015  53.287  0.00  0.00     0.059 A 
ATOM      3  C   UNL d   1      51.939  33.017  53.593  0.00  0.00     0.214 A 
ATOM      4  C   UNL d   1      51.376  33.509  53.249  0.00  0.00     0.121 A 
ATOM      5  O   UNL d   1      51.744  32.539  54.226  0.00  0.00    -0.285 OA
ATOM      6  N   UNL d   1      50.608  33.510  53.555  0.00  0.00    -0.241 NA
ATOM      7  C   UNL d   1      51.573  33.992  52.610  0.00  0.00     0.032 A 
ATOM      8  C   UNL d   1      50.041  34.004  53.211  0.00  0.00     0.099 A 
ATOM      9  C   UNL d   1      50.228  34.493  52.568  0.00  0.00     0.021 A 
ATOM     10  C   UNL d   1      51.005  34.483  52.269  0.00  0.00     0.004 A 
ATOM     11  C   UNL d   1      52.336  33.989  52.307  0.00  0.00     0.059 A 
ATOM     12  C   UNL d   1      52.909  33.496  52.648  0.00  0.00     0.016 A 
ATOM     13 CL   UNL d   1      52.533  34.470  51.671  0.00  0.00    -0.082 Cl
ENDBRANCH   1   2
BRANCH   1  14
ATOM     14  N   UNL d   1      53.268  31.716  53.489  0.00  0.00    -0.302 N 
ATOM     15  C   UNL d   1      53.130  31.181  54.109  0.00  0.00     0.080 A 
ATOM     16  C   UNL d   1      53.119  30.364  53.965  0.00  0.00     0.019 A 
ATOM     17  C   UNL d   1      53.247  30.092  53.201  0.00  0.00     0.003 A 
ATOM     18  C   UNL d   1      53.385  30.619  52.584  0.00  0.00     0.019 A 
ATOM     19  C   UNL d   1      53.395  31.423  52.726  0.00  0.00     0.080 A 
ENDBRANCH   1  14
BRANCH   1  20
ATOM     20  C   UNL d   1      53.856  32.852  54.120  0.00  0.00     0.098 A 
ATOM     21  N   UNL d   1      53.694  32.984  54.921  0.00  0.00    -0.243 NA
ATOM     22  C   UNL d   1      54.260  33.311  55.406  0.00  0.00     0.099 A 
ATOM     23  C   UNL d   1      55.003  33.515  55.101  0.00  0.00     0.021 A 
ATOM     24  C   UNL d   1      55.169  33.385  54.302  0.00  0.00     0.003 A 
ATOM     25  C   UNL d   1      54.596  33.055  53.816  0.00  0.00     0.021 A 
ENDBRANCH   1  20
TORSDOF 3
ENDMDL
MODEL 4
REMARK VINA RESULT:      -8.6      1.130      3.463
REMARK  3 active torsions:
REMARK  status: ('A' for Active; 'I' for Inactive)
REMARK    1  A    between atoms: C_5  and  C_1 
REMARK    2  A    between atoms: N_8  and  C_5 
REMARK    3  A    between atoms: C_10  and  C_5 
ROOT
ATOM      1  C   UNL d   1      52.836  32.348  53.279  0.00  0.00     0.085 C 
ENDROOT
BRANCH   1   2
ATOM      2  C   UNL d   1      53.521  32.680  53.613  0.00  0.00     0.059 A 
ATOM      3  C   UNL d   1      53.512  32.904  54.409  0.00  0.00     0.214 A 
ATOM      4  C   UNL d   1      54.192  33.232  54.736  0.00  0.00     0.121 A 
ATOM      5  O   UNL d   1      52.840  32.800  54.861  0.00  0.00    -0.285 OA
ATOM      6  N   UNL d   1      54.183  33.456  55.532  0.00  0.00    -0.241 NA
ATOM      7  C   UNL d   1      54.871  33.336  54.279  0.00  0.00     0.032 A 
ATOM      8  C   UNL d   1      54.865  33.786  55.862  0.00  0.00     0.099 A 
ATOM      9  C   UNL d   1      55.553  33.895  55.412  0.00  0.00     0.021 A 
ATOM     10  C   UNL d   1      55.550  33.666  54.611  0.00  0.00     0.004 A 
ATOM     11  C   UNL d   1      54.878  33.114  53.488  0.00  0.00     0.059 A 
ATOM     12  C   UNL d   1      54.197  32.782  53.152  0.00  0.00     0.016 A 
ATOM     13 CL   UNL d   1      55.554  33.218  53.034  0.00  0.00    -0.082 Cl
ENDBRANCH   1   2
BRANCH   1  14
ATOM     14  N   UNL d   1      52.769  31.538  53.195  0.00  0.00    -0.302 N 
ATOM     15  C   UNL d   1      52.468  31.075  53.815  0.00  0.00     0.080 A 
ATOM     16  C   UNL d   1      52.400  30.253  53.730  0.00  0.00     0.019 A 
ATOM     17  C   UNL d   1      52.633  29.904  53.024  0.00  0.00     0.003 A 
ATOM     18  C   UNL d   1      52.931  30.360  52.408  0.00  0.00     0.019 A 
ATOM     19  C   UNL d   1      52.999  31.168  52.492  0.00  0.00     0.080 A 
ENDBRANCH   1  14
BRANCH   1  20
ATOM     20  C   UNL d   1      52.226  32.848  53.033  0.00  0.00     0.098 A 
ATOM     21  N   UNL d   1      52.319  33.310  52.353  0.00  0.00    -0.243 NA
ATOM     22  C   UNL d   1      51.721  33.804  52.107  0.00  0.00     0.099 A 
ATOM     23  C   UNL d   1      51.014  33.848  52.536  0.00  0.00     0.021 A 
ATOM     24  C   UNL d   1      50.916  33.388  53.216  0.00  0.00     0.003 A 
ATOM     25  C   UNL d   1      51.521  32.891  53.461  0.00  0.00     0.021 A 
ENDBRANCH   1  20
TORSDOF 3
ENDMDL
MODEL 5
REMARK VINA RESULT:      -8.4      1.304      3.343
REMARK  3 active torsions:
REMARK  status: ('A' for Active; 'I' for Inactive)
REMARK    1  A    between atoms: C_5  and  C_1 
REMARK    2  A    between atoms: N_8  and  C_5 
REMARK    3  A    between atoms: C_10  and  C_5 
ROOT
ATOM      1  C   UNL d   1      53.396  32.620  53.692  0.00  0.00     0.085 C 
ENDROOT
BRANCH   1   2
ATOM      2  C   UNL d   1      53.337  31.792  53.641  0.00  0.00     0.059 A 
ATOM      3  C   UNL d   1      53.320  31.346  54.336  0.00  0.00     0.214 A 
ATOM      4  C   UNL d   1      53.261  30.527  54.281  0.00  0.00     0.121 A 
ATOM      5  O   UNL d   1      53.360  31.713  55.065  0.00  0.00    -0.285 OA
ATOM      6  N   UNL d   1      53.243  30.081  54.977  0.00  0.00    -0.241 NA
ATOM      7  C   UNL d   1      53.220  30.157  53.545  0.00  0.00     0.032 A 
ATOM      8  C   UNL d   1      53.184  29.259  54.923  0.00  0.00     0.099 A 
ATOM      9  C   UNL d   1      53.143  28.876  54.189  0.00  0.00     0.021 A 
ATOM     10  C   UNL d   1      53.162  29.336  53.495  0.00  0.00     0.004 A 
ATOM     11  C   UNL d   1      53.238  30.601  52.854  0.00  0.00     0.059 A 
ATOM     12  C   UNL d   1      53.297  31.427  52.902  0.00  0.00     0.016 A 
ATOM     13 CL   UNL d   1      53.198  30.233  52.122  0.00  0.00    -0.082 Cl
ENDBRANCH   1   2
BRANCH   1  14
ATOM     14  N   UNL d   1      54.092  32.969  53.940  0.00  0.00    -0.302 N 
ATOM     15  C   UNL d   1      54.148  33.301  54.700  0.00  0.00     0.080 A 
ATOM     16  C   UNL d   1      54.854  33.655  54.951  0.00  0.00     0.019 A 
ATOM     17  C   UNL d   1      55.496  33.675  54.440  0.00  0.00     0.003 A 
ATOM     18  C   UNL d   1      55.444  33.347  53.686  0.00  0.00     0.019 A 
ATOM     19  C   UNL d   1      54.749  32.998  53.439  0.00  0.00     0.080 A 
ENDBRANCH   1  14
BRANCH   1  20
ATOM     20  C   UNL d   1      52.743  33.083  53.489  0.00  0.00     0.098 A 
ATOM     21  N   UNL d   1      52.167  33.256  54.058  0.00  0.00    -0.243 NA
ATOM     22  C   UNL d   1      51.521  33.711  53.864  0.00  0.00     0.099 A 
ATOM     23  C   UNL d   1      51.436  34.005  53.094  0.00  0.00     0.021 A 
ATOM     24  C   UNL d   1      52.008  33.836  52.522  0.00  0.00     0.003 A 
ATOM     25  C   UNL d   1      52.658  33.376  52.722  0.00  0.00     0.021 A 
ENDBRANCH   1  20
TORSDOF 3
ENDMDL
MODEL 6
REMARK VINA RESULT:      -8.2      1.311      3.644
REMARK  3 active torsions:
REMARK  status: ('A' for Active; 'I' for Inactive)
REMARK    1  A    between atoms: C_5  and  C_1 
REMARK    2  A    between atoms: N_8  and  C_5 
REMARK    3  A    between atoms: C_10  and  C_5 
ROOT
ATOM      1  C   UNL d   1      53.411  32.642  53.657  0.00  0.00     0.085 C 
ENDROOT
BRANCH   1   2
ATOM      2  C   UNL d   1      53.350  31.814  53.624  0.00  0.00     0.059 A 
ATOM      3  C   UNL d   1      53.330  31.385  54.331  0.00  0.00     0.214 A 
ATOM      4  C   UNL d   1      53.269  30.565  54.294  0.00  0.00     0.121 A 
ATOM      5  O   UNL d   1      53.370  31.768  55.051  0.00  0.00    -0.285 OA
ATOM      6  N   UNL d   1      53.250  30.135  55.000  0.00  0.00    -0.241 NA
ATOM      7  C   UNL d   1      53.229  30.177  53.567  0.00  0.00     0.032 A 
ATOM      8  C   UNL d   1      53.188  29.312  54.966  0.00  0.00     0.099 A 
ATOM      9  C   UNL d   1      53.147  28.912  54.241  0.00  0.00     0.021 A 
ATOM     10  C   UNL d   1      53.168  29.356  53.536  0.00  0.00     0.004 A 
ATOM     11  C   UNL d   1      53.248  30.605  52.866  0.00  0.00     0.059 A 
ATOM     12  C   UNL d   1      53.309  31.431  52.895  0.00  0.00     0.016 A 
ATOM     13 CL   UNL d   1      53.208  30.220  52.142  0.00  0.00    -0.082 Cl
ENDBRANCH   1   2
BRANCH   1  14
ATOM     14  N   UNL d   1      52.770  33.112  53.466  0.00  0.00    -0.302 N 
ATOM     15  C   UNL d   1      52.661  33.375  52.685  0.00  0.00     0.080 A 
ATOM     16  C   UNL d   1      52.010  33.852  52.492  0.00  0.00     0.019 A 
ATOM     17  C   UNL d   1      51.477  34.059  53.080  0.00  0.00     0.003 A 
ATOM     18  C   UNL d   1      51.583  33.799  53.854  0.00  0.00     0.019 A 
ATOM     19  C   UNL d   1      52.223  33.330  54.045  0.00  0.00     0.080 A 
ENDBRANCH   1  14
BRANCH   1  20
ATOM     20  C   UNL d   1      54.129  32.984  53.884  0.00  0.00     0.098 A 
ATOM     21  N   UNL d   1      54.765  32.998  53.355  0.00  0.00    -0.243 NA
ATOM     22  C   UNL d   1      55.474  33.333  53.573  0.00  0.00     0.099 A 
ATOM     23  C   UNL d   1      55.563  33.662  54.329  0.00  0.00     0.021 A 
ATOM     24  C   UNL d   1      54.931  33.650  54.860  0.00  0.00     0.003 A 
ATOM     25  C   UNL d   1      54.218  33.312  54.636  0.00  0.00     0.021 A 
ENDBRANCH   1  20
TORSDOF 3
ENDMDL
MODEL 7
REMARK VINA RESULT:      -7.0      1.397      3.721
REMARK  3 active torsions:
REMARK  status: ('A' for Active; 'I' for Inactive)
REMARK    1  A    between atoms: C_5  and  C_1 
REMARK    2  A    between atoms: N_8  and  C_5 
REMARK    3  A    between atoms: C_10  and  C_5 
ROOT
ATOM      1  C   UNL d   1      52.382  33.746  53.333  0.00  0.00     0.085 C 
ENDROOT
BRANCH   1   2
ATOM      2  C   UNL d   1      52.745  33.000  53.288  0.00  0.00     0.059 A 
ATOM      3  C   UNL d   1      52.287  32.322  53.410  0.00  0.00     0.214 A 
ATOM      4  C   UNL d   1      52.650  31.585  53.365  0.00  0.00     0.121 A 
ATOM      5  O   UNL d   1      51.489  32.385  53.573  0.00  0.00    -0.285 OA
ATOM      6  N   UNL d   1      52.193  30.908  53.487  0.00  0.00    -0.241 NA
ATOM      7  C   UNL d   1      53.456  31.522  53.200  0.00  0.00     0.032 A 
ATOM      8  C   UNL d   1      52.556  30.166  53.442  0.00  0.00     0.099 A 
ATOM      9  C   UNL d   1      53.365  30.091  53.277  0.00  0.00     0.021 A 
ATOM     10  C   UNL d   1      53.815  30.781  53.155  0.00  0.00     0.004 A 
ATOM     11  C   UNL d   1      53.910  32.196  53.078  0.00  0.00     0.059 A 
ATOM     12  C   UNL d   1      53.551  32.942  53.122  0.00  0.00     0.016 A 
ATOM     13 CL   UNL d   1      54.712  32.134  52.914  0.00  0.00    -0.082 Cl
ENDBRANCH   1   2
BRANCH   1  14
ATOM     14  N   UNL d   1      51.773  33.940  52.824  0.00  0.00    -0.302 N 
ATOM     15  C   UNL d   1      50.990  33.976  53.102  0.00  0.00     0.080 A 
ATOM     16  C   UNL d   1      50.371  34.174  52.586  0.00  0.00     0.019 A 
ATOM     17  C   UNL d   1      50.542  34.332  51.799  0.00  0.00     0.003 A 
ATOM     18  C   UNL d   1      51.316  34.297  51.521  0.00  0.00     0.019 A 
ATOM     19  C   UNL d   1      51.925  34.103  52.029  0.00  0.00     0.080 A 
ENDBRANCH   1  14
BRANCH   1  20
ATOM     20  C   UNL d   1      52.646  34.288  53.898  0.00  0.00     0.098 A 
ATOM     21  N   UNL d   1      52.542  34.129  54.703  0.00  0.00    -0.243 NA
ATOM     22  C   UNL d   1      52.800  34.659  55.264  0.00  0.00     0.099 A 
ATOM     23  C   UNL d   1      53.170  35.363  55.032  0.00  0.00     0.021 A 
ATOM     24  C   UNL d   1      53.277  35.527  54.229  0.00  0.00     0.003 A 
ATOM     25  C   UNL d   1      53.015  34.989  53.666  0.00  0.00     0.021 A 
ENDBRANCH   1  20
TORSDOF 3
ENDMDL
