MODEL 1
REMARK VINA RESULT:      -2.9      0.000      0.000
REMARK  3 active torsions:
REMARK  status: ('A' for Active; 'I' for Inactive)
REMARK    1  A    between atoms: C_9  and  S_1 
REMARK       I    between atoms: C_4  and  N_8 
REMARK    2  A    between atoms: C_5  and  C_4 
REMARK    3  A    between atoms: N_8  and  C_18 
ROOT
ATOM      1  C   UNL d   1      32.474  15.870 -24.757  0.00  0.00     0.302 C 
ATOM      2  N   UNL d   1      31.764  15.462 -24.808  0.00  0.00    -0.206 NA
ATOM      3  O   UNL d   1      33.171  15.517 -25.014  0.00  0.00    -0.263 OA
ENDROOT
BRANCH   1   4
ATOM      4  C   UNL d   1      32.496  16.631 -24.451  0.00  0.00     0.161 A 
ATOM      5  O   UNL d   1      32.261  17.273 -24.930  0.00  0.00    -0.268 OA
ATOM      6  C   UNL d   1      32.281  18.046 -24.623  0.00  0.00     0.300 A 
ATOM      7  O   UNL d   1      32.050  18.678 -25.095  0.00  0.00    -0.259 OA
ATOM      8  C   UNL d   1      32.533  18.182 -23.846  0.00  0.00     0.064 A 
ATOM      9  C   UNL d   1      32.766  17.536 -23.373  0.00  0.00     0.007 A 
ATOM     10  C   UNL d   1      32.552  18.944 -23.545  0.00  0.00     0.005 A 
ATOM     11  C   UNL d   1      32.748  16.765 -23.671  0.00  0.00     0.030 A 
ATOM     12  C   UNL d   1      33.017  17.672 -22.595  0.00  0.00     0.000 A 
ATOM     13  C   UNL d   1      33.033  18.443 -22.302  0.00  0.00     0.000 A 
ATOM     14  C   UNL d   1      32.801  19.075 -22.774  0.00  0.00     0.000 A 
ENDBRANCH   1   4
BRANCH   2  15
ATOM     15  C   UNL d   1      31.065  15.819 -24.549  0.00  0.00     0.085 A 
ATOM     16  C   UNL d   1      30.591  16.216 -25.086  0.00  0.00     0.020 A 
ATOM     17  C   UNL d   1      29.895  16.572 -24.832  0.00  0.00     0.015 A 
ATOM     18  C   UNL d   1      29.678  16.528 -24.034  0.00  0.00     0.107 A 
ATOM     19  C   UNL d   1      30.162  16.127 -23.501  0.00  0.00     0.015 A 
ATOM     20  C   UNL d   1      30.851  15.774 -23.752  0.00  0.00     0.020 A 
BRANCH  18  21
ATOM     21  S   UNL d   1      28.982  16.886 -23.780  0.00  0.00     0.302 S 
ATOM     22  O   UNL d   1      28.955  17.434 -24.381  0.00  0.00    -0.197 OA
ATOM     23  O   UNL d   1      29.018  16.324 -23.173  0.00  0.00    -0.197 OA
ATOM     24  N   UNL d   1      28.289  17.183 -23.461  0.00  0.00    -0.043 N 
ENDBRANCH  18  21
ENDBRANCH   2  15
TORSDOF 3
ENDMDL
