MODEL 1
REMARK VINA RESULT:      12.7      0.000      0.000
REMARK  5 active torsions:
REMARK  status: ('A' for Active; 'I' for Inactive)
REMARK    1  A    between atoms: N_5  and  C_1 
REMARK    2  A    between atoms: C_8  and  C_2 
REMARK       I    between atoms: C_6  and  N_5 
REMARK    3  A    between atoms: C_9  and  C_6 
REMARK    4  A    between atoms: O_12  and  C_8 
REMARK    5  A    between atoms: C_17  and  O_12 
ROOT
ATOM      1  C   UNL d   1      46.188 -17.757  44.519  0.00  0.00     0.114 A 
ATOM      2  C   UNL d   1      46.399 -18.760  43.678  0.00  0.00     0.094 A 
ATOM      3  S   UNL d   1      46.261 -17.970  43.729  0.00  0.00    -0.062 SA
ATOM      4  C   UNL d   1      46.411 -19.038  44.471  0.00  0.00     0.013 A 
ATOM      5  C   UNL d   1      46.286 -18.439  44.955  0.00  0.00     0.026 A 
ATOM      6  C   UNL d   1      46.535 -19.820  44.706  0.00  0.00     0.001 C 
ENDROOT
BRANCH   1   7
ATOM      7  N   UNL d   1      46.039 -16.976  44.835  0.00  0.00    -0.205 NA
ATOM      8  C   UNL d   1      45.606 -16.440  44.397  0.00  0.00     0.255 C 
ATOM      9  O   UNL d   1      45.312 -16.636  43.663  0.00  0.00    -0.270 OA
BRANCH   8  10
ATOM     10  C   UNL d   1      45.462 -15.696  44.694  0.00  0.00     0.073 C 
ATOM     11  C   UNL d   1      44.652 -15.359  44.835  0.00  0.00     0.009 C 
ATOM     12  C   UNL d   1      46.099 -15.156  44.904  0.00  0.00     0.009 C 
ATOM     13  C   UNL d   1      45.352 -15.043  44.955  0.00  0.00     0.009 C 
ENDBRANCH   8  10
ENDBRANCH   1   7
BRANCH   2  14
ATOM     14  C   UNL d   1      46.508 -19.212  42.989  0.00  0.00     0.306 C 
ATOM     15  O   UNL d   1      46.526 -20.023  43.058  0.00  0.00    -0.258 OA
BRANCH  14  16
ATOM     16  O   UNL d   1      46.596 -18.863  42.257  0.00  0.00    -0.271 OA
BRANCH  16  17
ATOM     17  C   UNL d   1      46.311 -19.233  41.583  0.00  0.00     0.126 C 
ATOM     18  C   UNL d   1      46.646 -19.043  40.854  0.00  0.00     0.029 C 
ENDBRANCH  16  17
ENDBRANCH  14  16
ENDBRANCH   2  14
TORSDOF 5
ENDMDL
