MODEL 1
REMARK VINA RESULT:      -0.3      0.000      0.000
REMARK  6 active torsions:
REMARK  status: ('A' for Active; 'I' for Inactive)
REMARK       I    between atoms: C_8  and  N_1 
REMARK    1  A    between atoms: C_10  and  C_3 
REMARK    2  A    between atoms: C_4  and  S_14 
REMARK    3  A    between atoms: C_15  and  C_6 
REMARK    4  A    between atoms: C_16  and  C_8 
REMARK    5  A    between atoms: S_14  and  C_16 
REMARK    6  A    between atoms: O_26  and  C_23 
ROOT
ATOM      1  N   UNL d   1      32.952  21.367 -22.478  0.00  0.00    -0.195 N 
ATOM      2  N   UNL d   1      32.953  21.606 -23.246  0.00  0.00    -0.162 NA
ATOM      3  C   UNL d   1      32.789  22.421 -23.267  0.00  0.00     0.109 A 
ATOM      4  C   UNL d   1      32.787  22.028 -22.001  0.00  0.00     0.088 A 
ATOM      5  C   UNL d   1      32.692  22.658 -22.503  0.00  0.00     0.041 A 
ATOM      6  C   UNL d   1      33.074  20.651 -22.122  0.00  0.00     0.275 C 
ATOM      7  O   UNL d   1      33.037  20.568 -21.293  0.00  0.00    -0.266 OA
ENDROOT
BRANCH   4   8
ATOM      8  C   UNL d   1      32.727  22.072 -21.193  0.00  0.00     0.018 A 
ATOM      9  C   UNL d   1      33.241  22.552 -20.766  0.00  0.00     0.004 A 
ATOM     10  C   UNL d   1      33.173  22.592 -19.935  0.00  0.00     0.024 A 
ATOM     11  C   UNL d   1      32.597  22.157 -19.546  0.00  0.00     0.094 A 
ATOM     12  C   UNL d   1      32.084  21.678 -19.977  0.00  0.00     0.024 A 
ATOM     13  C   UNL d   1      32.144  21.631 -20.805  0.00  0.00     0.004 A 
BRANCH  11  14
ATOM     14  O   UNL d   1      32.516  22.186 -18.718  0.00  0.00    -0.328 OA
ATOM     15  C   UNL d   1      33.039  21.780 -18.227  0.00  0.00     0.181 C 
ENDBRANCH  11  14
ENDBRANCH   4   8
BRANCH   6  16
ATOM     16  C   UNL d   1      33.241  19.976 -22.588  0.00  0.00     0.128 C 
BRANCH  16  17
ATOM     17  S   UNL d   1      33.029  19.219 -22.320  0.00  0.00    -0.069 SA
BRANCH  17  18
ATOM     18  C   UNL d   1      32.828  18.621 -22.863  0.00  0.00     0.140 A 
ATOM     19  N   UNL d   1      32.678  18.744 -23.659  0.00  0.00    -0.232 NA
ATOM     20  C   UNL d   1      32.502  18.013 -23.996  0.00  0.00     0.088 A 
ATOM     21  C   UNL d   1      32.306  17.798 -24.773  0.00  0.00     0.020 A 
ATOM     22  C   UNL d   1      32.543  17.442 -23.411  0.00  0.00     0.049 A 
ATOM     23  C   UNL d   1      32.154  17.007 -24.958  0.00  0.00     0.002 A 
ATOM     24  C   UNL d   1      32.199  16.432 -24.355  0.00  0.00     0.001 A 
ATOM     25  C   UNL d   1      32.393  16.656 -23.588  0.00  0.00     0.008 A 
ATOM     26  S   UNL d   1      32.747  17.815 -22.699  0.00  0.00    -0.060 SA
ENDBRANCH  17  18
ENDBRANCH  16  17
ENDBRANCH   6  16
BRANCH   3  27
ATOM     27  C   UNL d   1      32.742  22.873 -23.957  0.00  0.00     0.049 A 
ATOM     28  S   UNL d   1      33.234  23.021 -24.588  0.00  0.00    -0.085 SA
ATOM     29  C   UNL d   1      32.837  23.534 -25.097  0.00  0.00     0.035 A 
ATOM     30  C   UNL d   1      32.108  23.702 -24.788  0.00  0.00     0.007 A 
ATOM     31  C   UNL d   1      32.036  23.292 -24.069  0.00  0.00     0.009 A 
ENDBRANCH   3  27
TORSDOF 6
ENDMDL
