MODEL 1
REMARK VINA RESULT:      -5.7      0.000      0.000
REMARK  3 active torsions:
REMARK  status: ('A' for Active; 'I' for Inactive)
REMARK    1  A    between atoms: S_8  and  C_1 
REMARK       I    between atoms: N_4  and  C_5 
REMARK    2  A    between atoms: C_5  and  C_9 
REMARK    3  A    between atoms: C_9  and  S_8 
ROOT
ATOM      1  S   UNL d   1     -41.205-122.336 -51.912  0.00  0.00    -0.056 SA
ENDROOT
BRANCH   1   2
ATOM      2  C   UNL d   1     -41.399-122.335 -52.704  0.00  0.00     0.141 A 
ATOM      3  N   UNL d   1     -41.855-121.775 -53.095  0.00  0.00    -0.232 NA
ATOM      4  C   UNL d   1     -41.912-121.988 -53.884  0.00  0.00     0.088 A 
ATOM      5  C   UNL d   1     -42.294-121.635 -54.521  0.00  0.00     0.020 A 
ATOM      6  C   UNL d   1     -41.481-122.699 -53.991  0.00  0.00     0.049 A 
ATOM      7  C   UNL d   1     -42.245-122.000 -55.277  0.00  0.00     0.002 A 
ATOM      8  C   UNL d   1     -41.833-122.682 -55.379  0.00  0.00     0.001 A 
ATOM      9  C   UNL d   1     -41.441-123.045 -54.732  0.00  0.00     0.008 A 
ATOM     10  S   UNL d   1     -41.174-122.901 -53.263  0.00  0.00    -0.060 SA
ENDBRANCH   1   2
BRANCH   1  11
ATOM     11  C   UNL d   1     -41.729-122.640 -51.356  0.00  0.00     0.098 C 
BRANCH  11  12
ATOM     12  C   UNL d   1     -41.663-122.446 -50.542  0.00  0.00     0.271 C 
ATOM     13  N   UNL d   1     -42.129-122.842 -49.965  0.00  0.00    -0.272 N 
ATOM     14  C   UNL d   1     -42.054-122.644 -49.175  0.00  0.00     0.083 A 
ATOM     15  C   UNL d   1     -42.651-123.420 -50.204  0.00  0.00     0.083 A 
ATOM     16  C   UNL d   1     -42.500-123.021 -48.615  0.00  0.00     0.019 A 
ATOM     17  C   UNL d   1     -43.042-123.621 -48.859  0.00  0.00     0.003 A 
ATOM     18  C   UNL d   1     -43.115-123.814 -49.627  0.00  0.00     0.019 A 
ATOM     19  O   UNL d   1     -41.125-121.855 -50.329  0.00  0.00    -0.266 OA
ENDBRANCH  11  12
ENDBRANCH   1  11
TORSDOF 3
ENDMDL
MODEL 2
REMARK VINA RESULT:      -5.5      1.022      4.588
REMARK  3 active torsions:
REMARK  status: ('A' for Active; 'I' for Inactive)
REMARK    1  A    between atoms: S_8  and  C_1 
REMARK       I    between atoms: N_4  and  C_5 
REMARK    2  A    between atoms: C_5  and  C_9 
REMARK    3  A    between atoms: C_9  and  S_8 
ROOT
ATOM      1  S   UNL d   1     -41.436-122.087 -51.345  0.00  0.00    -0.056 SA
ENDROOT
BRANCH   1   2
ATOM      2  C   UNL d   1     -41.671-122.439 -50.649  0.00  0.00     0.141 A 
ATOM      3  N   UNL d   1     -42.439-122.493 -50.363  0.00  0.00    -0.232 NA
ATOM      4  C   UNL d   1     -42.425-122.890 -49.646  0.00  0.00     0.088 A 
ATOM      5  C   UNL d   1     -43.024-123.097 -49.123  0.00  0.00     0.020 A 
ATOM      6  C   UNL d   1     -41.629-123.090 -49.478  0.00  0.00     0.049 A 
ATOM      7  C   UNL d   1     -42.823-123.512 -48.419  0.00  0.00     0.002 A 
ATOM      8  C   UNL d   1     -42.060-123.703 -48.258  0.00  0.00     0.001 A 
ATOM      9  C   UNL d   1     -41.446-123.493 -48.790  0.00  0.00     0.008 A 
ATOM     10  S   UNL d   1     -41.178-122.809 -50.097  0.00  0.00    -0.060 SA
ENDBRANCH   1   2
BRANCH   1  11
ATOM     11  C   UNL d   1     -41.447-122.512 -52.050  0.00  0.00     0.098 C 
BRANCH  11  12
ATOM     12  C   UNL d   1     -41.417-122.125 -52.793  0.00  0.00     0.271 C 
ATOM     13  N   UNL d   1     -41.388-122.566 -53.509  0.00  0.00    -0.272 N 
ATOM     14  C   UNL d   1     -41.359-122.176 -54.228  0.00  0.00     0.083 A 
ATOM     15  C   UNL d   1     -41.389-123.379 -53.475  0.00  0.00     0.083 A 
ATOM     16  C   UNL d   1     -41.331-122.594 -54.919  0.00  0.00     0.019 A 
ATOM     17  C   UNL d   1     -41.332-123.438 -54.887  0.00  0.00     0.003 A 
ATOM     18  C   UNL d   1     -41.360-123.817 -54.189  0.00  0.00     0.019 A 
ATOM     19  O   UNL d   1     -41.418-121.297 -52.798  0.00  0.00    -0.266 OA
ENDBRANCH  11  12
ENDBRANCH   1  11
TORSDOF 3
ENDMDL
