MODEL 1
REMARK VINA RESULT:      96.1      0.000      0.000
REMARK  4 active torsions:
REMARK  status: ('A' for Active; 'I' for Inactive)
REMARK    1  A    between atoms: S_11  and  C_4 
REMARK       I    between atoms: N_8  and  C_10 
REMARK    2  A    between atoms: C_20  and  N_9 
REMARK    3  A    between atoms: C_10  and  C_15 
REMARK    4  A    between atoms: C_15  and  S_11 
ROOT
ATOM      1  N   UNL d   1      60.888  48.344  50.217  0.00  0.00    -0.269 N 
ATOM      2  N   UNL d   1      61.171  46.726  50.131  0.00  0.00    -0.301 N 
ATOM      3  C   UNL d   1      60.745  49.156  50.261  0.00  0.00     0.272 C 
ATOM      4  C   UNL d   1      60.258  47.813  50.260  0.00  0.00     0.102 A 
ATOM      5  C   UNL d   1      61.659  48.065  50.131  0.00  0.00     0.102 A 
ATOM      6  C   UNL d   1      61.801  47.258  50.088  0.00  0.00     0.100 A 
ATOM      7  C   UNL d   1      60.399  47.005  50.217  0.00  0.00     0.100 A 
ATOM      8  O   UNL d   1      61.375  49.688  50.218  0.00  0.00    -0.266 OA
ENDROOT
BRANCH   3   9
ATOM      9  C   UNL d   1      59.973  49.436  50.347  0.00  0.00     0.099 C 
BRANCH   9  10
ATOM     10  S   UNL d   1      59.712  49.707  51.082  0.00  0.00    -0.044 SA
BRANCH  10  11
ATOM     11  C   UNL d   1      58.897  49.707  51.254  0.00  0.00     0.182 A 
ATOM     12  N   UNL d   1      58.640  49.706  52.047  0.00  0.00    -0.222 NA
ATOM     13  C   UNL d   1      57.843  49.706  52.215  0.00  0.00     0.095 A 
ATOM     14  C   UNL d   1      57.287  49.706  51.606  0.00  0.00     0.104 A 
ATOM     15  C   UNL d   1      57.437  49.706  52.933  0.00  0.00     0.026 A 
ATOM     16  C   UNL d   1      57.528  49.707  50.828  0.00  0.00     0.274 A 
ATOM     17  S   UNL d   1      56.539  49.706  51.947  0.00  0.00    -0.081 SA
ATOM     18  N   UNL d   1      58.341  49.707  50.645  0.00  0.00    -0.251 N 
ATOM     19  O   UNL d   1      56.972  49.707  50.219  0.00  0.00    -0.266 OA
ATOM     20  C   UNL d   1      58.591  49.707  49.852  0.00  0.00     0.104 C 
ATOM     21  C   UNL d   1      56.637  49.706  52.770  0.00  0.00     0.031 A 
ATOM     22  C   UNL d   1      56.036  49.706  53.336  0.00  0.00     0.007 C 
ENDBRANCH  10  11
ENDBRANCH   9  10
ENDBRANCH   3   9
BRANCH   2  23
ATOM     23  C   UNL d   1      61.314  45.915  50.088  0.00  0.00     0.064 A 
ATOM     24  C   UNL d   1      61.527  45.571  49.369  0.00  0.00     0.018 A 
ATOM     25  C   UNL d   1      61.669  44.759  49.325  0.00  0.00     0.002 A 
ATOM     26  C   UNL d   1      61.598  44.292  50.002  0.00  0.00     0.000 A 
ATOM     27  C   UNL d   1      61.385  44.635  50.721  0.00  0.00     0.002 A 
ATOM     28  C   UNL d   1      61.243  45.447  50.765  0.00  0.00     0.018 A 
ENDBRANCH   2  23
TORSDOF 4
ENDMDL
