MODEL 1
REMARK VINA RESULT:      76.8      0.000      0.000
REMARK  8 active torsions:
REMARK  status: ('A' for Active; 'I' for Inactive)
REMARK    1  A    between atoms: N_5  and  C_1 
REMARK    2  A    between atoms: N_8  and  C_3 
REMARK    3  A    between atoms: C_17  and  N_8 
REMARK    4  A    between atoms: C_28  and  N_9 
REMARK    5  A    between atoms: C_10  and  C_17 
REMARK    6  A    between atoms: C_20  and  O_27 
REMARK    7  A    between atoms: O_27  and  C_29 
REMARK    8  A    between atoms: C_29  and  C_28 
ROOT
ATOM      1  C   UNL d   1     -54.826-101.095 -40.419  0.00  0.00     0.737 A 
ATOM      2  N   UNL d   1     -54.885-100.483 -39.895  0.00  0.00    -0.041 NA
ATOM      3  C   UNL d   1     -54.904-100.625 -39.108  0.00  0.00     0.182 A 
ATOM      4  N   UNL d   1     -54.786-101.853 -40.147  0.00  0.00    -0.060 NA
ATOM      5  C   UNL d   1     -54.864-101.381 -38.834  0.00  0.00     0.055 A 
ATOM      6  C   UNL d   1     -54.806-101.995 -39.347  0.00  0.00     0.103 A 
ATOM      7  C   UNL d   1     -54.883-101.519 -38.043  0.00  0.00     0.005 A 
ATOM      8  C   UNL d   1     -54.766-102.750 -39.071  0.00  0.00     0.020 A 
ATOM      9  C   UNL d   1     -54.844-102.265 -37.773  0.00  0.00     0.000 A 
ATOM     10  C   UNL d   1     -54.786-102.879 -38.286  0.00  0.00     0.002 A 
ENDROOT
BRANCH   1  11
ATOM     11  N   UNL d   1     -54.807-100.954 -41.226  0.00  0.00    -0.134 N 
ATOM     12  C   UNL d   1     -54.748-100.171 -41.513  0.00  0.00     0.117 A 
ATOM     13  C   UNL d   1     -54.728-100.032 -42.325  0.00  0.00     0.100 A 
ATOM     14  N   UNL d   1     -54.766-100.662 -42.860  0.00  0.00    -0.298 N 
ATOM     15  C   UNL d   1     -54.825-101.445 -42.573  0.00  0.00     0.100 A 
ATOM     16  C   UNL d   1     -54.845-101.583 -41.757  0.00  0.00     0.117 A 
BRANCH  14  17
ATOM     17  C   UNL d   1     -54.747-100.523 -43.672  0.00  0.00     0.107 C 
BRANCH  17  18
ATOM     18  C   UNL d   1     -54.858 -99.759 -43.970  0.00  0.00     0.142 C 
BRANCH  18  19
ATOM     19  O   UNL d   1     -55.168 -99.640 -44.734  0.00  0.00    -0.304 OA
BRANCH  19  20
ATOM     20  C   UNL d   1     -55.971 -99.501 -44.847  0.00  0.00     0.100 A 
ATOM     21  C   UNL d   1     -56.399 -99.954 -45.400  0.00  0.00     0.025 A 
ATOM     22  C   UNL d   1     -57.203 -99.812 -45.510  0.00  0.00     0.002 A 
ATOM     23  C   UNL d   1     -57.593 -99.217 -45.072  0.00  0.00     0.000 A 
ATOM     24  C   UNL d   1     -57.164 -98.764 -44.520  0.00  0.00     0.002 A 
ATOM     25  C   UNL d   1     -58.406 -99.077 -45.187  0.00  0.00     0.000 C 
ATOM     26  C   UNL d   1     -56.348 -98.911 -44.410  0.00  0.00     0.025 A 
ENDBRANCH  19  20
ENDBRANCH  18  19
ENDBRANCH  17  18
ENDBRANCH  14  17
ENDBRANCH   1  11
BRANCH   3  27
ATOM     27  N   UNL d   1     -54.962-100.019 -38.602  0.00  0.00    -0.223 NA
BRANCH  27  28
ATOM     28  C   UNL d   1     -54.717-100.091 -37.877  0.00  0.00     0.125 C 
BRANCH  28  29
ATOM     29  C   UNL d   1     -54.877-100.016 -36.991  0.00  0.00     0.119 A 
ATOM     30  O   UNL d   1     -54.946-100.547 -36.102  0.00  0.00    -0.304 OA
ATOM     31  C   UNL d   1     -55.184 -99.846 -35.318  0.00  0.00     0.123 A 
ATOM     32  C   UNL d   1     -55.174 -99.235 -35.929  0.00  0.00     0.029 A 
ATOM     33  C   UNL d   1     -55.048 -99.294 -36.625  0.00  0.00     0.028 A 
ENDBRANCH  28  29
ENDBRANCH  27  28
ENDBRANCH   3  27
TORSDOF 8
ENDMDL
