MODEL 1
REMARK VINA RESULT:      -3.7      0.000      0.000
REMARK  4 active torsions:
REMARK  status: ('A' for Active; 'I' for Inactive)
REMARK    1  A    between atoms: N_3  and  S_1 
REMARK    2  A    between atoms: C_4  and  S_1 
REMARK    3  A    between atoms: C_2  and  C_5 
REMARK    4  A    between atoms: C_8  and  N_3 
ROOT
ATOM      1  N   UNL d   1      31.388  17.025 -24.522  0.00  0.00    -0.158 NA
ENDROOT
BRANCH   1   2
ATOM      2  S   UNL d   1      30.641  16.761 -24.295  0.00  0.00     0.285 S 
ATOM      3  O   UNL d   1      30.336  17.534 -24.354  0.00  0.00    -0.198 OA
ATOM      4  O   UNL d   1      30.942  15.996 -24.237  0.00  0.00    -0.198 OA
BRANCH   2   5
ATOM      5  C   UNL d   1      29.890  16.505 -24.069  0.00  0.00     0.105 A 
ATOM      6  C   UNL d   1      29.799  15.799 -23.661  0.00  0.00     0.013 A 
ATOM      7  C   UNL d   1      29.053  15.551 -23.440  0.00  0.00     0.001 A 
ATOM      8  C   UNL d   1      28.384  16.005 -23.624  0.00  0.00     0.000 A 
ATOM      9  C   UNL d   1      28.480  16.712 -24.033  0.00  0.00     0.001 A 
ATOM     10  C   UNL d   1      27.631  15.755 -23.401  0.00  0.00     0.000 C 
ATOM     11  C   UNL d   1      29.229  16.968 -24.259  0.00  0.00     0.013 A 
ENDBRANCH   2   5
ENDBRANCH   1   2
BRANCH   1  12
ATOM     12  C   UNL d   1      32.006  17.245 -24.013  0.00  0.00     0.094 A 
ATOM     13  C   UNL d   1      32.103  18.044 -23.805  0.00  0.00     0.024 A 
ATOM     14  C   UNL d   1      32.721  18.260 -23.297  0.00  0.00     0.073 A 
ATOM     15  C   UNL d   1      33.241  17.688 -22.996  0.00  0.00     0.004 A 
ATOM     16  C   UNL d   1      33.138  16.893 -23.207  0.00  0.00     0.002 A 
ATOM     17  C   UNL d   1      32.520  16.676 -23.715  0.00  0.00     0.020 A 
BRANCH  14  18
ATOM     18  C   UNL d   1      32.822  19.051 -23.088  0.00  0.00     0.419 C 
ATOM     19  F   UNL d   1      32.724  19.286 -22.302  0.00  0.00    -0.166 F 
ATOM     20  F   UNL d   1      33.020  19.609 -23.657  0.00  0.00    -0.166 F 
ATOM     21  F   UNL d   1      32.631  18.669 -22.382  0.00  0.00    -0.166 F 
ENDBRANCH  14  18
ENDBRANCH   1  12
TORSDOF 4
ENDMDL
MODEL 2
REMARK VINA RESULT:      -3.5      2.431      4.400
REMARK  4 active torsions:
REMARK  status: ('A' for Active; 'I' for Inactive)
REMARK    1  A    between atoms: N_3  and  S_1 
REMARK    2  A    between atoms: C_4  and  S_1 
REMARK    3  A    between atoms: C_2  and  C_5 
REMARK    4  A    between atoms: C_8  and  N_3 
ROOT
ATOM      1  N   UNL d   1      33.135  18.343 -23.654  0.00  0.00    -0.158 NA
ENDROOT
BRANCH   1   2
ATOM      2  S   UNL d   1      33.136  18.932 -23.078  0.00  0.00     0.285 S 
ATOM      3  O   UNL d   1      33.046  19.521 -23.660  0.00  0.00    -0.198 OA
ATOM      4  O   UNL d   1      33.225  18.351 -22.501  0.00  0.00    -0.198 OA
BRANCH   2   5
ATOM      5  C   UNL d   1      33.136  19.527 -22.506  0.00  0.00     0.105 A 
ATOM      6  C   UNL d   1      33.033  20.312 -22.724  0.00  0.00     0.013 A 
ATOM      7  C   UNL d   1      33.034  20.895 -22.153  0.00  0.00     0.001 A 
ATOM      8  C   UNL d   1      33.138  20.705 -21.353  0.00  0.00     0.000 A 
ATOM      9  C   UNL d   1      33.241  19.918 -21.138  0.00  0.00     0.001 A 
ATOM     10  C   UNL d   1      33.139  21.294 -20.776  0.00  0.00     0.000 C 
ATOM     11  C   UNL d   1      33.241  19.323 -21.709  0.00  0.00     0.013 A 
ENDBRANCH   2   5
ENDBRANCH   1   2
BRANCH   1  12
ATOM     12  C   UNL d   1      32.466  17.964 -23.968  0.00  0.00     0.094 A 
ATOM     13  C   UNL d   1      32.190  17.263 -23.619  0.00  0.00     0.024 A 
ATOM     14  C   UNL d   1      31.523  16.887 -23.934  0.00  0.00     0.073 A 
ATOM     15  C   UNL d   1      31.130  17.204 -24.592  0.00  0.00     0.004 A 
ATOM     16  C   UNL d   1      31.411  17.904 -24.935  0.00  0.00     0.002 A 
ATOM     17  C   UNL d   1      32.079  18.281 -24.621  0.00  0.00     0.020 A 
BRANCH  14  18
ATOM     18  C   UNL d   1      31.243  16.190 -23.591  0.00  0.00     0.419 C 
ATOM     19  F   UNL d   1      30.560  16.203 -23.127  0.00  0.00    -0.166 F 
ATOM     20  F   UNL d   1      31.642  15.482 -23.709  0.00  0.00    -0.166 F 
ATOM     21  F   UNL d   1      30.709  16.772 -23.353  0.00  0.00    -0.166 F 
ENDBRANCH  14  18
ENDBRANCH   1  12
TORSDOF 4
ENDMDL
MODEL 3
REMARK VINA RESULT:      -2.8      1.370      1.974
REMARK  4 active torsions:
REMARK  status: ('A' for Active; 'I' for Inactive)
REMARK    1  A    between atoms: N_3  and  S_1 
REMARK    2  A    between atoms: C_4  and  S_1 
REMARK    3  A    between atoms: C_2  and  C_5 
REMARK    4  A    between atoms: C_8  and  N_3 
ROOT
ATOM      1  N   UNL d   1      32.891  17.821 -23.929  0.00  0.00    -0.158 NA
ENDROOT
BRANCH   1   2
ATOM      2  S   UNL d   1      32.169  17.454 -24.082  0.00  0.00     0.285 S 
ATOM      3  O   UNL d   1      32.132  17.810 -24.835  0.00  0.00    -0.198 OA
ATOM      4  O   UNL d   1      32.204  17.102 -23.338  0.00  0.00    -0.198 OA
BRANCH   2   5
ATOM      5  C   UNL d   1      31.445  17.091 -24.242  0.00  0.00     0.105 A 
ATOM      6  C   UNL d   1      31.165  16.492 -23.756  0.00  0.00     0.013 A 
ATOM      7  C   UNL d   1      30.449  16.137 -23.921  0.00  0.00     0.001 A 
ATOM      8  C   UNL d   1      29.999  16.374 -24.575  0.00  0.00     0.000 A 
ATOM      9  C   UNL d   1      30.283  16.975 -25.060  0.00  0.00     0.001 A 
ATOM     10  C   UNL d   1      29.275  16.016 -24.741  0.00  0.00     0.000 C 
ATOM     11  C   UNL d   1      31.005  17.338 -24.900  0.00  0.00     0.013 A 
ENDBRANCH   2   5
ENDBRANCH   1   2
BRANCH   1  12
ATOM     12  C   UNL d   1      33.002  18.614 -23.710  0.00  0.00     0.094 A 
ATOM     13  C   UNL d   1      32.983  18.825 -22.907  0.00  0.00     0.024 A 
ATOM     14  C   UNL d   1      33.095  19.616 -22.691  0.00  0.00     0.073 A 
ATOM     15  C   UNL d   1      33.224  20.198 -23.268  0.00  0.00     0.004 A 
ATOM     16  C   UNL d   1      33.241  19.981 -24.068  0.00  0.00     0.002 A 
ATOM     17  C   UNL d   1      33.130  19.189 -24.285  0.00  0.00     0.020 A 
BRANCH  14  18
ATOM     18  C   UNL d   1      33.077  19.832 -21.895  0.00  0.00     0.419 C 
ATOM     19  F   UNL d   1      32.899  20.609 -21.681  0.00  0.00    -0.166 F 
ATOM     20  F   UNL d   1      33.237  19.276 -21.311  0.00  0.00    -0.166 F 
ATOM     21  F   UNL d   1      32.892  20.524 -22.305  0.00  0.00    -0.166 F 
ENDBRANCH  14  18
ENDBRANCH   1  12
TORSDOF 4
ENDMDL
MODEL 4
REMARK VINA RESULT:      -2.7      2.259      4.208
REMARK  4 active torsions:
REMARK  status: ('A' for Active; 'I' for Inactive)
REMARK    1  A    between atoms: N_3  and  S_1 
REMARK    2  A    between atoms: C_4  and  S_1 
REMARK    3  A    between atoms: C_2  and  C_5 
REMARK    4  A    between atoms: C_8  and  N_3 
ROOT
ATOM      1  N   UNL d   1      31.126  15.788 -23.915  0.00  0.00    -0.158 NA
ENDROOT
BRANCH   1   2
ATOM      2  S   UNL d   1      31.550  16.494 -23.884  0.00  0.00     0.285 S 
ATOM      3  O   UNL d   1      31.599  16.516 -24.716  0.00  0.00    -0.198 OA
ATOM      4  O   UNL d   1      31.503  16.472 -23.062  0.00  0.00    -0.198 OA
BRANCH   2   5
ATOM      5  C   UNL d   1      31.976  17.200 -23.861  0.00  0.00     0.105 A 
ATOM      6  C   UNL d   1      32.466  17.369 -23.225  0.00  0.00     0.013 A 
ATOM      7  C   UNL d   1      32.883  18.070 -23.209  0.00  0.00     0.001 A 
ATOM      8  C   UNL d   1      32.819  18.616 -23.829  0.00  0.00     0.000 A 
ATOM      9  C   UNL d   1      32.327  18.444 -24.466  0.00  0.00     0.001 A 
ATOM     10  C   UNL d   1      33.241  19.325 -23.814  0.00  0.00     0.000 C 
ATOM     11  C   UNL d   1      31.902  17.738 -24.489  0.00  0.00     0.013 A 
ENDBRANCH   2   5
ENDBRANCH   1   2
BRANCH   1  12
ATOM     12  C   UNL d   1      30.324  15.706 -24.117  0.00  0.00     0.094 A 
ATOM     13  C   UNL d   1      29.742  15.794 -23.532  0.00  0.00     0.024 A 
ATOM     14  C   UNL d   1      28.944  15.712 -23.737  0.00  0.00     0.073 A 
ATOM     15  C   UNL d   1      28.723  15.542 -24.518  0.00  0.00     0.004 A 
ATOM     16  C   UNL d   1      29.309  15.455 -25.097  0.00  0.00     0.002 A 
ATOM     17  C   UNL d   1      30.108  15.537 -24.893  0.00  0.00     0.020 A 
BRANCH  14  18
ATOM     18  C   UNL d   1      28.361  15.798 -23.160  0.00  0.00     0.419 C 
ATOM     19  F   UNL d   1      27.563  15.789 -23.374  0.00  0.00    -0.166 F 
ATOM     20  F   UNL d   1      28.568  15.894 -22.371  0.00  0.00    -0.166 F 
ATOM     21  F   UNL d   1      27.946  15.718 -23.869  0.00  0.00    -0.166 F 
ENDBRANCH  14  18
ENDBRANCH   1  12
TORSDOF 4
ENDMDL
MODEL 5
REMARK VINA RESULT:      -2.6      3.484      4.701
REMARK  4 active torsions:
REMARK  status: ('A' for Active; 'I' for Inactive)
REMARK    1  A    between atoms: N_3  and  S_1 
REMARK    2  A    between atoms: C_4  and  S_1 
REMARK    3  A    between atoms: C_2  and  C_5 
REMARK    4  A    between atoms: C_8  and  N_3 
ROOT
ATOM      1  N   UNL d   1      33.241  20.367 -21.732  0.00  0.00    -0.158 NA
ENDROOT
BRANCH   1   2
ATOM      2  S   UNL d   1      33.064  19.875 -22.369  0.00  0.00     0.285 S 
ATOM      3  O   UNL d   1      32.931  19.234 -21.854  0.00  0.00    -0.198 OA
ATOM      4  O   UNL d   1      33.195  20.508 -22.879  0.00  0.00    -0.198 OA
BRANCH   2   5
ATOM      5  C   UNL d   1      32.886  19.376 -23.002  0.00  0.00     0.105 A 
ATOM      6  C   UNL d   1      33.092  19.587 -23.767  0.00  0.00     0.013 A 
ATOM      7  C   UNL d   1      32.912  19.089 -24.388  0.00  0.00     0.001 A 
ATOM      8  C   UNL d   1      32.523  18.370 -24.255  0.00  0.00     0.000 A 
ATOM      9  C   UNL d   1      32.317  18.161 -23.486  0.00  0.00     0.001 A 
ATOM     10  C   UNL d   1      32.341  17.866 -24.882  0.00  0.00     0.000 C 
ATOM     11  C   UNL d   1      32.495  18.659 -22.854  0.00  0.00     0.013 A 
ENDBRANCH   2   5
ENDBRANCH   1   2
BRANCH   1  12
ATOM     12  C   UNL d   1      32.779  21.000 -21.458  0.00  0.00     0.094 A 
ATOM     13  C   UNL d   1      32.995  21.779 -21.649  0.00  0.00     0.024 A 
ATOM     14  C   UNL d   1      32.532  22.409 -21.374  0.00  0.00     0.073 A 
ATOM     15  C   UNL d   1      31.857  22.267 -20.911  0.00  0.00     0.004 A 
ATOM     16  C   UNL d   1      31.648  21.488 -20.725  0.00  0.00     0.002 A 
ATOM     17  C   UNL d   1      32.111  20.857 -21.000  0.00  0.00     0.020 A 
BRANCH  14  18
ATOM     18  C   UNL d   1      32.741  23.184 -21.560  0.00  0.00     0.419 C 
ATOM     19  F   UNL d   1      33.145  23.647 -21.008  0.00  0.00    -0.166 F 
ATOM     20  F   UNL d   1      32.549  23.501 -22.293  0.00  0.00    -0.166 F 
ATOM     21  F   UNL d   1      33.022  23.068 -20.792  0.00  0.00    -0.166 F 
ENDBRANCH  14  18
ENDBRANCH   1  12
TORSDOF 4
ENDMDL
MODEL 6
REMARK VINA RESULT:      -2.5      2.138      4.138
REMARK  4 active torsions:
REMARK  status: ('A' for Active; 'I' for Inactive)
REMARK    1  A    between atoms: N_3  and  S_1 
REMARK    2  A    between atoms: C_4  and  S_1 
REMARK    3  A    between atoms: C_2  and  C_5 
REMARK    4  A    between atoms: C_8  and  N_3 
ROOT
ATOM      1  N   UNL d   1      33.142  17.058 -23.647  0.00  0.00    -0.158 NA
ENDROOT
BRANCH   1   2
ATOM      2  S   UNL d   1      33.162  17.840 -23.391  0.00  0.00     0.285 S 
ATOM      3  O   UNL d   1      33.086  17.596 -22.598  0.00  0.00    -0.198 OA
ATOM      4  O   UNL d   1      33.237  18.083 -24.175  0.00  0.00    -0.198 OA
BRANCH   2   5
ATOM      5  C   UNL d   1      33.181  18.622 -23.126  0.00  0.00     0.105 A 
ATOM      6  C   UNL d   1      33.213  19.241 -23.664  0.00  0.00     0.013 A 
ATOM      7  C   UNL d   1      33.231  20.011 -23.395  0.00  0.00     0.001 A 
ATOM      8  C   UNL d   1      33.219  20.177 -22.583  0.00  0.00     0.000 A 
ATOM      9  C   UNL d   1      33.188  19.554 -22.047  0.00  0.00     0.001 A 
ATOM     10  C   UNL d   1      33.238  20.956 -22.311  0.00  0.00     0.000 C 
ATOM     11  C   UNL d   1      33.169  18.774 -22.311  0.00  0.00     0.013 A 
ENDBRANCH   2   5
ENDBRANCH   1   2
BRANCH   1  12
ATOM     12  C   UNL d   1      32.498  16.674 -24.004  0.00  0.00     0.094 A 
ATOM     13  C   UNL d   1      31.764  16.656 -23.616  0.00  0.00     0.024 A 
ATOM     14  C   UNL d   1      31.123  16.272 -23.974  0.00  0.00     0.073 A 
ATOM     15  C   UNL d   1      31.209  15.908 -24.715  0.00  0.00     0.004 A 
ATOM     16  C   UNL d   1      31.944  15.931 -25.097  0.00  0.00     0.002 A 
ATOM     17  C   UNL d   1      32.586  16.314 -24.739  0.00  0.00     0.020 A 
BRANCH  14  18
ATOM     18  C   UNL d   1      30.392  16.251 -23.594  0.00  0.00     0.419 C 
ATOM     19  F   UNL d   1      29.858  16.874 -23.689  0.00  0.00    -0.166 F 
ATOM     20  F   UNL d   1      30.190  15.612 -23.118  0.00  0.00    -0.166 F 
ATOM     21  F   UNL d   1      30.392  16.963 -24.011  0.00  0.00    -0.166 F 
ENDBRANCH  14  18
ENDBRANCH   1  12
TORSDOF 4
ENDMDL
MODEL 7
REMARK VINA RESULT:      -2.4      3.193      5.120
REMARK  4 active torsions:
REMARK  status: ('A' for Active; 'I' for Inactive)
REMARK    1  A    between atoms: N_3  and  S_1 
REMARK    2  A    between atoms: C_4  and  S_1 
REMARK    3  A    between atoms: C_2  and  C_5 
REMARK    4  A    between atoms: C_8  and  N_3 
ROOT
ATOM      1  N   UNL d   1      33.235  19.927 -22.103  0.00  0.00    -0.158 NA
ENDROOT
BRANCH   1   2
ATOM      2  S   UNL d   1      32.948  20.656 -21.848  0.00  0.00     0.285 S 
ATOM      3  O   UNL d   1      32.661  20.312 -21.146  0.00  0.00    -0.198 OA
ATOM      4  O   UNL d   1      33.231  20.997 -22.543  0.00  0.00    -0.198 OA
BRANCH   2   5
ATOM      5  C   UNL d   1      32.657  21.383 -21.586  0.00  0.00     0.105 A 
ATOM      6  C   UNL d   1      32.109  21.415 -20.977  0.00  0.00     0.013 A 
ATOM      7  C   UNL d   1      31.826  22.137 -20.724  0.00  0.00     0.001 A 
ATOM      8  C   UNL d   1      32.086  22.841 -21.074  0.00  0.00     0.000 A 
ATOM      9  C   UNL d   1      32.636  22.806 -21.685  0.00  0.00     0.001 A 
ATOM     10  C   UNL d   1      31.800  23.572 -20.818  0.00  0.00     0.000 C 
ATOM     11  C   UNL d   1      32.927  22.080 -21.946  0.00  0.00     0.013 A 
ENDBRANCH   2   5
ENDBRANCH   1   2
BRANCH   1  12
ATOM     12  C   UNL d   1      33.037  19.542 -22.811  0.00  0.00     0.094 A 
ATOM     13  C   UNL d   1      32.632  18.817 -22.786  0.00  0.00     0.024 A 
ATOM     14  C   UNL d   1      32.436  18.435 -23.494  0.00  0.00     0.073 A 
ATOM     15  C   UNL d   1      32.640  18.770 -24.226  0.00  0.00     0.004 A 
ATOM     16  C   UNL d   1      33.044  19.493 -24.243  0.00  0.00     0.002 A 
ATOM     17  C   UNL d   1      33.241  19.876 -23.535  0.00  0.00     0.020 A 
BRANCH  14  18
ATOM     18  C   UNL d   1      32.034  17.715 -23.475  0.00  0.00     0.419 C 
ATOM     19  F   UNL d   1      32.331  17.066 -23.890  0.00  0.00    -0.166 F 
ATOM     20  F   UNL d   1      31.339  17.640 -23.045  0.00  0.00    -0.166 F 
ATOM     21  F   UNL d   1      32.693  17.577 -23.954  0.00  0.00    -0.166 F 
ENDBRANCH  14  18
ENDBRANCH   1  12
TORSDOF 4
ENDMDL
