MODEL 1
REMARK VINA RESULT:      32.3      0.000      0.000
REMARK  4 active torsions:
REMARK  status: ('A' for Active; 'I' for Inactive)
REMARK    1  A    between atoms: N_6  and  C_1 
REMARK       I    between atoms: C_9  and  N_6 
REMARK    2  A    between atoms: C_12  and  C_9 
REMARK    3  A    between atoms: O_11  and  C_12 
REMARK    4  A    between atoms: C_15  and  O_11 
ROOT
ATOM      1  C   UNL d   1     -57.363 -98.779 -44.547  0.00  0.00     0.124 A 
ATOM      2  C   UNL d   1     -58.179 -98.830 -44.396  0.00  0.00     0.093 A 
ATOM      3  S   UNL d   1     -57.259 -98.756 -45.368  0.00  0.00    -0.067 SA
ATOM      4  C   UNL d   1     -58.567 -98.838 -45.127  0.00  0.00     0.018 A 
ATOM      5  C   UNL d   1     -58.003 -98.793 -45.712  0.00  0.00     0.032 A 
ATOM      6  C   UNL d   1     -58.529 -98.867 -43.643  0.00  0.00     0.103 C 
ATOM      7  N   UNL d   1     -58.878 -98.902 -42.910  0.00  0.00    -0.191 NA
ATOM      8  C   UNL d   1     -59.387 -98.885 -45.232  0.00  0.00     0.001 C 
ATOM      9  C   UNL d   1     -58.155 -98.785 -46.529  0.00  0.00     0.007 C 
ENDROOT
BRANCH   1  10
ATOM     10  N   UNL d   1     -56.770 -98.755 -43.984  0.00  0.00    -0.199 NA
ATOM     11  C   UNL d   1     -56.035 -99.077 -44.157  0.00  0.00     0.305 C 
ATOM     12  O   UNL d   1     -55.435 -99.053 -43.588  0.00  0.00    -0.263 OA
BRANCH  11  13
ATOM     13  C   UNL d   1     -55.886 -99.419 -44.876  0.00  0.00     0.185 C 
BRANCH  13  14
ATOM     14  O   UNL d   1     -55.185 -99.801 -45.027  0.00  0.00    -0.300 OA
BRANCH  14  15
ATOM     15  C   UNL d   1     -55.031-100.551 -44.714  0.00  0.00     0.100 A 
ATOM     16  C   UNL d   1     -55.048-101.204 -45.222  0.00  0.00     0.025 A 
ATOM     17  C   UNL d   1     -54.896-101.943 -44.912  0.00  0.00     0.002 A 
ATOM     18  C   UNL d   1     -54.729-102.032 -44.108  0.00  0.00     0.000 A 
ATOM     19  C   UNL d   1     -54.714-101.381 -43.613  0.00  0.00     0.002 A 
ATOM     20  C   UNL d   1     -54.867-100.637 -43.924  0.00  0.00     0.025 A 
ENDBRANCH  14  15
ENDBRANCH  13  14
ENDBRANCH  11  13
ENDBRANCH   1  10
TORSDOF 4
ENDMDL
