MODEL 1
REMARK VINA RESULT:      49.5      0.000      0.000
REMARK  7 active torsions:
REMARK  status: ('A' for Active; 'I' for Inactive)
REMARK       I    between atoms: C_2  and  N_1 
REMARK    1  A    between atoms: C_3  and  N_1 
REMARK    2  A    between atoms: C_4  and  C_2 
REMARK    3  A    between atoms: N_9  and  C_3 
REMARK    4  A    between atoms: O_19  and  C_6 
REMARK    5  A    between atoms: C_7  and  C_18 
REMARK    6  A    between atoms: C_18  and  N_9 
REMARK    7  A    between atoms: O_20  and  C_12 
ROOT
ATOM      1  N   UNL d   1     -49.994  26.751  34.567  0.00  0.00    -0.179 NA
ATOM      2  C   UNL d   1     -50.004  26.278  33.888  0.00  0.00     0.281 C 
ATOM      3  O   UNL d   1     -49.380  26.317  33.344  0.00  0.00    -0.265 OA
ENDROOT
BRANCH   2   4
ATOM      4  C   UNL d   1     -50.634  25.765  33.745  0.00  0.00     0.060 A 
ATOM      5  C   UNL d   1     -50.495  24.962  33.597  0.00  0.00     0.031 A 
ATOM      6  C   UNL d   1     -51.128  24.451  33.455  0.00  0.00     0.116 A 
ATOM      7  C   UNL d   1     -51.902  24.745  33.461  0.00  0.00     0.116 A 
ATOM      8  C   UNL d   1     -52.041  25.548  33.609  0.00  0.00     0.026 A 
ATOM      9  C   UNL d   1     -51.399  26.051  33.750  0.00  0.00     0.007 A 
BRANCH   6  10
ATOM     10  O   UNL d   1     -50.989  23.648  33.307  0.00  0.00    -0.326 OA
ATOM     11  C   UNL d   1     -50.572  23.190  33.851  0.00  0.00     0.181 C 
ENDBRANCH   6  10
BRANCH   7  12
ATOM     12  O   UNL d   1     -52.535  24.229  33.318  0.00  0.00    -0.326 OA
ATOM     13  C   UNL d   1     -53.225  24.283  33.766  0.00  0.00     0.181 C 
ENDBRANCH   7  12
ENDBRANCH   2   4
BRANCH   1  14
ATOM     14  C   UNL d   1     -50.617  26.707  35.104  0.00  0.00     0.224 C 
ATOM     15  S   UNL d   1     -51.428  26.787  34.930  0.00  0.00    -0.037 SA
BRANCH  14  16
ATOM     16  N   UNL d   1     -50.550  26.575  35.923  0.00  0.00    -0.214 NA
BRANCH  16  17
ATOM     17  C   UNL d   1     -50.882  27.047  36.517  0.00  0.00     0.126 C 
BRANCH  17  18
ATOM     18  C   UNL d   1     -51.026  26.725  37.261  0.00  0.00     0.119 A 
ATOM     19  O   UNL d   1     -50.566  26.681  37.942  0.00  0.00    -0.304 OA
ATOM     20  C   UNL d   1     -51.005  26.292  38.518  0.00  0.00     0.123 A 
ATOM     21  C   UNL d   1     -51.734  26.096  38.193  0.00  0.00     0.029 A 
ATOM     22  C   UNL d   1     -51.750  26.362  37.416  0.00  0.00     0.028 A 
ENDBRANCH  17  18
ENDBRANCH  16  17
ENDBRANCH  14  16
ENDBRANCH   1  14
TORSDOF 7
ENDMDL
