MODEL 1
REMARK VINA RESULT:      -1.0      0.000      0.000
REMARK  5 active torsions:
REMARK  status: ('A' for Active; 'I' for Inactive)
REMARK    1  A    between atoms: N_2  and  C_3 
REMARK       I    between atoms: C_4  and  N_5 
REMARK    2  A    between atoms: C_8  and  C_4 
REMARK    3  A    between atoms: N_5  and  C_9 
REMARK    4  A    between atoms: C_14  and  N_5 
REMARK    5  A    between atoms: C_20  and  C_14 
ROOT
ATOM      1  C   UNL d   1      30.623  17.422 -24.514  0.00  0.00     0.265 C 
ATOM      2  N   UNL d   1      30.716  16.608 -24.415  0.00  0.00    -0.273 N 
ATOM      3  O   UNL d   1      29.874  17.732 -24.685  0.00  0.00    -0.267 OA
ENDROOT
BRANCH   2   4
ATOM      4  C   UNL d   1      31.457  16.286 -24.244  0.00  0.00     0.079 A 
ATOM      5  C   UNL d   1      31.721  16.066 -23.496  0.00  0.00     0.116 A 
ATOM      6  S   UNL d   1      32.491  15.771 -23.576  0.00  0.00     0.213 S 
ATOM      7  O   UNL d   1      33.241  15.454 -23.457  0.00  0.00    -0.217 OA
ATOM      8  O   UNL d   1      32.342  15.706 -22.770  0.00  0.00    -0.217 OA
ATOM      9  C   UNL d   1      32.696  15.813 -24.379  0.00  0.00     0.100 A 
ATOM     10  C   UNL d   1      32.058  16.131 -24.793  0.00  0.00     0.030 A 
ENDBRANCH   2   4
BRANCH   2  11
ATOM     11  C   UNL d   1      30.055  16.102 -24.486  0.00  0.00     0.083 C 
BRANCH  11  12
ATOM     12  C   UNL d   1      29.415  16.190 -23.975  0.00  0.00     0.018 A 
ATOM     13  C   UNL d   1      29.454  15.867 -23.211  0.00  0.00     0.013 A 
ATOM     14  C   UNL d   1      28.813  15.954 -22.696  0.00  0.00     0.058 A 
ATOM     15 CL   UNL d   1      28.847  15.638 -21.942  0.00  0.00    -0.082 Cl
ATOM     16  C   UNL d   1      28.138  16.361 -22.944  0.00  0.00     0.011 A 
ATOM     17  C   UNL d   1      28.105  16.681 -23.707  0.00  0.00     0.001 A 
ATOM     18  C   UNL d   1      28.739  16.596 -24.219  0.00  0.00     0.002 A 
ENDBRANCH  11  12
ENDBRANCH   2  11
BRANCH   1  19
ATOM     19  C   UNL d   1      31.271  17.916 -24.444  0.00  0.00     0.058 A 
ATOM     20  C   UNL d   1      31.437  18.273 -23.718  0.00  0.00     0.029 A 
ATOM     21  C   UNL d   1      32.084  18.766 -23.646  0.00  0.00     0.137 A 
ATOM     22  C   UNL d   1      32.568  18.904 -24.298  0.00  0.00     0.080 A 
ATOM     23  C   UNL d   1      32.403  18.547 -25.023  0.00  0.00     0.013 A 
ATOM     24 CL   UNL d   1      33.222  19.404 -24.219  0.00  0.00    -0.081 Cl
ATOM     25  C   UNL d   1      31.755  18.053 -25.094  0.00  0.00     0.006 A 
BRANCH  21  26
ATOM     26  N   UNL d   1      32.250  19.123 -22.920  0.00  0.00    -0.113 N 
ATOM     27  O   UNL d   1      32.859  18.837 -22.458  0.00  0.00    -0.532 OA
ATOM     28  O   UNL d   1      31.798  19.763 -22.671  0.00  0.00    -0.532 OA
ENDBRANCH  21  26
ENDBRANCH   1  19
TORSDOF 5
ENDMDL
