MODEL 1
REMARK VINA RESULT:      -3.0      0.000      0.000
REMARK  4 active torsions:
REMARK  status: ('A' for Active; 'I' for Inactive)
REMARK    1  A    between atoms: C_2  and  S_1 
REMARK    2  A    between atoms: N_3  and  S_1 
REMARK    3  A    between atoms: C_16  and  C_7 
REMARK    4  A    between atoms: O_17  and  C_8 
ROOT
ATOM      1  C   UNL d   1     -41.611-122.359 -51.779  0.00  0.00     0.126 A 
ATOM      2  C   UNL d   1     -41.717-122.846 -52.434  0.00  0.00     0.015 A 
ATOM      3  C   UNL d   1     -41.525-122.567 -53.179  0.00  0.00     0.001 A 
ATOM      4  C   UNL d   1     -41.316-121.600 -51.862  0.00  0.00     0.106 A 
ATOM      5  C   UNL d   1     -41.227-121.804 -53.274  0.00  0.00     0.002 A 
ATOM      6  C   UNL d   1     -41.123-121.320 -52.611  0.00  0.00     0.025 A 
ENDROOT
BRANCH   1   7
ATOM      7  S   UNL d   1     -41.803-122.638 -51.025  0.00  0.00     0.273 S 
ATOM      8  O   UNL d   1     -41.128-123.115 -51.029  0.00  0.00    -0.200 OA
ATOM      9  O   UNL d   1     -42.479-122.161 -51.021  0.00  0.00    -0.200 OA
BRANCH   7  10
ATOM     10  N   UNL d   1     -41.996-122.917 -50.270  0.00  0.00    -0.226 N 
ATOM     11  C   UNL d   1     -42.763-122.825 -49.980  0.00  0.00     0.111 A 
ATOM     12  C   UNL d   1     -42.958-123.100 -49.233  0.00  0.00     0.100 A 
ATOM     13  N   UNL d   1     -42.385-123.472 -48.763  0.00  0.00    -0.299 N 
ATOM     14  C   UNL d   1     -41.615-123.565 -49.053  0.00  0.00     0.100 A 
ATOM     15  C   UNL d   1     -42.587-123.748 -48.010  0.00  0.00     0.100 C 
ATOM     16  C   UNL d   1     -41.422-123.286 -49.807  0.00  0.00     0.111 A 
ENDBRANCH   7  10
ENDBRANCH   1   7
BRANCH   4  17
ATOM     17  O   UNL d   1     -41.214-121.120 -51.192  0.00  0.00    -0.327 OA
ATOM     18  C   UNL d   1     -41.168-120.303 -51.284  0.00  0.00     0.181 C 
ENDBRANCH   4  17
BRANCH   3  19
ATOM     19  C   UNL d   1     -41.630-123.052 -53.838  0.00  0.00     0.000 C 
ATOM     20  C   UNL d   1     -41.320-123.812 -53.847  0.00  0.00     0.000 C 
ATOM     21  C   UNL d   1     -42.050-122.766 -54.490  0.00  0.00     0.000 C 
ENDBRANCH   3  19
TORSDOF 4
ENDMDL
MODEL 2
REMARK VINA RESULT:      -2.3      1.214      4.236
REMARK  4 active torsions:
REMARK  status: ('A' for Active; 'I' for Inactive)
REMARK    1  A    between atoms: C_2  and  S_1 
REMARK    2  A    between atoms: N_3  and  S_1 
REMARK    3  A    between atoms: C_16  and  C_7 
REMARK    4  A    between atoms: O_17  and  C_8 
ROOT
ATOM      1  C   UNL d   1     -42.332-123.033 -49.405  0.00  0.00     0.126 A 
ATOM      2  C   UNL d   1     -41.771-123.037 -48.803  0.00  0.00     0.015 A 
ATOM      3  C   UNL d   1     -42.015-123.103 -48.025  0.00  0.00     0.001 A 
ATOM      4  C   UNL d   1     -43.130-123.095 -49.237  0.00  0.00     0.106 A 
ATOM      5  C   UNL d   1     -42.817-123.166 -47.844  0.00  0.00     0.002 A 
ATOM      6  C   UNL d   1     -43.376-123.162 -48.454  0.00  0.00     0.025 A 
ENDROOT
BRANCH   1   7
ATOM      7  S   UNL d   1     -42.089-122.967 -50.193  0.00  0.00     0.273 S 
ATOM      8  O   UNL d   1     -42.279-122.162 -50.183  0.00  0.00    -0.200 OA
ATOM      9  O   UNL d   1     -41.899-123.771 -50.203  0.00  0.00    -0.200 OA
BRANCH   7  10
ATOM     10  N   UNL d   1     -41.846-122.900 -50.981  0.00  0.00    -0.226 N 
ATOM     11  C   UNL d   1     -41.963-122.194 -51.391  0.00  0.00     0.111 A 
ATOM     12  C   UNL d   1     -41.724-122.124 -52.171  0.00  0.00     0.100 A 
ATOM     13  N   UNL d   1     -41.362-122.763 -52.555  0.00  0.00    -0.299 N 
ATOM     14  C   UNL d   1     -41.244-123.473 -52.145  0.00  0.00     0.100 A 
ATOM     15  C   UNL d   1     -41.123-122.688 -53.343  0.00  0.00     0.100 C 
ATOM     16  C   UNL d   1     -41.487-123.540 -51.358  0.00  0.00     0.111 A 
ENDBRANCH   7  10
ENDBRANCH   1   7
BRANCH   4  17
ATOM     17  O   UNL d   1     -43.686-123.091 -49.855  0.00  0.00    -0.327 OA
ATOM     18  C   UNL d   1     -44.468-123.297 -49.696  0.00  0.00     0.181 C 
ENDBRANCH   4  17
BRANCH   3  19
ATOM     19  C   UNL d   1     -41.455-123.107 -47.419  0.00  0.00     0.000 C 
ATOM     20  C   UNL d   1     -41.229-123.813 -47.067  0.00  0.00     0.000 C 
ATOM     21  C   UNL d   1     -41.123-122.392 -47.169  0.00  0.00     0.000 C 
ENDBRANCH   3  19
TORSDOF 4
ENDMDL
