MODEL 1
REMARK VINA RESULT:       2.1      0.000      0.000
REMARK  5 active torsions:
REMARK  status: ('A' for Active; 'I' for Inactive)
REMARK    1  A    between atoms: N_12  and  C_5 
REMARK    2  A    between atoms: C_21  and  N_9 
REMARK    3  A    between atoms: C_10  and  S_20 
REMARK    4  A    between atoms: S_20  and  C_26 
REMARK    5  A    between atoms: C_26  and  C_21 
ROOT
ATOM      1  C   UNL d   1      33.122  19.822 -21.762  0.00  0.00     0.191 A 
ATOM      2  C   UNL d   1      33.071  20.015 -22.558  0.00  0.00     0.173 A 
ATOM      3  N   UNL d   1      33.161  19.001 -21.699  0.00  0.00    -0.042 NA
ATOM      4  N   UNL d   1      33.128  20.417 -21.195  0.00  0.00    -0.240 N 
ATOM      5  C   UNL d   1      33.133  18.692 -22.461  0.00  0.00     0.722 A 
ATOM      6  N   UNL d   1      33.030  21.403 -22.218  0.00  0.00    -0.223 N 
ATOM      7  C   UNL d   1      33.081  21.210 -21.422  0.00  0.00     0.343 A 
ATOM      8  C   UNL d   1      33.024  20.804 -22.790  0.00  0.00     0.288 A 
ATOM      9  N   UNL d   1      33.077  19.317 -22.997  0.00  0.00    -0.132 N 
ATOM     10  O   UNL d   1      33.087  21.809 -20.842  0.00  0.00    -0.245 OA
ATOM     11  O   UNL d   1      32.972  21.000 -23.594  0.00  0.00    -0.265 OA
ATOM     12  C   UNL d   1      33.180  20.224 -20.400  0.00  0.00     0.105 C 
ATOM     13  C   UNL d   1      32.983  22.191 -22.446  0.00  0.00     0.107 C 
ENDROOT
BRANCH   9  14
ATOM     14  C   UNL d   1      33.035  19.252 -23.817  0.00  0.00     0.105 C 
BRANCH  14  15
ATOM     15  C   UNL d   1      32.377  19.549 -24.228  0.00  0.00     0.057 C 
BRANCH  15  16
ATOM     16  S   UNL d   1      32.132  19.181 -24.934  0.00  0.00    -0.059 SA
BRANCH  16  17
ATOM     17  C   UNL d   1      31.382  18.817 -24.968  0.00  0.00     0.141 A 
ATOM     18  N   UNL d   1      31.326  18.003 -25.004  0.00  0.00    -0.232 NA
ATOM     19  C   UNL d   1      30.537  17.803 -25.032  0.00  0.00     0.088 A 
ATOM     20  C   UNL d   1      30.162  17.065 -25.073  0.00  0.00     0.020 A 
ATOM     21  C   UNL d   1      30.096  18.484 -25.015  0.00  0.00     0.049 A 
ATOM     22  C   UNL d   1      29.334  17.024 -25.096  0.00  0.00     0.002 A 
ATOM     23  C   UNL d   1      28.896  17.707 -25.078  0.00  0.00     0.001 A 
ATOM     24  C   UNL d   1      29.277  18.444 -25.037  0.00  0.00     0.008 A 
ATOM     25  S   UNL d   1      30.630  19.130 -24.974  0.00  0.00    -0.060 SA
ENDBRANCH  16  17
ENDBRANCH  15  16
ENDBRANCH  14  15
ENDBRANCH   9  14
BRANCH   5  26
ATOM     26  N   UNL d   1      33.159  17.885 -22.612  0.00  0.00    -0.139 N 
ATOM     27  C   UNL d   1      33.148  17.346 -21.998  0.00  0.00     0.098 A 
ATOM     28  C   UNL d   1      33.174  16.527 -22.151  0.00  0.00     0.020 A 
ATOM     29  C   UNL d   1      33.213  16.264 -22.940  0.00  0.00     0.003 A 
ATOM     30  C   UNL d   1      33.224  16.807 -23.553  0.00  0.00     0.020 A 
ATOM     31  C   UNL d   1      33.240  15.454 -23.093  0.00  0.00     0.000 C 
ATOM     32  C   UNL d   1      33.198  17.616 -23.389  0.00  0.00     0.098 A 
ENDBRANCH   5  26
TORSDOF 5
ENDMDL
MODEL 2
REMARK VINA RESULT:       4.4      2.242      4.593
REMARK  5 active torsions:
REMARK  status: ('A' for Active; 'I' for Inactive)
REMARK    1  A    between atoms: N_12  and  C_5 
REMARK    2  A    between atoms: C_21  and  N_9 
REMARK    3  A    between atoms: C_10  and  S_20 
REMARK    4  A    between atoms: S_20  and  C_26 
REMARK    5  A    between atoms: C_26  and  C_21 
ROOT
ATOM      1  C   UNL d   1      29.037  16.867 -23.636  0.00  0.00     0.191 A 
ATOM      2  C   UNL d   1      29.287  17.625 -23.825  0.00  0.00     0.173 A 
ATOM      3  N   UNL d   1      29.663  16.349 -23.772  0.00  0.00    -0.042 NA
ATOM      4  N   UNL d   1      28.271  16.744 -23.365  0.00  0.00    -0.240 N 
ATOM      5  C   UNL d   1      30.299  16.793 -24.045  0.00  0.00     0.722 A 
ATOM      6  N   UNL d   1      28.001  18.138 -23.470  0.00  0.00    -0.223 N 
ATOM      7  C   UNL d   1      27.751  17.380 -23.281  0.00  0.00     0.343 A 
ATOM      8  C   UNL d   1      28.772  18.263 -23.743  0.00  0.00     0.288 A 
ATOM      9  N   UNL d   1      30.071  17.586 -24.080  0.00  0.00    -0.132 N 
ATOM     10  O   UNL d   1      26.974  17.248 -23.005  0.00  0.00    -0.245 OA
ATOM     11  O   UNL d   1      29.025  19.029 -23.934  0.00  0.00    -0.265 OA
ATOM     12  C   UNL d   1      28.021  15.986 -23.177  0.00  0.00     0.105 C 
ATOM     13  C   UNL d   1      27.485  18.772 -23.387  0.00  0.00     0.107 C 
ENDROOT
BRANCH   9  14
ATOM     14  C   UNL d   1      30.541  18.217 -24.324  0.00  0.00     0.105 C 
BRANCH  14  15
ATOM     15  C   UNL d   1      31.154  18.495 -23.838  0.00  0.00     0.057 C 
BRANCH  15  16
ATOM     16  S   UNL d   1      31.557  19.194 -24.045  0.00  0.00    -0.059 SA
BRANCH  16  17
ATOM     17  C   UNL d   1      31.917  19.652 -23.447  0.00  0.00     0.141 A 
ATOM     18  N   UNL d   1      32.271  19.283 -22.809  0.00  0.00    -0.232 NA
ATOM     19  C   UNL d   1      32.574  19.858 -22.318  0.00  0.00     0.088 A 
ATOM     20  C   UNL d   1      32.985  19.802 -21.601  0.00  0.00     0.020 A 
ATOM     21  C   UNL d   1      32.415  20.585 -22.641  0.00  0.00     0.049 A 
ATOM     22  C   UNL d   1      33.233  20.491 -21.213  0.00  0.00     0.002 A 
ATOM     23  C   UNL d   1      33.072  21.217 -21.539  0.00  0.00     0.001 A 
ATOM     24  C   UNL d   1      32.660  21.268 -22.258  0.00  0.00     0.008 A 
ATOM     25  S   UNL d   1      31.997  20.458 -23.359  0.00  0.00    -0.060 SA
ENDBRANCH  16  17
ENDBRANCH  15  16
ENDBRANCH  14  15
ENDBRANCH   9  14
BRANCH   5  26
ATOM     26  N   UNL d   1      31.023  16.458 -24.238  0.00  0.00    -0.139 N 
ATOM     27  C   UNL d   1      31.098  15.980 -24.897  0.00  0.00     0.098 A 
ATOM     28  C   UNL d   1      31.833  15.639 -25.094  0.00  0.00     0.020 A 
ATOM     29  C   UNL d   1      32.492  15.792 -24.609  0.00  0.00     0.003 A 
ATOM     30  C   UNL d   1      32.414  16.271 -23.949  0.00  0.00     0.020 A 
ATOM     31  C   UNL d   1      33.220  15.455 -24.803  0.00  0.00     0.000 C 
ATOM     32  C   UNL d   1      31.681  16.603 -23.765  0.00  0.00     0.098 A 
ENDBRANCH   5  26
TORSDOF 5
ENDMDL
