MODEL 1
REMARK VINA RESULT:      -9.6      0.000      0.000
REMARK  3 active torsions:
REMARK  status: ('A' for Active; 'I' for Inactive)
REMARK    1  A    between atoms: C_2  and  C_4 
REMARK    2  A    between atoms: N_3  and  C_2 
REMARK    3  A    between atoms: C_5  and  N_3 
ROOT
ATOM      1  C   UNL d   1      53.497  32.389  53.392  0.00  0.00     0.153 C 
ATOM      2  S   UNL d   1      54.270  32.651  53.499  0.00  0.00    -0.056 SA
ENDROOT
BRANCH   1   3
ATOM      3  C   UNL d   1      53.331  31.582  53.412  0.00  0.00     0.109 A 
ATOM      4  N   UNL d   1      53.518  31.134  54.093  0.00  0.00    -0.243 NA
ATOM      5  C   UNL d   1      53.350  30.324  54.111  0.00  0.00     0.081 A 
ATOM      6  C   UNL d   1      52.999  29.960  53.454  0.00  0.00     0.018 A 
ATOM      7  C   UNL d   1      53.533  29.880  54.780  0.00  0.00     0.019 A 
ATOM      8  C   UNL d   1      52.814  30.403  52.780  0.00  0.00     0.003 A 
ATOM      9  C   UNL d   1      52.835  29.156  53.476  0.00  0.00     0.002 A 
ATOM     10  C   UNL d   1      52.980  31.210  52.760  0.00  0.00     0.021 A 
ATOM     11  C   UNL d   1      53.015  28.711  54.140  0.00  0.00     0.000 A 
ATOM     12  C   UNL d   1      53.363  29.073  54.791  0.00  0.00     0.002 A 
ENDBRANCH   1   3
BRANCH   1  13
ATOM     13  N   UNL d   1      52.888  32.930  53.265  0.00  0.00    -0.233 NA
BRANCH  13  14
ATOM     14  C   UNL d   1      52.923  33.678  53.620  0.00  0.00     0.082 A 
ATOM     15  C   UNL d   1      52.445  34.290  53.324  0.00  0.00     0.018 A 
ATOM     16  C   UNL d   1      52.485  35.035  53.684  0.00  0.00     0.002 A 
ATOM     17  C   UNL d   1      51.943  34.158  52.686  0.00  0.00     0.002 C 
ATOM     18  C   UNL d   1      52.986  35.167  54.321  0.00  0.00     0.000 A 
ATOM     19  C   UNL d   1      53.459  34.553  54.610  0.00  0.00     0.002 A 
ATOM     20  C   UNL d   1      53.020  35.915  54.675  0.00  0.00     0.000 C 
ATOM     21  C   UNL d   1      53.427  33.807  54.259  0.00  0.00     0.019 A 
ENDBRANCH  13  14
ENDBRANCH   1  13
TORSDOF 3
ENDMDL
MODEL 2
REMARK VINA RESULT:      -8.9      0.930      4.353
REMARK  3 active torsions:
REMARK  status: ('A' for Active; 'I' for Inactive)
REMARK    1  A    between atoms: C_2  and  C_4 
REMARK    2  A    between atoms: N_3  and  C_2 
REMARK    3  A    between atoms: C_5  and  N_3 
ROOT
ATOM      1  C   UNL d   1      53.328  32.158  53.504  0.00  0.00     0.153 C 
ATOM      2  S   UNL d   1      53.978  32.211  54.006  0.00  0.00    -0.056 SA
ENDROOT
BRANCH   1   3
ATOM      3  C   UNL d   1      52.864  32.826  53.362  0.00  0.00     0.109 A 
ATOM      4  N   UNL d   1      52.035  32.749  53.289  0.00  0.00    -0.243 NA
ATOM      5  C   UNL d   1      51.571  33.420  53.147  0.00  0.00     0.081 A 
ATOM      6  C   UNL d   1      51.932  34.163  53.077  0.00  0.00     0.018 A 
ATOM      7  C   UNL d   1      50.754  33.348  53.075  0.00  0.00     0.019 A 
ATOM      8  C   UNL d   1      52.752  34.239  53.149  0.00  0.00     0.003 A 
ATOM      9  C   UNL d   1      51.467  34.827  52.936  0.00  0.00     0.002 A 
ATOM     10  C   UNL d   1      53.215  33.572  53.291  0.00  0.00     0.021 A 
ATOM     11  C   UNL d   1      50.654  34.759  52.864  0.00  0.00     0.000 A 
ATOM     12  C   UNL d   1      50.298  34.021  52.933  0.00  0.00     0.002 A 
ENDBRANCH   1   3
BRANCH   1  13
ATOM     13  N   UNL d   1      53.138  31.442  53.142  0.00  0.00    -0.233 NA
BRANCH  13  14
ATOM     14  C   UNL d   1      53.208  30.736  53.568  0.00  0.00     0.082 A 
ATOM     15  C   UNL d   1      53.078  30.013  53.179  0.00  0.00     0.018 A 
ATOM     16  C   UNL d   1      53.150  29.311  53.612  0.00  0.00     0.002 A 
ATOM     17  C   UNL d   1      52.883  29.996  52.381  0.00  0.00     0.002 C 
ATOM     18  C   UNL d   1      53.345  29.328  54.410  0.00  0.00     0.000 A 
ATOM     19  C   UNL d   1      53.473  30.051  54.791  0.00  0.00     0.002 A 
ATOM     20  C   UNL d   1      53.415  28.620  54.836  0.00  0.00     0.000 C 
ATOM     21  C   UNL d   1      53.404  30.756  54.368  0.00  0.00     0.019 A 
ENDBRANCH  13  14
ENDBRANCH   1  13
TORSDOF 3
ENDMDL
MODEL 3
REMARK VINA RESULT:      -8.7      1.911      4.328
REMARK  3 active torsions:
REMARK  status: ('A' for Active; 'I' for Inactive)
REMARK    1  A    between atoms: C_2  and  C_4 
REMARK    2  A    between atoms: N_3  and  C_2 
REMARK    3  A    between atoms: C_5  and  N_3 
ROOT
ATOM      1  C   UNL d   1      52.161  34.234  53.109  0.00  0.00     0.153 C 
ATOM      2  S   UNL d   1      52.661  34.885  53.169  0.00  0.00    -0.056 SA
ENDROOT
BRANCH   1   3
ATOM      3  C   UNL d   1      51.436  34.307  52.723  0.00  0.00     0.109 A 
ATOM      4  N   UNL d   1      50.785  34.647  53.121  0.00  0.00    -0.243 NA
ATOM      5  C   UNL d   1      50.058  34.720  52.731  0.00  0.00     0.081 A 
ATOM      6  C   UNL d   1      49.980  34.454  51.950  0.00  0.00     0.018 A 
ATOM      7  C   UNL d   1      49.414  35.054  53.120  0.00  0.00     0.019 A 
ATOM      8  C   UNL d   1      50.625  34.117  51.556  0.00  0.00     0.003 A 
ATOM      9  C   UNL d   1      49.257  34.528  51.567  0.00  0.00     0.002 A 
ATOM     10  C   UNL d   1      51.350  34.044  51.942  0.00  0.00     0.021 A 
ATOM     11  C   UNL d   1      48.614  34.860  51.950  0.00  0.00     0.000 A 
ATOM     12  C   UNL d   1      48.692  35.123  52.726  0.00  0.00     0.002 A 
ENDBRANCH   1   3
BRANCH   1  13
ATOM     13  N   UNL d   1      52.383  33.509  53.434  0.00  0.00    -0.233 NA
BRANCH  13  14
ATOM     14  C   UNL d   1      53.015  33.474  53.967  0.00  0.00     0.082 A 
ATOM     15  C   UNL d   1      53.469  32.779  54.012  0.00  0.00     0.018 A 
ATOM     16  C   UNL d   1      54.100  32.751  54.548  0.00  0.00     0.002 A 
ATOM     17  C   UNL d   1      53.295  32.133  53.535  0.00  0.00     0.002 C 
ATOM     18  C   UNL d   1      54.275  33.397  55.025  0.00  0.00     0.000 A 
ATOM     19  C   UNL d   1      53.818  34.085  54.974  0.00  0.00     0.002 A 
ATOM     20  C   UNL d   1      54.908  33.361  55.558  0.00  0.00     0.000 C 
ATOM     21  C   UNL d   1      53.187  34.123  54.444  0.00  0.00     0.019 A 
ENDBRANCH  13  14
ENDBRANCH   1  13
TORSDOF 3
ENDMDL
MODEL 4
REMARK VINA RESULT:      -8.5      2.155      3.836
REMARK  3 active torsions:
REMARK  status: ('A' for Active; 'I' for Inactive)
REMARK    1  A    between atoms: C_2  and  C_4 
REMARK    2  A    between atoms: N_3  and  C_2 
REMARK    3  A    between atoms: C_5  and  N_3 
ROOT
ATOM      1  C   UNL d   1      51.733  34.280  52.841  0.00  0.00     0.153 C 
ATOM      2  S   UNL d   1      51.899  34.270  52.035  0.00  0.00    -0.056 SA
ENDROOT
BRANCH   1   3
ATOM      3  C   UNL d   1      52.346  34.197  53.387  0.00  0.00     0.109 A 
ATOM      4  N   UNL d   1      52.606  33.435  53.610  0.00  0.00    -0.243 NA
ATOM      5  C   UNL d   1      53.221  33.354  54.158  0.00  0.00     0.081 A 
ATOM      6  C   UNL d   1      53.575  34.030  54.483  0.00  0.00     0.018 A 
ATOM      7  C   UNL d   1      53.480  32.605  54.380  0.00  0.00     0.019 A 
ATOM      8  C   UNL d   1      53.318  34.785  54.263  0.00  0.00     0.003 A 
ATOM      9  C   UNL d   1      54.185  33.945  55.027  0.00  0.00     0.002 A 
ATOM     10  C   UNL d   1      52.705  34.867  53.717  0.00  0.00     0.021 A 
ATOM     11  C   UNL d   1      54.446  33.202  55.250  0.00  0.00     0.000 A 
ATOM     12  C   UNL d   1      54.094  32.532  54.927  0.00  0.00     0.002 A 
ENDBRANCH   1   3
BRANCH   1  13
ATOM     13  N   UNL d   1      50.958  34.371  53.105  0.00  0.00    -0.233 NA
BRANCH  13  14
ATOM     14  C   UNL d   1      50.343  34.442  52.555  0.00  0.00     0.082 A 
ATOM     15  C   UNL d   1      49.635  34.812  52.784  0.00  0.00     0.018 A 
ATOM     16  C   UNL d   1      49.024  34.879  52.229  0.00  0.00     0.002 A 
ATOM     17  C   UNL d   1      49.543  35.105  53.546  0.00  0.00     0.002 C 
ATOM     18  C   UNL d   1      49.116  34.586  51.466  0.00  0.00     0.000 A 
ATOM     19  C   UNL d   1      49.823  34.219  51.246  0.00  0.00     0.002 A 
ATOM     20  C   UNL d   1      48.500  34.657  50.917  0.00  0.00     0.000 C 
ATOM     21  C   UNL d   1      50.438  34.147  51.792  0.00  0.00     0.019 A 
ENDBRANCH  13  14
ENDBRANCH   1  13
TORSDOF 3
ENDMDL
MODEL 5
REMARK VINA RESULT:      -8.4      1.491      2.431
REMARK  3 active torsions:
REMARK  status: ('A' for Active; 'I' for Inactive)
REMARK    1  A    between atoms: C_2  and  C_4 
REMARK    2  A    between atoms: N_3  and  C_2 
REMARK    3  A    between atoms: C_5  and  N_3 
ROOT
ATOM      1  C   UNL d   1      52.329  33.643  53.172  0.00  0.00     0.153 C 
ATOM      2  S   UNL d   1      52.458  34.295  53.658  0.00  0.00    -0.056 SA
ENDROOT
BRANCH   1   3
ATOM      3  C   UNL d   1      52.747  32.944  53.303  0.00  0.00     0.109 A 
ATOM      4  N   UNL d   1      52.422  32.213  53.062  0.00  0.00    -0.243 NA
ATOM      5  C   UNL d   1      52.844  31.512  53.194  0.00  0.00     0.081 A 
ATOM      6  C   UNL d   1      53.585  31.541  53.564  0.00  0.00     0.018 A 
ATOM      7  C   UNL d   1      52.527  30.790  52.958  0.00  0.00     0.019 A 
ATOM      8  C   UNL d   1      53.907  32.265  53.803  0.00  0.00     0.003 A 
ATOM      9  C   UNL d   1      54.000  30.843  53.694  0.00  0.00     0.002 A 
ATOM     10  C   UNL d   1      53.489  32.963  53.672  0.00  0.00     0.021 A 
ATOM     11  C   UNL d   1      53.688  30.123  53.460  0.00  0.00     0.000 A 
ATOM     12  C   UNL d   1      52.953  30.096  53.093  0.00  0.00     0.002 A 
ENDBRANCH   1   3
BRANCH   1  13
ATOM     13  N   UNL d   1      51.784  33.686  52.556  0.00  0.00    -0.233 NA
BRANCH  13  14
ATOM     14  C   UNL d   1      51.069  34.088  52.667  0.00  0.00     0.082 A 
ATOM     15  C   UNL d   1      50.613  34.296  52.004  0.00  0.00     0.018 A 
ATOM     16  C   UNL d   1      49.899  34.698  52.123  0.00  0.00     0.002 A 
ATOM     17  C   UNL d   1      50.866  34.106  51.245  0.00  0.00     0.002 C 
ATOM     18  C   UNL d   1      49.645  34.888  52.881  0.00  0.00     0.000 A 
ATOM     19  C   UNL d   1      50.104  34.678  53.536  0.00  0.00     0.002 A 
ATOM     20  C   UNL d   1      48.929  35.290  52.992  0.00  0.00     0.000 C 
ATOM     21  C   UNL d   1      50.818  34.277  53.428  0.00  0.00     0.019 A 
ENDBRANCH  13  14
ENDBRANCH   1  13
TORSDOF 3
ENDMDL
