MODEL 1
REMARK VINA RESULT:     115.6      0.000      0.000
REMARK  4 active torsions:
REMARK  status: ('A' for Active; 'I' for Inactive)
REMARK    1  A    between atoms: C_2  and  S_1 
REMARK    2  A    between atoms: C_15  and  S_1 
REMARK    3  A    between atoms: C_5  and  C_3 
REMARK    4  A    between atoms: C_16  and  C_5 
ROOT
ATOM      1  C   UNL d   1     -48.244  30.122  34.692  0.00  0.00     0.094 A 
ATOM      2  C   UNL d   1     -48.796  29.554  34.457  0.00  0.00     0.069 A 
ATOM      3  C   UNL d   1     -48.251  30.870  34.346  0.00  0.00     0.031 A 
ATOM      4  C   UNL d   1     -48.807  31.052  33.766  0.00  0.00     0.084 A 
ATOM      5  C   UNL d   1     -47.700  31.436  34.582  0.00  0.00     0.029 A 
ATOM      6  N   UNL d   1     -49.358  30.486  33.530  0.00  0.00    -0.244 NA
ATOM      7  C   UNL d   1     -49.352  29.735  33.877  0.00  0.00     0.103 A 
ATOM      8  C   UNL d   1     -48.814  31.799  33.420  0.00  0.00     0.046 A 
ATOM      9  C   UNL d   1     -47.707  32.183  34.236  0.00  0.00     0.123 A 
ATOM     10  C   UNL d   1     -48.264  32.364  33.655  0.00  0.00     0.124 A 
ATOM     11  O   UNL d   1     -47.157  32.748  34.471  0.00  0.00    -0.301 OA
ATOM     12  O   UNL d   1     -48.271  33.111  33.309  0.00  0.00    -0.301 OA
ATOM     13  C   UNL d   1     -47.161  33.503  34.124  0.00  0.00     0.149 A 
ATOM     14  C   UNL d   1     -47.717  33.684  33.544  0.00  0.00     0.149 A 
ENDROOT
BRANCH   1  15
ATOM     15  S   UNL d   1     -47.684  29.949  35.273  0.00  0.00     0.210 S 
ATOM     16  O   UNL d   1     -48.192  30.261  35.843  0.00  0.00    -0.217 OA
ATOM     17  O   UNL d   1     -47.176  29.637  34.702  0.00  0.00    -0.217 OA
BRANCH  15  18
ATOM     18  C   UNL d   1     -47.135  29.783  35.866  0.00  0.00     0.088 A 
ATOM     19  C   UNL d   1     -46.437  29.383  35.686  0.00  0.00     0.011 A 
ATOM     20  C   UNL d   1     -45.890  29.219  36.288  0.00  0.00     0.001 A 
ATOM     21  C   UNL d   1     -46.045  29.456  37.061  0.00  0.00     0.000 A 
ATOM     22  C   UNL d   1     -46.738  29.853  37.241  0.00  0.00     0.001 A 
ATOM     23  C   UNL d   1     -47.290  30.019  36.640  0.00  0.00     0.011 A 
ENDBRANCH  15  18
ENDBRANCH   1  15
BRANCH   2  24
ATOM     24  C   UNL d   1     -48.792  28.799  34.804  0.00  0.00     0.198 C 
ATOM     25  O   UNL d   1     -48.400  28.674  35.519  0.00  0.00    -0.286 OA
BRANCH  24  26
ATOM     26  C   UNL d   1     -49.182  28.174  34.432  0.00  0.00     0.039 A 
ATOM     27  C   UNL d   1     -49.847  28.316  33.956  0.00  0.00     0.003 A 
ATOM     28  C   UNL d   1     -50.238  27.692  33.583  0.00  0.00     0.000 A 
ATOM     29  C   UNL d   1     -49.971  26.917  33.679  0.00  0.00     0.000 A 
ATOM     30  C   UNL d   1     -49.298  26.774  34.160  0.00  0.00     0.000 A 
ATOM     31  C   UNL d   1     -50.353  26.291  33.312  0.00  0.00     0.000 C 
ATOM     32  C   UNL d   1     -48.906  27.395  34.533  0.00  0.00     0.003 A 
ENDBRANCH  24  26
ENDBRANCH   2  24
TORSDOF 4
ENDMDL
