MODEL 1
REMARK VINA RESULT:      64.8      0.000      0.000
REMARK  5 active torsions:
REMARK  status: ('A' for Active; 'I' for Inactive)
REMARK    1  A    between atoms: C_10  and  C_1 
REMARK    2  A    between atoms: C_16  and  C_2 
REMARK    3  A    between atoms: C_7  and  C_14 
REMARK    4  A    between atoms: C_13  and  C_10 
REMARK    5  A    between atoms: C_14  and  C_13 
ROOT
ATOM      1  C   UNL d   1     -50.899  26.135  33.538  0.00  0.00     0.097 A 
ATOM      2  C   UNL d   1     -51.074  25.307  33.510  0.00  0.00     0.009 A 
ATOM      3  C   UNL d   1     -51.505  26.687  33.498  0.00  0.00     0.282 A 
ATOM      4  C   UNL d   1     -51.848  25.087  33.443  0.00  0.00     0.019 A 
ATOM      5  N   UNL d   1     -52.309  26.434  33.429  0.00  0.00    -0.208 NA
ATOM      6  C   UNL d   1     -52.454  25.639  33.403  0.00  0.00     0.085 A 
ATOM      7  C   UNL d   1     -52.016  24.267  33.415  0.00  0.00     0.013 A 
ATOM      8  C   UNL d   1     -53.252  25.393  33.334  0.00  0.00     0.020 A 
ATOM      9  O   UNL d   1     -51.336  27.508  33.526  0.00  0.00    -0.265 OA
ATOM     10  C   UNL d   1     -52.821  24.014  33.346  0.00  0.00     0.058 A 
ATOM     11  C   UNL d   1     -53.426  24.565  33.306  0.00  0.00     0.013 A 
ATOM     12 CL   UNL d   1     -52.989  23.192  33.318  0.00  0.00    -0.082 Cl
ENDROOT
BRANCH   1  13
ATOM     13  C   UNL d   1     -50.100  26.382  33.607  0.00  0.00     0.200 C 
ATOM     14  O   UNL d   1     -49.465  25.890  33.312  0.00  0.00    -0.286 OA
BRANCH  13  15
ATOM     15  C   UNL d   1     -49.909  27.098  33.958  0.00  0.00     0.045 C 
BRANCH  15  16
ATOM     16  C   UNL d   1     -49.512  27.164  34.691  0.00  0.00     0.042 C 
BRANCH  16  17
ATOM     17  C   UNL d   1     -49.013  27.816  34.862  0.00  0.00     0.163 A 
ATOM     18  N   UNL d   1     -48.696  28.393  34.384  0.00  0.00    -0.225 NA
ATOM     19  C   UNL d   1     -48.251  28.882  34.870  0.00  0.00     0.101 A 
ATOM     20  C   UNL d   1     -47.810  29.552  34.685  0.00  0.00     0.021 A 
ATOM     21  C   UNL d   1     -48.288  28.622  35.616  0.00  0.00     0.101 A 
ATOM     22  C   UNL d   1     -47.402  29.951  35.305  0.00  0.00     0.002 A 
ATOM     23  C   UNL d   1     -47.461  29.655  36.066  0.00  0.00     0.002 A 
ATOM     24  C   UNL d   1     -47.915  28.983  36.198  0.00  0.00     0.021 A 
ATOM     25  N   UNL d   1     -48.782  27.923  35.643  0.00  0.00    -0.225 NA
ENDBRANCH  16  17
ENDBRANCH  15  16
ENDBRANCH  13  15
ENDBRANCH   1  13
BRANCH   2  26
ATOM     26  C   UNL d   1     -50.442  24.731  33.551  0.00  0.00     0.000 A 
ATOM     27  C   UNL d   1     -50.624  23.984  33.850  0.00  0.00     0.000 A 
ATOM     28  C   UNL d   1     -50.048  23.403  33.907  0.00  0.00     0.000 A 
ATOM     29  C   UNL d   1     -49.238  23.635  33.630  0.00  0.00     0.000 A 
ATOM     30  C   UNL d   1     -49.092  24.358  33.348  0.00  0.00     0.000 A 
ATOM     31  C   UNL d   1     -49.723  24.933  33.307  0.00  0.00     0.000 A 
ENDBRANCH   2  26
TORSDOF 5
ENDMDL
