MODEL 1
REMARK VINA RESULT:      -7.3      0.000      0.000
REMARK  5 active torsions:
REMARK  status: ('A' for Active; 'I' for Inactive)
REMARK    1  A    between atoms: C_10  and  C_4 
REMARK    2  A    between atoms: C_19  and  N_5 
REMARK       I    between atoms: N_11  and  C_10 
REMARK    3  A    between atoms: C_22  and  C_19 
REMARK    4  A    between atoms: C_26  and  C_22 
REMARK    5  A    between atoms: O_23  and  C_26 
ROOT
ATOM      1  C   UNL d   1     -47.929  13.880  23.082  0.00  0.00     0.154 A 
ATOM      2  C   UNL d   1     -47.648  14.544  22.680  0.00  0.00     0.093 A 
ATOM      3  N   UNL d   1     -48.698  13.848  23.328  0.00  0.00    -0.210 NA
ATOM      4  C   UNL d   1     -46.690  13.301  22.989  0.00  0.00     0.122 A 
ATOM      5  N   UNL d   1     -47.452  13.265  23.234  0.00  0.00    -0.286 N 
ATOM      6  C   UNL d   1     -48.130  15.172  22.524  0.00  0.00     0.269 A 
ATOM      7  N   UNL d   1     -48.899  15.130  22.775  0.00  0.00    -0.258 N 
ATOM      8  C   UNL d   1     -49.179  14.466  23.177  0.00  0.00     0.152 A 
ATOM      9  C   UNL d   1     -46.414  13.954  22.593  0.00  0.00     0.030 A 
ATOM     10  C   UNL d   1     -49.374  15.760  22.616  0.00  0.00     0.084 A 
ATOM     11  O   UNL d   1     -47.850  15.836  22.122  0.00  0.00    -0.266 OA
ATOM     12  C   UNL d   1     -49.935  14.432  23.420  0.00  0.00     0.038 A 
ATOM     13  C   UNL d   1     -50.137  15.709  22.869  0.00  0.00     0.019 A 
ATOM     14  C   UNL d   1     -50.417  15.045  23.271  0.00  0.00     0.005 A 
ENDROOT
BRANCH   4  15
ATOM     15  C   UNL d   1     -46.202  12.668  23.145  0.00  0.00     0.281 C 
ATOM     16  N   UNL d   1     -45.473  12.610  22.739  0.00  0.00    -0.267 N 
ATOM     17  C   UNL d   1     -44.969  11.961  22.898  0.00  0.00     0.110 A 
ATOM     18  C   UNL d   1     -45.255  13.195  22.182  0.00  0.00     0.110 A 
ATOM     19  C   UNL d   1     -44.238  11.897  22.494  0.00  0.00     0.142 A 
ATOM     20  O   UNL d   1     -44.012  12.479  21.934  0.00  0.00    -0.300 OA
ATOM     21  C   UNL d   1     -44.522  13.126  21.780  0.00  0.00     0.142 A 
ATOM     22  O   UNL d   1     -46.427  12.101  23.694  0.00  0.00    -0.265 OA
ENDBRANCH   4  15
BRANCH   5  23
ATOM     23  C   UNL d   1     -47.743  12.599  23.641  0.00  0.00     0.084 C 
BRANCH  23  24
ATOM     24  C   UNL d   1     -48.231  12.050  23.250  0.00  0.00     0.045 C 
BRANCH  24  25
ATOM     25  C   UNL d   1     -48.624  11.462  23.691  0.00  0.00     0.118 C 
BRANCH  25  26
ATOM     26  O   UNL d   1     -49.210  11.000  23.326  0.00  0.00    -0.326 OA
ATOM     27  C   UNL d   1     -49.955  10.901  23.697  0.00  0.00     0.181 C 
ENDBRANCH  25  26
ENDBRANCH  24  25
ENDBRANCH  23  24
ENDBRANCH   5  23
TORSDOF 5
ENDMDL
MODEL 2
REMARK VINA RESULT:      -6.7      6.092      8.699
REMARK  5 active torsions:
REMARK  status: ('A' for Active; 'I' for Inactive)
REMARK    1  A    between atoms: C_10  and  C_4 
REMARK    2  A    between atoms: C_19  and  N_5 
REMARK       I    between atoms: N_11  and  C_10 
REMARK    3  A    between atoms: C_22  and  C_19 
REMARK    4  A    between atoms: C_26  and  C_22 
REMARK    5  A    between atoms: O_23  and  C_26 
ROOT
ATOM      1  C   UNL d   1     -39.781  14.902  19.554  0.00  0.00     0.154 A 
ATOM      2  C   UNL d   1     -39.035  14.949  19.206  0.00  0.00     0.093 A 
ATOM      3  N   UNL d   1     -40.446  14.970  19.100  0.00  0.00    -0.210 NA
ATOM      4  C   UNL d   1     -39.198  14.722  20.782  0.00  0.00     0.122 A 
ATOM      5  N   UNL d   1     -39.860  14.790  20.335  0.00  0.00    -0.286 N 
ATOM      6  C   UNL d   1     -38.950  15.063  18.412  0.00  0.00     0.269 A 
ATOM      7  N   UNL d   1     -39.623  15.130  17.967  0.00  0.00    -0.258 N 
ATOM      8  C   UNL d   1     -40.370  15.083  18.314  0.00  0.00     0.152 A 
ATOM      9  C   UNL d   1     -38.463  14.768  20.439  0.00  0.00     0.030 A 
ATOM     10  C   UNL d   1     -39.532  15.244  17.175  0.00  0.00     0.084 A 
ATOM     11  O   UNL d   1     -38.203  15.110  18.064  0.00  0.00    -0.266 OA
ATOM     12  C   UNL d   1     -41.025  15.150  17.870  0.00  0.00     0.038 A 
ATOM     13  C   UNL d   1     -40.206  15.310  16.740  0.00  0.00     0.019 A 
ATOM     14  C   UNL d   1     -40.952  15.263  17.088  0.00  0.00     0.005 A 
ENDROOT
BRANCH   4  15
ATOM     15  C   UNL d   1     -39.280  14.607  21.583  0.00  0.00     0.281 C 
ATOM     16  N   UNL d   1     -38.858  13.985  21.948  0.00  0.00    -0.267 N 
ATOM     17  C   UNL d   1     -38.941  13.864  22.771  0.00  0.00     0.110 A 
ATOM     18  C   UNL d   1     -38.360  13.491  21.490  0.00  0.00     0.110 A 
ATOM     19  C   UNL d   1     -38.520  13.241  23.142  0.00  0.00     0.142 A 
ATOM     20  O   UNL d   1     -38.019  12.743  22.692  0.00  0.00    -0.300 OA
ATOM     21  C   UNL d   1     -37.940  12.869  21.866  0.00  0.00     0.142 A 
ATOM     22  O   UNL d   1     -39.772  15.098  22.021  0.00  0.00    -0.265 OA
ENDBRANCH   4  15
BRANCH   5  23
ATOM     23  C   UNL d   1     -40.618  14.743  20.678  0.00  0.00     0.084 C 
BRANCH  23  24
ATOM     24  C   UNL d   1     -41.088  14.067  20.565  0.00  0.00     0.045 C 
BRANCH  24  25
ATOM     25  C   UNL d   1     -41.846  14.031  20.908  0.00  0.00     0.118 C 
BRANCH  25  26
ATOM     26  O   UNL d   1     -42.162  13.294  21.128  0.00  0.00    -0.326 OA
ATOM     27  C   UNL d   1     -42.992  13.192  21.174  0.00  0.00     0.181 C 
ENDBRANCH  25  26
ENDBRANCH  24  25
ENDBRANCH  23  24
ENDBRANCH   5  23
TORSDOF 5
ENDMDL
MODEL 3
REMARK VINA RESULT:      -5.8      1.059      2.834
REMARK  5 active torsions:
REMARK  status: ('A' for Active; 'I' for Inactive)
REMARK    1  A    between atoms: C_10  and  C_4 
REMARK    2  A    between atoms: C_19  and  N_5 
REMARK       I    between atoms: N_11  and  C_10 
REMARK    3  A    between atoms: C_22  and  C_19 
REMARK    4  A    between atoms: C_26  and  C_22 
REMARK    5  A    between atoms: O_23  and  C_26 
ROOT
ATOM      1  C   UNL d   1     -48.367  12.812  23.347  0.00  0.00     0.154 A 
ATOM      2  C   UNL d   1     -48.205  12.011  23.461  0.00  0.00     0.093 A 
ATOM      3  N   UNL d   1     -49.130  13.078  23.351  0.00  0.00    -0.210 NA
ATOM      4  C   UNL d   1     -47.024  13.066  23.230  0.00  0.00     0.122 A 
ATOM      5  N   UNL d   1     -47.780  13.334  23.233  0.00  0.00    -0.286 N 
ATOM      6  C   UNL d   1     -48.799  11.478  23.578  0.00  0.00     0.269 A 
ATOM      7  N   UNL d   1     -49.560  11.755  23.580  0.00  0.00    -0.258 N 
ATOM      8  C   UNL d   1     -49.722  12.556  23.466  0.00  0.00     0.152 A 
ATOM      9  C   UNL d   1     -46.866  12.278  23.342  0.00  0.00     0.030 A 
ATOM     10  C   UNL d   1     -50.148  11.218  23.697  0.00  0.00     0.084 A 
ATOM     11  O   UNL d   1     -48.638  10.677  23.691  0.00  0.00    -0.266 OA
ATOM     12  C   UNL d   1     -50.471  12.820  23.470  0.00  0.00     0.038 A 
ATOM     13  C   UNL d   1     -50.901  11.502  23.697  0.00  0.00     0.019 A 
ATOM     14  C   UNL d   1     -51.063  12.303  23.584  0.00  0.00     0.005 A 
ENDROOT
BRANCH   4  15
ATOM     15  C   UNL d   1     -46.423  13.602  23.112  0.00  0.00     0.281 C 
ATOM     16  N   UNL d   1     -45.796  13.400  22.599  0.00  0.00    -0.267 N 
ATOM     17  C   UNL d   1     -45.176  13.948  22.476  0.00  0.00     0.110 A 
ATOM     18  C   UNL d   1     -45.791  12.656  22.214  0.00  0.00     0.110 A 
ATOM     19  C   UNL d   1     -44.545  13.751  21.962  0.00  0.00     0.142 A 
ATOM     20  O   UNL d   1     -44.532  13.008  21.573  0.00  0.00    -0.300 OA
ATOM     21  C   UNL d   1     -45.156  12.463  21.701  0.00  0.00     0.142 A 
ATOM     22  O   UNL d   1     -46.439  14.328  23.495  0.00  0.00    -0.265 OA
ENDBRANCH   4  15
BRANCH   5  23
ATOM     23  C   UNL d   1     -47.951  14.141  23.119  0.00  0.00     0.084 C 
BRANCH  23  24
ATOM     24  C   UNL d   1     -48.330  14.394  22.423  0.00  0.00     0.045 C 
BRANCH  24  25
ATOM     25  C   UNL d   1     -48.475  15.206  22.306  0.00  0.00     0.118 C 
BRANCH  25  26
ATOM     26  O   UNL d   1     -48.967  15.449  21.682  0.00  0.00    -0.326 OA
ATOM     27  C   UNL d   1     -49.779  15.600  21.825  0.00  0.00     0.181 C 
ENDBRANCH  25  26
ENDBRANCH  24  25
ENDBRANCH  23  24
ENDBRANCH   5  23
TORSDOF 5
ENDMDL
MODEL 4
REMARK VINA RESULT:      -5.8      1.180      1.638
REMARK  5 active torsions:
REMARK  status: ('A' for Active; 'I' for Inactive)
REMARK    1  A    between atoms: C_10  and  C_4 
REMARK    2  A    between atoms: C_19  and  N_5 
REMARK       I    between atoms: N_11  and  C_10 
REMARK    3  A    between atoms: C_22  and  C_19 
REMARK    4  A    between atoms: C_26  and  C_22 
REMARK    5  A    between atoms: O_23  and  C_26 
ROOT
ATOM      1  C   UNL d   1     -47.037  13.043  23.102  0.00  0.00     0.154 A 
ATOM      2  C   UNL d   1     -46.445  13.496  22.748  0.00  0.00     0.093 A 
ATOM      3  N   UNL d   1     -47.772  13.357  23.223  0.00  0.00    -0.210 NA
ATOM      4  C   UNL d   1     -46.167  11.989  23.208  0.00  0.00     0.122 A 
ATOM      5  N   UNL d   1     -46.896  12.296  23.330  0.00  0.00    -0.286 N 
ATOM      6  C   UNL d   1     -46.584  14.256  22.515  0.00  0.00     0.269 A 
ATOM      7  N   UNL d   1     -47.324  14.560  22.641  0.00  0.00    -0.258 N 
ATOM      8  C   UNL d   1     -47.915  14.107  22.995  0.00  0.00     0.152 A 
ATOM      9  C   UNL d   1     -45.584  12.435  22.859  0.00  0.00     0.030 A 
ATOM     10  C   UNL d   1     -47.456  15.319  22.406  0.00  0.00     0.084 A 
ATOM     11  O   UNL d   1     -45.992  14.709  22.160  0.00  0.00    -0.266 OA
ATOM     12  C   UNL d   1     -48.639  14.413  23.115  0.00  0.00     0.038 A 
ATOM     13  C   UNL d   1     -48.194  15.614  22.535  0.00  0.00     0.019 A 
ATOM     14  C   UNL d   1     -48.785  15.161  22.890  0.00  0.00     0.005 A 
ENDROOT
BRANCH   4  15
ATOM     15  C   UNL d   1     -46.024  11.223  23.442  0.00  0.00     0.281 C 
ATOM     16  N   UNL d   1     -45.239  10.937  23.432  0.00  0.00    -0.267 N 
ATOM     17  C   UNL d   1     -45.089  10.149  23.672  0.00  0.00     0.110 A 
ATOM     18  C   UNL d   1     -44.614  11.435  23.185  0.00  0.00     0.110 A 
ATOM     19  C   UNL d   1     -44.304   9.857  23.664  0.00  0.00     0.142 A 
ATOM     20  O   UNL d   1     -43.672  10.349  23.418  0.00  0.00    -0.300 OA
ATOM     21  C   UNL d   1     -43.829  11.137  23.179  0.00  0.00     0.142 A 
ATOM     22  O   UNL d   1     -46.646  10.744  23.682  0.00  0.00    -0.265 OA
ENDBRANCH   4  15
BRANCH   5  23
ATOM     23  C   UNL d   1     -47.499  11.846  23.687  0.00  0.00     0.084 C 
BRANCH  23  24
ATOM     24  C   UNL d   1     -48.130  11.554  23.231  0.00  0.00     0.045 C 
BRANCH  24  25
ATOM     25  C   UNL d   1     -48.860  11.386  23.596  0.00  0.00     0.118 C 
BRANCH  25  26
ATOM     26  O   UNL d   1     -49.518  11.192  23.128  0.00  0.00    -0.326 OA
ATOM     27  C   UNL d   1     -50.275  11.117  23.481  0.00  0.00     0.181 C 
ENDBRANCH  25  26
ENDBRANCH  24  25
ENDBRANCH  23  24
ENDBRANCH   5  23
TORSDOF 5
ENDMDL
MODEL 5
REMARK VINA RESULT:      -5.1      0.935      4.058
REMARK  5 active torsions:
REMARK  status: ('A' for Active; 'I' for Inactive)
REMARK    1  A    between atoms: C_10  and  C_4 
REMARK    2  A    between atoms: C_19  and  N_5 
REMARK       I    between atoms: N_11  and  C_10 
REMARK    3  A    between atoms: C_22  and  C_19 
REMARK    4  A    between atoms: C_26  and  C_22 
REMARK    5  A    between atoms: O_23  and  C_26 
ROOT
ATOM      1  C   UNL d   1     -46.458  12.473  23.164  0.00  0.00     0.154 A 
ATOM      2  C   UNL d   1     -45.870  12.888  22.761  0.00  0.00     0.093 A 
ATOM      3  N   UNL d   1     -46.314  11.728  23.441  0.00  0.00    -0.210 NA
ATOM      4  C   UNL d   1     -47.311  13.536  23.012  0.00  0.00     0.122 A 
ATOM      5  N   UNL d   1     -47.172  12.796  23.288  0.00  0.00    -0.286 N 
ATOM      6  C   UNL d   1     -45.143  12.563  22.633  0.00  0.00     0.269 A 
ATOM      7  N   UNL d   1     -45.009  11.815  22.914  0.00  0.00    -0.258 N 
ATOM      8  C   UNL d   1     -45.597  11.400  23.318  0.00  0.00     0.152 A 
ATOM      9  C   UNL d   1     -46.732  13.944  22.615  0.00  0.00     0.030 A 
ATOM     10  C   UNL d   1     -44.281  11.496  22.783  0.00  0.00     0.084 A 
ATOM     11  O   UNL d   1     -44.554  12.977  22.229  0.00  0.00    -0.266 OA
ATOM     12  C   UNL d   1     -45.458  10.668  23.590  0.00  0.00     0.038 A 
ATOM     13  C   UNL d   1     -44.157  10.753  23.066  0.00  0.00     0.019 A 
ATOM     14  C   UNL d   1     -44.745  10.339  23.470  0.00  0.00     0.005 A 
ENDROOT
BRANCH   4  15
ATOM     15  C   UNL d   1     -48.044  13.866  23.140  0.00  0.00     0.281 C 
ATOM     16  N   UNL d   1     -48.266  14.540  22.698  0.00  0.00    -0.267 N 
ATOM     17  C   UNL d   1     -49.019  14.882  22.827  0.00  0.00     0.110 A 
ATOM     18  C   UNL d   1     -47.739  14.865  22.135  0.00  0.00     0.110 A 
ATOM     19  C   UNL d   1     -49.247  15.557  22.387  0.00  0.00     0.142 A 
ATOM     20  O   UNL d   1     -48.725  15.889  21.822  0.00  0.00    -0.300 OA
ATOM     21  C   UNL d   1     -47.972  15.542  21.697  0.00  0.00     0.142 A 
ATOM     22  O   UNL d   1     -48.552  13.538  23.695  0.00  0.00    -0.265 OA
ENDBRANCH   4  15
BRANCH   5  23
ATOM     23  C   UNL d   1     -47.760  12.371  23.696  0.00  0.00     0.084 C 
BRANCH  23  24
ATOM     24  C   UNL d   1     -48.293  11.888  23.279  0.00  0.00     0.045 C 
BRANCH  24  25
ATOM     25  C   UNL d   1     -48.860  11.443  23.698  0.00  0.00     0.118 C 
BRANCH  25  26
ATOM     26  O   UNL d   1     -49.453  11.037  23.280  0.00  0.00    -0.326 OA
ATOM     27  C   UNL d   1     -50.246  11.066  23.548  0.00  0.00     0.181 C 
ENDBRANCH  25  26
ENDBRANCH  24  25
ENDBRANCH  23  24
ENDBRANCH   5  23
TORSDOF 5
ENDMDL
MODEL 6
REMARK VINA RESULT:      -5.0      8.298      9.345
REMARK  5 active torsions:
REMARK  status: ('A' for Active; 'I' for Inactive)
REMARK    1  A    between atoms: C_10  and  C_4 
REMARK    2  A    between atoms: C_19  and  N_5 
REMARK       I    between atoms: N_11  and  C_10 
REMARK    3  A    between atoms: C_22  and  C_19 
REMARK    4  A    between atoms: C_26  and  C_22 
REMARK    5  A    between atoms: O_23  and  C_26 
ROOT
ATOM      1  C   UNL d   1     -39.775  14.761  19.010  0.00  0.00     0.154 A 
ATOM      2  C   UNL d   1     -40.444  15.149  19.298  0.00  0.00     0.093 A 
ATOM      3  N   UNL d   1     -39.615  14.760  18.218  0.00  0.00    -0.210 NA
ATOM      4  C   UNL d   1     -39.442  14.386  20.287  0.00  0.00     0.122 A 
ATOM      5  N   UNL d   1     -39.280  14.383  19.502  0.00  0.00    -0.286 N 
ATOM      6  C   UNL d   1     -40.950  15.534  18.802  0.00  0.00     0.269 A 
ATOM      7  N   UNL d   1     -40.780  15.526  18.010  0.00  0.00    -0.258 N 
ATOM      8  C   UNL d   1     -40.111  15.138  17.722  0.00  0.00     0.152 A 
ATOM      9  C   UNL d   1     -40.101  14.768  20.570  0.00  0.00     0.030 A 
ATOM     10  C   UNL d   1     -41.289  15.912  17.520  0.00  0.00     0.084 A 
ATOM     11  O   UNL d   1     -41.619  15.922  19.090  0.00  0.00    -0.266 OA
ATOM     12  C   UNL d   1     -39.952  15.136  16.944  0.00  0.00     0.038 A 
ATOM     13  C   UNL d   1     -41.112  15.900  16.735  0.00  0.00     0.019 A 
ATOM     14  C   UNL d   1     -40.444  15.512  16.447  0.00  0.00     0.005 A 
ENDROOT
BRANCH   4  15
ATOM     15  C   UNL d   1     -38.933  13.999  20.790  0.00  0.00     0.281 C 
ATOM     16  N   UNL d   1     -38.700  14.376  21.498  0.00  0.00    -0.267 N 
ATOM     17  C   UNL d   1     -38.177  13.980  22.018  0.00  0.00     0.110 A 
ATOM     18  C   UNL d   1     -38.989  15.140  21.682  0.00  0.00     0.110 A 
ATOM     19  C   UNL d   1     -37.940  14.353  22.730  0.00  0.00     0.142 A 
ATOM     20  O   UNL d   1     -38.225  15.118  22.921  0.00  0.00    -0.300 OA
ATOM     21  C   UNL d   1     -38.749  15.509  22.396  0.00  0.00     0.142 A 
ATOM     22  O   UNL d   1     -38.657  13.249  20.599  0.00  0.00    -0.265 OA
ENDBRANCH   4  15
BRANCH   5  23
ATOM     23  C   UNL d   1     -38.607  13.994  19.203  0.00  0.00     0.084 C 
BRANCH  23  24
ATOM     24  C   UNL d   1     -38.669  13.506  18.532  0.00  0.00     0.045 C 
BRANCH  24  25
ATOM     25  C   UNL d   1     -38.066  12.957  18.365  0.00  0.00     0.118 C 
BRANCH  25  26
ATOM     26  O   UNL d   1     -38.168  12.410  17.747  0.00  0.00    -0.326 OA
ATOM     27  C   UNL d   1     -37.941  11.611  17.855  0.00  0.00     0.181 C 
ENDBRANCH  25  26
ENDBRANCH  24  25
ENDBRANCH  23  24
ENDBRANCH   5  23
TORSDOF 5
ENDMDL
