MODEL 1
REMARK VINA RESULT:      37.0      0.000      0.000
REMARK  3 active torsions:
REMARK  status: ('A' for Active; 'I' for Inactive)
REMARK    1  A    between atoms: C_4  and  C_1 
REMARK    2  A    between atoms: C_13  and  N_2 
REMARK    3  A    between atoms: C_10  and  C_13 
ROOT
ATOM      1  C   UNL d   1      13.845  12.360  -2.962  0.00  0.00     0.171 A 
ATOM      2  N   UNL d   1      14.054  13.185  -2.656  0.00  0.00    -0.286 N 
ATOM      3  N   UNL d   1      14.001  11.779  -2.286  0.00  0.00    -0.225 NA
ATOM      4  C   UNL d   1      14.335  13.115  -1.805  0.00  0.00     0.083 A 
ATOM      5  C   UNL d   1      14.302  12.230  -1.572  0.00  0.00     0.099 A 
ATOM      6  C   UNL d   1      14.616  13.740  -1.211  0.00  0.00     0.019 A 
ATOM      7  C   UNL d   1      14.550  11.985  -0.749  0.00  0.00     0.021 A 
ATOM      8  C   UNL d   1      14.860  13.467  -0.392  0.00  0.00     0.002 A 
ATOM      9  C   UNL d   1      14.827  12.582  -0.159  0.00  0.00     0.002 A 
ENDROOT
BRANCH   2  10
ATOM     10  C   UNL d   1      14.214  13.911  -2.457  0.00  0.00     0.106 C 
BRANCH  10  11
ATOM     11  C   UNL d   1      14.112  14.499  -3.004  0.00  0.00     0.118 A 
ATOM     12  O   UNL d   1      14.654  15.013  -3.253  0.00  0.00    -0.299 OA
ATOM     13  C   UNL d   1      14.342  15.515  -3.802  0.00  0.00     0.134 A 
ATOM     14 BR   UNL d   1      14.643  16.129  -4.226  0.00  0.00    -0.022 Br
ATOM     15  C   UNL d   1      13.572  15.300  -3.896  0.00  0.00     0.034 A 
ATOM     16  C   UNL d   1      13.411  14.668  -3.407  0.00  0.00     0.029 A 
ENDBRANCH  10  11
ENDBRANCH   2  10
BRANCH   1  17
ATOM     17  C   UNL d   1      13.542  12.156  -3.778  0.00  0.00     0.135 A 
ATOM     18  O   UNL d   1      13.986  12.217  -4.457  0.00  0.00    -0.297 OA
ATOM     19  C   UNL d   1      13.493  11.978  -5.061  0.00  0.00     0.134 A 
ATOM     20 BR   UNL d   1      13.408  11.850  -5.858  0.00  0.00    -0.022 Br
ATOM     21  C   UNL d   1      12.769  11.780  -4.743  0.00  0.00     0.034 A 
ATOM     22  C   UNL d   1      12.816  11.896  -3.942  0.00  0.00     0.030 A 
ENDBRANCH   1  17
TORSDOF 3
ENDMDL
MODEL 2
REMARK VINA RESULT:      37.0      1.988      4.091
REMARK  3 active torsions:
REMARK  status: ('A' for Active; 'I' for Inactive)
REMARK    1  A    between atoms: C_4  and  C_1 
REMARK    2  A    between atoms: C_13  and  N_2 
REMARK    3  A    between atoms: C_10  and  C_13 
ROOT
ATOM      1  C   UNL d   1      14.108  14.093  -2.621  0.00  0.00     0.171 A 
ATOM      2  N   UNL d   1      14.054  13.201  -2.483  0.00  0.00    -0.286 N 
ATOM      3  N   UNL d   1      13.727  14.260  -3.424  0.00  0.00    -0.225 NA
ATOM      4  C   UNL d   1      13.647  12.823  -3.189  0.00  0.00     0.083 A 
ATOM      5  C   UNL d   1      13.441  13.490  -3.782  0.00  0.00     0.099 A 
ATOM      6  C   UNL d   1      13.437  11.960  -3.372  0.00  0.00     0.019 A 
ATOM      7  C   UNL d   1      13.028  13.283  -4.548  0.00  0.00     0.021 A 
ATOM      8  C   UNL d   1      13.022  11.779  -4.147  0.00  0.00     0.002 A 
ATOM      9  C   UNL d   1      12.816  12.446  -4.740  0.00  0.00     0.002 A 
ENDROOT
BRANCH   2  10
ATOM     10  C   UNL d   1      14.040  12.452  -2.306  0.00  0.00     0.106 C 
BRANCH  10  11
ATOM     11  C   UNL d   1      14.280  12.220  -1.568  0.00  0.00     0.118 A 
ATOM     12  O   UNL d   1      15.021  12.175  -1.305  0.00  0.00    -0.299 OA
ATOM     13  C   UNL d   1      15.037  11.920  -0.539  0.00  0.00     0.134 A 
ATOM     14 BR   UNL d   1      15.631  11.779  -0.014  0.00  0.00    -0.022 Br
ATOM     15  C   UNL d   1      14.271  11.802  -0.322  0.00  0.00     0.034 A 
ATOM     16  C   UNL d   1      13.785  11.984  -0.951  0.00  0.00     0.029 A 
ENDBRANCH  10  11
ENDBRANCH   2  10
BRANCH   1  17
ATOM     17  C   UNL d   1      14.469  14.696  -2.068  0.00  0.00     0.135 A 
ATOM     18  O   UNL d   1      14.686  14.537  -1.301  0.00  0.00    -0.297 OA
ATOM     19  C   UNL d   1      14.985  15.238  -1.010  0.00  0.00     0.134 A 
ATOM     20 BR   UNL d   1      15.312  15.626  -0.377  0.00  0.00    -0.022 Br
ATOM     21  C   UNL d   1      14.945  15.801  -1.598  0.00  0.00     0.034 A 
ATOM     22  C   UNL d   1      14.621  15.448  -2.251  0.00  0.00     0.030 A 
ENDBRANCH   1  17
TORSDOF 3
ENDMDL
MODEL 3
REMARK VINA RESULT:      39.5      0.638      2.784
REMARK  3 active torsions:
REMARK  status: ('A' for Active; 'I' for Inactive)
REMARK    1  A    between atoms: C_4  and  C_1 
REMARK    2  A    between atoms: C_13  and  N_2 
REMARK    3  A    between atoms: C_10  and  C_13 
ROOT
ATOM      1  C   UNL d   1      14.269  14.097  -2.402  0.00  0.00     0.171 A 
ATOM      2  N   UNL d   1      14.052  13.220  -2.439  0.00  0.00    -0.286 N 
ATOM      3  N   UNL d   1      14.640  14.244  -1.590  0.00  0.00    -0.225 NA
ATOM      4  C   UNL d   1      14.285  12.831  -1.663  0.00  0.00     0.083 A 
ATOM      5  C   UNL d   1      14.655  13.476  -1.128  0.00  0.00     0.099 A 
ATOM      6  C   UNL d   1      14.209  11.975  -1.372  0.00  0.00     0.019 A 
ATOM      7  C   UNL d   1      14.944  13.254  -0.312  0.00  0.00     0.021 A 
ATOM      8  C   UNL d   1      14.507  11.780  -0.549  0.00  0.00     0.002 A 
ATOM      9  C   UNL d   1      14.878  12.424  -0.014  0.00  0.00     0.002 A 
ENDROOT
BRANCH   2  10
ATOM     10  C   UNL d   1      13.843  12.485  -2.533  0.00  0.00     0.106 C 
BRANCH  10  11
ATOM     11  C   UNL d   1      13.557  12.248  -3.253  0.00  0.00     0.118 A 
ATOM     12  O   UNL d   1      13.935  12.273  -3.943  0.00  0.00    -0.299 OA
ATOM     13  C   UNL d   1      13.467  11.989  -4.537  0.00  0.00     0.134 A 
ATOM     14 BR   UNL d   1      13.574  11.891  -5.328  0.00  0.00    -0.022 Br
ATOM     15  C   UNL d   1      12.769  11.779  -4.195  0.00  0.00     0.034 A 
ATOM     16  C   UNL d   1      12.807  11.934  -3.395  0.00  0.00     0.029 A 
ENDBRANCH  10  11
ENDBRANCH   2  10
BRANCH   1  17
ATOM     17  C   UNL d   1      14.140  14.704  -3.045  0.00  0.00     0.135 A 
ATOM     18  O   UNL d   1      13.482  14.729  -3.522  0.00  0.00    -0.297 OA
ATOM     19  C   UNL d   1      13.600  15.364  -4.021  0.00  0.00     0.134 A 
ATOM     20 BR   UNL d   1      13.307  15.811  -4.632  0.00  0.00    -0.022 Br
ATOM     21  C   UNL d   1      14.317  15.707  -3.840  0.00  0.00     0.034 A 
ATOM     22  C   UNL d   1      14.641  15.284  -3.230  0.00  0.00     0.030 A 
ENDBRANCH   1  17
TORSDOF 3
ENDMDL
