MODEL 1
REMARK VINA RESULT:     -11.9      0.000      0.000
REMARK  1 active torsions:
REMARK  status: ('A' for Active; 'I' for Inactive)
REMARK    1  A    between atoms: C_7  and  N_1 
ROOT
ATOM      1  N   UNL d   1      52.162  33.559  53.220  0.00  0.00    -0.242 N 
ATOM      2  C   UNL d   1      52.381  32.804  53.081  0.00  0.00     0.267 A 
ATOM      3  C   UNL d   1      52.574  34.083  53.745  0.00  0.00     0.267 A 
ATOM      4  C   UNL d   1      53.056  32.521  53.479  0.00  0.00     0.057 A 
ATOM      5  C   UNL d   1      53.231  33.761  54.114  0.00  0.00     0.057 A 
ATOM      6  C   UNL d   1      53.457  32.982  53.970  0.00  0.00     0.009 A 
ATOM      7  O   UNL d   1      52.349  34.860  53.888  0.00  0.00    -0.267 OA
ATOM      8  O   UNL d   1      51.961  32.317  52.565  0.00  0.00    -0.267 OA
ATOM      9  C   UNL d   1      54.133  32.693  54.366  0.00  0.00     0.000 A 
ATOM     10  C   UNL d   1      53.652  34.248  54.631  0.00  0.00     0.005 A 
ATOM     11  C   UNL d   1      53.284  31.730  53.332  0.00  0.00     0.005 A 
ATOM     12  C   UNL d   1      54.306  33.963  55.012  0.00  0.00     0.000 A 
ATOM     13  C   UNL d   1      53.940  31.416  53.703  0.00  0.00     0.000 A 
ATOM     14  C   UNL d   1      54.531  33.185  54.868  0.00  0.00     0.000 A 
ATOM     15  C   UNL d   1      54.363  31.933  54.234  0.00  0.00     0.000 A 
ENDROOT
BRANCH   1  16
ATOM     16  C   UNL d   1      51.488  33.842  52.823  0.00  0.00     0.070 A 
ATOM     17  C   UNL d   1      51.537  34.139  52.044  0.00  0.00     0.021 A 
ATOM     18  C   UNL d   1      50.879  34.409  51.670  0.00  0.00     0.043 A 
ATOM     19  C   UNL d   1      50.101  34.405  52.053  0.00  0.00     0.196 A 
ATOM     20  C   UNL d   1      50.040  34.114  52.826  0.00  0.00     0.043 A 
ATOM     21  O   UNL d   1      49.368  34.685  51.694  0.00  0.00    -0.287 OA
ATOM     22  C   UNL d   1      50.741  33.832  53.206  0.00  0.00     0.021 A 
ENDBRANCH   1  16
TORSDOF 1
ENDMDL
MODEL 2
REMARK VINA RESULT:     -11.0      1.459      3.381
REMARK  1 active torsions:
REMARK  status: ('A' for Active; 'I' for Inactive)
REMARK    1  A    between atoms: C_7  and  N_1 
ROOT
ATOM      1  N   UNL d   1      53.056  32.146  53.656  0.00  0.00    -0.242 N 
ATOM      2  C   UNL d   1      52.608  32.472  53.082  0.00  0.00     0.267 A 
ATOM      3  C   UNL d   1      53.438  32.593  54.269  0.00  0.00     0.267 A 
ATOM      4  C   UNL d   1      52.513  33.299  53.090  0.00  0.00     0.057 A 
ATOM      5  C   UNL d   1      53.317  33.403  54.237  0.00  0.00     0.057 A 
ATOM      6  C   UNL d   1      52.854  33.738  53.644  0.00  0.00     0.009 A 
ATOM      7  O   UNL d   1      53.900  32.259  54.860  0.00  0.00    -0.267 OA
ATOM      8  O   UNL d   1      52.248  32.013  52.499  0.00  0.00    -0.267 OA
ATOM      9  C   UNL d   1      52.756  34.567  53.648  0.00  0.00     0.000 A 
ATOM     10  C   UNL d   1      53.677  33.863  54.820  0.00  0.00     0.005 A 
ATOM     11  C   UNL d   1      52.043  33.638  52.488  0.00  0.00     0.005 A 
ATOM     12  C   UNL d   1      53.579  34.665  54.820  0.00  0.00     0.000 A 
ATOM     13  C   UNL d   1      51.926  34.445  52.462  0.00  0.00     0.000 A 
ATOM     14  C   UNL d   1      53.116  34.999  54.227  0.00  0.00     0.000 A 
ATOM     15  C   UNL d   1      52.306  34.906  53.073  0.00  0.00     0.000 A 
ENDROOT
BRANCH   1  16
ATOM     16  C   UNL d   1      53.151  31.320  53.648  0.00  0.00     0.070 A 
ATOM     17  C   UNL d   1      53.818  30.964  53.295  0.00  0.00     0.021 A 
ATOM     18  C   UNL d   1      53.898  30.164  53.293  0.00  0.00     0.043 A 
ATOM     19  C   UNL d   1      53.305  29.644  53.652  0.00  0.00     0.196 A 
ATOM     20  C   UNL d   1      52.638  29.986  54.005  0.00  0.00     0.043 A 
ATOM     21  O   UNL d   1      53.346  28.782  53.674  0.00  0.00    -0.287 OA
ATOM     22  C   UNL d   1      52.568  30.828  53.999  0.00  0.00     0.021 A 
ENDBRANCH   1  16
TORSDOF 1
ENDMDL
