MODEL 1
REMARK VINA RESULT:      -1.3      0.000      0.000
REMARK  7 active torsions:
REMARK  status: ('A' for Active; 'I' for Inactive)
REMARK    1  A    between atoms: C_11  and  C_3 
REMARK    2  A    between atoms: C_10  and  C_4 
REMARK    3  A    between atoms: O_15  and  C_10 
REMARK    4  A    between atoms: N_14  and  C_11 
REMARK    5  A    between atoms: C_20  and  N_14 
REMARK    6  A    between atoms: C_22  and  O_15 
REMARK    7  A    between atoms: C_21  and  C_20 
ROOT
ATOM      1  C   UNL d   1      58.704  -0.613  30.060  0.00  0.00     0.035 A 
ATOM      2  C   UNL d   1      59.209   0.038  30.012  0.00  0.00     0.100 A 
ATOM      3  C   UNL d   1      58.845  -1.276  29.591  0.00  0.00     0.060 A 
ATOM      4  C   UNL d   1      58.105  -0.461  30.616  0.00  0.00     0.088 A 
ATOM      5  O   UNL d   1      58.909   0.608  30.556  0.00  0.00    -0.307 OA
ATOM      6  C   UNL d   1      58.236   0.292  30.919  0.00  0.00     0.105 A 
ATOM      7  C   UNL d   1      59.491  -1.287  29.074  0.00  0.00     0.197 A 
ATOM      8  C   UNL d   1      59.846   0.026  29.501  0.00  0.00     0.026 A 
ATOM      9  C   UNL d   1      59.987  -0.636  29.032  0.00  0.00     0.041 A 
ATOM     10  O   UNL d   1      59.634  -1.961  28.597  0.00  0.00    -0.286 OA
ATOM     11  C   UNL d   1      57.749   0.680  31.514  0.00  0.00     0.027 C 
ATOM     12  C   UNL d   1      60.358   0.681  29.450  0.00  0.00     0.002 A 
ATOM     13  C   UNL d   1      60.640  -0.644  28.511  0.00  0.00     0.003 A 
ATOM     14  C   UNL d   1      61.132   0.004  28.471  0.00  0.00     0.000 A 
ATOM     15  C   UNL d   1      60.991   0.667  28.941  0.00  0.00     0.000 A 
ENDROOT
BRANCH   3  16
ATOM     16  C   UNL d   1      58.318  -1.919  29.661  0.00  0.00     0.102 C 
BRANCH  16  17
ATOM     17  N   UNL d   1      58.549  -2.668  29.353  0.00  0.00    -0.239 NA
BRANCH  17  18
ATOM     18  C   UNL d   1      57.964  -3.178  29.043  0.00  0.00     0.144 C 
BRANCH  18  19
ATOM     19  C   UNL d   1      58.193  -3.817  28.582  0.00  0.00     0.255 C 
ATOM     20  O   UNL d   1      57.842  -4.558  28.676  0.00  0.00    -0.281 OA
ENDBRANCH  18  19
ENDBRANCH  17  18
ENDBRANCH  16  17
ENDBRANCH   3  16
BRANCH   4  21
ATOM     21  C   UNL d   1      57.456  -0.967  30.857  0.00  0.00     0.302 C 
ATOM     22  O   UNL d   1      57.024  -1.387  30.295  0.00  0.00    -0.259 OA
BRANCH  21  23
ATOM     23  O   UNL d   1      57.280  -1.021  31.648  0.00  0.00    -0.271 OA
BRANCH  23  24
ATOM     24  C   UNL d   1      56.563  -1.330  31.906  0.00  0.00     0.126 C 
ATOM     25  C   UNL d   1      56.303  -1.182  32.680  0.00  0.00     0.029 C 
ENDBRANCH  23  24
ENDBRANCH  21  23
ENDBRANCH   4  21
TORSDOF 7
ENDMDL
MODEL 2
REMARK VINA RESULT:      -0.9      1.143      3.454
REMARK  7 active torsions:
REMARK  status: ('A' for Active; 'I' for Inactive)
REMARK    1  A    between atoms: C_11  and  C_3 
REMARK    2  A    between atoms: C_10  and  C_4 
REMARK    3  A    between atoms: O_15  and  C_10 
REMARK    4  A    between atoms: N_14  and  C_11 
REMARK    5  A    between atoms: C_20  and  N_14 
REMARK    6  A    between atoms: C_22  and  O_15 
REMARK    7  A    between atoms: C_21  and  C_20 
ROOT
ATOM      1  C   UNL d   1      58.883  -0.112  30.990  0.00  0.00     0.035 A 
ATOM      2  C   UNL d   1      58.698   0.281  31.691  0.00  0.00     0.100 A 
ATOM      3  C   UNL d   1      58.294  -0.516  30.579  0.00  0.00     0.060 A 
ATOM      4  C   UNL d   1      59.691  -0.017  30.822  0.00  0.00     0.088 A 
ATOM      5  O   UNL d   1      59.416   0.629  31.962  0.00  0.00    -0.307 OA
ATOM      6  C   UNL d   1      60.015   0.441  31.424  0.00  0.00     0.105 A 
ATOM      7  C   UNL d   1      57.520  -0.526  30.869  0.00  0.00     0.197 A 
ATOM      8  C   UNL d   1      57.932   0.270  31.977  0.00  0.00     0.026 A 
ATOM      9  C   UNL d   1      57.343  -0.133  31.566  0.00  0.00     0.041 A 
ATOM     10  O   UNL d   1      56.920  -0.937  30.451  0.00  0.00    -0.286 OA
ATOM     11  C   UNL d   1      60.841   0.680  31.478  0.00  0.00     0.027 C 
ATOM     12  C   UNL d   1      57.741   0.666  32.684  0.00  0.00     0.002 A 
ATOM     13  C   UNL d   1      56.563  -0.141  31.862  0.00  0.00     0.003 A 
ATOM     14  C   UNL d   1      56.390   0.250  32.556  0.00  0.00     0.000 A 
ATOM     15  C   UNL d   1      56.979   0.654  32.967  0.00  0.00     0.000 A 
ENDROOT
BRANCH   3  16
ATOM     16  C   UNL d   1      58.511  -0.904  29.873  0.00  0.00     0.102 C 
BRANCH  16  17
ATOM     17  N   UNL d   1      58.106  -1.609  29.656  0.00  0.00    -0.239 NA
BRANCH  17  18
ATOM     18  C   UNL d   1      58.540  -2.245  29.331  0.00  0.00     0.144 C 
BRANCH  18  19
ATOM     19  C   UNL d   1      58.144  -2.930  29.111  0.00  0.00     0.255 C 
ATOM     20  O   UNL d   1      58.486  -3.672  29.219  0.00  0.00    -0.281 OA
ENDBRANCH  18  19
ENDBRANCH  17  18
ENDBRANCH  16  17
ENDBRANCH   3  16
BRANCH   4  21
ATOM     21  C   UNL d   1      60.141  -0.320  30.159  0.00  0.00     0.302 C 
ATOM     22  O   UNL d   1      60.471  -1.074  30.189  0.00  0.00    -0.259 OA
BRANCH  21  23
ATOM     23  O   UNL d   1      60.233   0.152  29.504  0.00  0.00    -0.271 OA
BRANCH  23  24
ATOM     24  C   UNL d   1      60.887   0.076  29.011  0.00  0.00     0.126 C 
ATOM     25  C   UNL d   1      61.073   0.682  28.475  0.00  0.00     0.029 C 
ENDBRANCH  23  24
ENDBRANCH  21  23
ENDBRANCH   4  21
TORSDOF 7
ENDMDL
