MODEL 1
REMARK VINA RESULT:      -0.0      0.000      0.000
REMARK  6 active torsions:
REMARK  status: ('A' for Active; 'I' for Inactive)
REMARK    1  A    between atoms: C_12  and  C_3 
REMARK    2  A    between atoms: N_16  and  C_4 
REMARK    3  A    between atoms: N_11  and  C_23 
REMARK    4  A    between atoms: C_26  and  N_16 
REMARK    5  A    between atoms: C_23  and  C_24 
REMARK    6  A    between atoms: C_24  and  C_26 
ROOT
ATOM      1  C   UNL d   1     -41.586-122.171 -52.825  0.00  0.00     0.168 A 
ATOM      2  N   UNL d   1     -41.457-122.589 -52.094  0.00  0.00    -0.184 N 
ATOM      3  C   UNL d   1     -41.644-122.581 -53.523  0.00  0.00     0.057 A 
ATOM      4  C   UNL d   1     -41.401-122.164 -51.410  0.00  0.00     0.218 A 
ATOM      5  N   UNL d   1     -41.452-123.817 -52.812  0.00  0.00    -0.160 NA
ATOM      6  N   UNL d   1     -41.650-121.357 -52.822  0.00  0.00    -0.227 NA
ATOM      7  C   UNL d   1     -41.465-121.343 -51.396  0.00  0.00     0.071 A 
ATOM      8  C   UNL d   1     -41.577-123.413 -53.520  0.00  0.00     0.124 A 
ATOM      9  C   UNL d   1     -41.592-120.932 -52.116  0.00  0.00     0.087 A 
ATOM     10  C   UNL d   1     -41.660-120.075 -52.112  0.00  0.00     0.021 C 
ENDROOT
BRANCH   4  11
ATOM     11  N   UNL d   1     -41.271-122.582 -50.670  0.00  0.00    -0.380 NA
BRANCH  11  12
ATOM     12  C   UNL d   1     -41.126-123.061 -49.971  0.00  0.00     0.164 C 
BRANCH  12  13
ATOM     13  C   UNL d   1     -41.492-122.841 -49.235  0.00  0.00     0.054 C 
BRANCH  13  14
ATOM     14  C   UNL d   1     -41.341-123.307 -48.535  0.00  0.00     0.084 C 
BRANCH  14  15
ATOM     15  N   UNL d   1     -41.929-123.341 -47.906  0.00  0.00    -0.285 N 
ATOM     16  C   UNL d   1     -42.714-123.676 -47.962  0.00  0.00     0.183 A 
ATOM     17  N   UNL d   1     -43.097-123.586 -47.205  0.00  0.00    -0.222 NA
ATOM     18  C   UNL d   1     -42.544-123.194 -46.679  0.00  0.00     0.120 A 
ATOM     19  C   UNL d   1     -41.827-123.043 -47.109  0.00  0.00     0.102 A 
ENDBRANCH  14  15
ENDBRANCH  13  14
ENDBRANCH  12  13
ENDBRANCH  11  12
ENDBRANCH   4  11
BRANCH   3  20
ATOM     20  C   UNL d   1     -41.769-122.177 -54.231  0.00  0.00     0.005 A 
ATOM     21  C   UNL d   1     -42.521-121.934 -54.431  0.00  0.00     0.001 A 
ATOM     22  C   UNL d   1     -42.646-121.529 -55.139  0.00  0.00     0.011 A 
ATOM     23  C   UNL d   1     -42.017-121.375 -55.635  0.00  0.00     0.058 A 
ATOM     24  C   UNL d   1     -41.264-121.624 -55.422  0.00  0.00     0.011 A 
ATOM     25 CL   UNL d   1     -42.148-120.950 -56.377  0.00  0.00    -0.082 Cl
ATOM     26  C   UNL d   1     -41.141-122.023 -54.726  0.00  0.00     0.001 A 
ENDBRANCH   3  20
TORSDOF 6
ENDMDL
MODEL 2
REMARK VINA RESULT:       1.1      2.323      5.738
REMARK  6 active torsions:
REMARK  status: ('A' for Active; 'I' for Inactive)
REMARK    1  A    between atoms: C_12  and  C_3 
REMARK    2  A    between atoms: N_16  and  C_4 
REMARK    3  A    between atoms: N_11  and  C_23 
REMARK    4  A    between atoms: C_26  and  N_16 
REMARK    5  A    between atoms: C_23  and  C_24 
REMARK    6  A    between atoms: C_24  and  C_26 
ROOT
ATOM      1  C   UNL d   1     -41.761-122.452 -50.637  0.00  0.00     0.168 A 
ATOM      2  N   UNL d   1     -41.657-122.469 -51.481  0.00  0.00    -0.184 N 
ATOM      3  C   UNL d   1     -42.033-123.110 -50.247  0.00  0.00     0.057 A 
ATOM      4  C   UNL d   1     -41.386-121.805 -51.852  0.00  0.00     0.218 A 
ATOM      5  N   UNL d   1     -42.111-123.817 -51.497  0.00  0.00    -0.160 NA
ATOM      6  N   UNL d   1     -41.585-121.773 -50.219  0.00  0.00    -0.227 NA
ATOM      7  C   UNL d   1     -41.206-121.114 -51.440  0.00  0.00     0.071 A 
ATOM      8  C   UNL d   1     -42.211-123.801 -50.679  0.00  0.00     0.124 A 
ATOM      9  C   UNL d   1     -41.308-121.098 -50.608  0.00  0.00     0.087 A 
ATOM     10  C   UNL d   1     -41.123-120.383 -50.168  0.00  0.00     0.021 C 
ENDROOT
BRANCH   4  11
ATOM     11  N   UNL d   1     -41.280-121.818 -52.705  0.00  0.00    -0.380 NA
BRANCH  11  12
ATOM     12  C   UNL d   1     -41.123-121.883 -53.547  0.00  0.00     0.164 C 
BRANCH  12  13
ATOM     13  C   UNL d   1     -41.777-121.927 -54.089  0.00  0.00     0.054 C 
BRANCH  13  14
ATOM     14  C   UNL d   1     -41.678-122.329 -54.836  0.00  0.00     0.084 C 
BRANCH  14  15
ATOM     15  N   UNL d   1     -42.334-122.365 -55.396  0.00  0.00    -0.285 N 
ATOM     16  C   UNL d   1     -42.491-121.814 -56.030  0.00  0.00     0.183 A 
ATOM     17  N   UNL d   1     -43.195-122.071 -56.437  0.00  0.00    -0.222 NA
ATOM     18  C   UNL d   1     -43.473-122.785 -56.051  0.00  0.00     0.120 A 
ATOM     19  C   UNL d   1     -42.944-122.966 -55.412  0.00  0.00     0.102 A 
ENDBRANCH  14  15
ENDBRANCH  13  14
ENDBRANCH  12  13
ENDBRANCH  11  12
ENDBRANCH   4  11
BRANCH   3  20
ATOM     20  C   UNL d   1     -42.133-123.094 -49.428  0.00  0.00     0.005 A 
ATOM     21  C   UNL d   1     -41.519-123.315 -48.941  0.00  0.00     0.001 A 
ATOM     22  C   UNL d   1     -41.619-123.299 -48.122  0.00  0.00     0.011 A 
ATOM     23  C   UNL d   1     -42.332-123.062 -47.805  0.00  0.00     0.058 A 
ATOM     24  C   UNL d   1     -42.944-122.841 -48.306  0.00  0.00     0.011 A 
ATOM     25 CL   UNL d   1     -42.437-123.045 -46.946  0.00  0.00    -0.082 Cl
ATOM     26  C   UNL d   1     -42.846-122.857 -49.112  0.00  0.00     0.001 A 
ENDBRANCH   3  20
TORSDOF 6
ENDMDL
