MODEL 1
REMARK VINA RESULT:      -5.6      0.000      0.000
REMARK  4 active torsions:
REMARK  status: ('A' for Active; 'I' for Inactive)
REMARK    1  A    between atoms: C_8  and  C_2 
REMARK    2  A    between atoms: O_6  and  C_8 
REMARK    3  A    between atoms: C_7  and  O_6 
REMARK    4  A    between atoms: O_10  and  C_9 
ROOT
ATOM      1  C   UNL d   1      57.590  -0.313  30.816  0.00  0.00     0.161 C 
ENDROOT
BRANCH   1   2
ATOM      2  O   UNL d   1      57.883  -0.790  30.299  0.00  0.00    -0.300 OA
BRANCH   2   3
ATOM      3  C   UNL d   1      58.407  -0.504  29.692  0.00  0.00     0.122 A 
ATOM      4  C   UNL d   1      58.810  -1.022  29.236  0.00  0.00     0.117 A 
ATOM      5  C   UNL d   1      59.317  -0.732  28.647  0.00  0.00     0.026 A 
ATOM      6  C   UNL d   1      59.399   0.082  28.541  0.00  0.00     0.002 A 
ATOM      7  C   UNL d   1      58.976   0.635  29.019  0.00  0.00     0.002 A 
ATOM      8  C   UNL d   1      58.469   0.315  29.608  0.00  0.00     0.027 A 
BRANCH   4   9
ATOM      9  O   UNL d   1      58.729  -1.832  29.341  0.00  0.00    -0.326 OA
ATOM     10  C   UNL d   1      59.149  -2.350  28.893  0.00  0.00     0.181 C 
ENDBRANCH   4   9
ENDBRANCH   2   3
ENDBRANCH   1   2
BRANCH   1  11
ATOM     11  C   UNL d   1      57.110  -0.610  31.388  0.00  0.00     0.188 A 
ATOM     12  N   UNL d   1      56.722  -1.182  31.835  0.00  0.00    -0.224 NA
ATOM     13  C   UNL d   1      56.273  -0.817  32.398  0.00  0.00     0.101 A 
ATOM     14  C   UNL d   1      56.374  -0.002  32.311  0.00  0.00     0.101 A 
ATOM     15  C   UNL d   1      55.782  -1.079  32.986  0.00  0.00     0.021 A 
ATOM     16  C   UNL d   1      55.980   0.519  32.815  0.00  0.00     0.021 A 
ATOM     17  N   UNL d   1      56.884   0.120  31.696  0.00  0.00    -0.224 NA
ATOM     18  C   UNL d   1      55.485   0.225  33.406  0.00  0.00     0.002 A 
ATOM     19  C   UNL d   1      55.383  -0.589  33.493  0.00  0.00     0.002 A 
ENDBRANCH   1  11
TORSDOF 4
ENDMDL
MODEL 2
REMARK VINA RESULT:      -5.3      0.629      1.507
REMARK  4 active torsions:
REMARK  status: ('A' for Active; 'I' for Inactive)
REMARK    1  A    between atoms: C_8  and  C_2 
REMARK    2  A    between atoms: O_6  and  C_8 
REMARK    3  A    between atoms: C_7  and  O_6 
REMARK    4  A    between atoms: O_10  and  C_9 
ROOT
ATOM      1  C   UNL d   1      57.713  -0.870  30.693  0.00  0.00     0.161 C 
ENDROOT
BRANCH   1   2
ATOM      2  O   UNL d   1      58.069  -0.504  30.127  0.00  0.00    -0.300 OA
BRANCH   2   3
ATOM      3  C   UNL d   1      58.534  -0.932  29.558  0.00  0.00     0.122 A 
ATOM      4  C   UNL d   1      58.966  -0.536  29.015  0.00  0.00     0.117 A 
ATOM      5  C   UNL d   1      59.416  -0.963  28.465  0.00  0.00     0.026 A 
ATOM      6  C   UNL d   1      59.412  -1.788  28.485  0.00  0.00     0.002 A 
ATOM      7  C   UNL d   1      58.957  -2.214  29.056  0.00  0.00     0.002 A 
ATOM      8  C   UNL d   1      58.511  -1.756  29.601  0.00  0.00     0.027 A 
BRANCH   4   9
ATOM      9  O   UNL d   1      58.971   0.285  28.996  0.00  0.00    -0.326 OA
ATOM     10  C   UNL d   1      59.428   0.682  28.467  0.00  0.00     0.181 C 
ENDBRANCH   4   9
ENDBRANCH   2   3
ENDBRANCH   1   2
BRANCH   1  11
ATOM     11  C   UNL d   1      57.289  -0.441  31.225  0.00  0.00     0.188 A 
ATOM     12  N   UNL d   1      57.004   0.229  31.609  0.00  0.00    -0.224 NA
ATOM     13  C   UNL d   1      56.496   0.002  32.193  0.00  0.00     0.101 A 
ATOM     14  C   UNL d   1      56.454  -0.822  32.185  0.00  0.00     0.101 A 
ATOM     15  C   UNL d   1      56.055   0.400  32.743  0.00  0.00     0.021 A 
ATOM     16  C   UNL d   1      55.973  -1.217  32.726  0.00  0.00     0.021 A 
ATOM     17  N   UNL d   1      56.938  -1.089  31.594  0.00  0.00    -0.224 NA
ATOM     18  C   UNL d   1      55.533  -0.788  33.276  0.00  0.00     0.002 A 
ATOM     19  C   UNL d   1      55.575   0.036  33.285  0.00  0.00     0.002 A 
ENDBRANCH   1  11
TORSDOF 4
ENDMDL
MODEL 3
REMARK VINA RESULT:      -4.0      1.315      4.562
REMARK  4 active torsions:
REMARK  status: ('A' for Active; 'I' for Inactive)
REMARK    1  A    between atoms: C_8  and  C_2 
REMARK    2  A    between atoms: O_6  and  C_8 
REMARK    3  A    between atoms: C_7  and  O_6 
REMARK    4  A    between atoms: O_10  and  C_9 
ROOT
ATOM      1  C   UNL d   1      57.293  -0.165  31.331  0.00  0.00     0.161 C 
ENDROOT
BRANCH   1   2
ATOM      2  O   UNL d   1      57.333   0.072  32.054  0.00  0.00    -0.300 OA
BRANCH   2   3
ATOM      3  C   UNL d   1      56.727  -0.137  32.613  0.00  0.00     0.122 A 
ATOM      4  C   UNL d   1      56.753   0.151  33.358  0.00  0.00     0.117 A 
ATOM      5  C   UNL d   1      56.157  -0.059  33.895  0.00  0.00     0.026 A 
ATOM      6  C   UNL d   1      55.547  -0.560  33.655  0.00  0.00     0.002 A 
ATOM      7  C   UNL d   1      55.513  -0.868  32.869  0.00  0.00     0.002 A 
ATOM      8  C   UNL d   1      56.129  -0.640  32.346  0.00  0.00     0.027 A 
BRANCH   4   9
ATOM      9  O   UNL d   1      57.360   0.650  33.597  0.00  0.00    -0.326 OA
ATOM     10  C   UNL d   1      57.588   0.682  34.367  0.00  0.00     0.181 C 
ENDBRANCH   4   9
ENDBRANCH   2   3
ENDBRANCH   1   2
BRANCH   1  11
ATOM     11  C   UNL d   1      57.848   0.091  30.808  0.00  0.00     0.188 A 
ATOM     12  N   UNL d   1      58.407   0.597  30.479  0.00  0.00    -0.224 NA
ATOM     13  C   UNL d   1      58.710   0.258  29.812  0.00  0.00     0.101 A 
ATOM     14  C   UNL d   1      58.340  -0.473  29.712  0.00  0.00     0.101 A 
ATOM     15  C   UNL d   1      59.263   0.482  29.266  0.00  0.00     0.021 A 
ATOM     16  C   UNL d   1      58.538  -0.952  29.071  0.00  0.00     0.021 A 
ATOM     17  N   UNL d   1      57.817  -0.571  30.320  0.00  0.00    -0.224 NA
ATOM     18  C   UNL d   1      59.107  -0.699  28.528  0.00  0.00     0.002 A 
ATOM     19  C   UNL d   1      59.476   0.031  28.628  0.00  0.00     0.002 A 
ENDBRANCH   1  11
TORSDOF 4
ENDMDL
MODEL 4
REMARK VINA RESULT:      -3.3      0.823      1.130
REMARK  4 active torsions:
REMARK  status: ('A' for Active; 'I' for Inactive)
REMARK    1  A    between atoms: C_8  and  C_2 
REMARK    2  A    between atoms: O_6  and  C_8 
REMARK    3  A    between atoms: C_7  and  O_6 
REMARK    4  A    between atoms: O_10  and  C_9 
ROOT
ATOM      1  C   UNL d   1      58.311  -0.524  30.118  0.00  0.00     0.161 C 
ENDROOT
BRANCH   1   2
ATOM      2  O   UNL d   1      58.529  -1.015  29.577  0.00  0.00    -0.300 OA
BRANCH   2   3
ATOM      3  C   UNL d   1      59.311  -0.974  29.244  0.00  0.00     0.122 A 
ATOM      4  C   UNL d   1      59.690  -1.644  29.031  0.00  0.00     0.117 A 
ATOM      5  C   UNL d   1      60.452  -1.592  28.707  0.00  0.00     0.026 A 
ATOM      6  C   UNL d   1      60.806  -0.854  28.608  0.00  0.00     0.002 A 
ATOM      7  C   UNL d   1      60.410  -0.141  28.830  0.00  0.00     0.002 A 
ATOM      8  C   UNL d   1      59.641  -0.222  29.156  0.00  0.00     0.027 A 
BRANCH   4   9
ATOM      9  O   UNL d   1      59.338  -2.379  29.130  0.00  0.00    -0.326 OA
ATOM     10  C   UNL d   1      59.200  -2.858  28.499  0.00  0.00     0.181 C 
ENDBRANCH   4   9
ENDBRANCH   2   3
ENDBRANCH   1   2
BRANCH   1  11
ATOM     11  C   UNL d   1      57.762  -0.759  30.656  0.00  0.00     0.188 A 
ATOM     12  N   UNL d   1      57.254  -1.273  31.050  0.00  0.00    -0.224 NA
ATOM     13  C   UNL d   1      56.866  -0.867  31.630  0.00  0.00     0.101 A 
ATOM     14  C   UNL d   1      57.128  -0.085  31.607  0.00  0.00     0.101 A 
ATOM     15  C   UNL d   1      56.312  -1.067  32.185  0.00  0.00     0.021 A 
ATOM     16  C   UNL d   1      56.826   0.467  32.141  0.00  0.00     0.021 A 
ATOM     17  N   UNL d   1      57.673  -0.023  31.014  0.00  0.00    -0.224 NA
ATOM     18  C   UNL d   1      56.262   0.237  32.697  0.00  0.00     0.002 A 
ATOM     19  C   UNL d   1      56.000  -0.545  32.720  0.00  0.00     0.002 A 
ENDBRANCH   1  11
TORSDOF 4
ENDMDL
