MODEL 1
REMARK VINA RESULT:      -4.4      0.000      0.000
REMARK  0 active torsions:
REMARK  status: ('A' for Active; 'I' for Inactive)
ROOT
ATOM      1  C   UNL d   1     -41.949-121.810 -53.890  0.00  0.00     0.063 A 
ATOM      2  N   UNL d   1     -41.949-122.677 -54.900  0.00  0.00    -0.204 NA
ATOM      3  C   UNL d   1     -41.725-122.564 -54.112  0.00  0.00     0.099 A 
ATOM      4  C   UNL d   1     -42.300-122.006 -55.146  0.00  0.00     0.318 A 
ATOM      5  C   UNL d   1     -42.314-121.449 -54.538  0.00  0.00     0.254 A 
ATOM      6  C   UNL d   1     -41.351-123.053 -53.587  0.00  0.00     0.076 A 
ATOM      7  C   UNL d   1     -41.192-122.789 -52.815  0.00  0.00     0.024 A 
ATOM      8  C   UNL d   1     -41.799-121.543 -53.141  0.00  0.00     0.016 A 
ATOM      9  O   UNL d   1     -42.604-121.904 -55.915  0.00  0.00    -0.262 OA
ATOM     10  C   UNL d   1     -41.416-122.034 -52.593  0.00  0.00     0.059 A 
ATOM     11  O   UNL d   1     -42.624-120.686 -54.559  0.00  0.00    -0.281 OA
ATOM     12 CL   UNL d   1     -41.124-123.817 -53.812  0.00  0.00    -0.081 Cl
ATOM     13 CL   UNL d   1     -41.257-121.757 -51.803  0.00  0.00    -0.082 Cl
ENDROOT
TORSDOF 0
ENDMDL
MODEL 2
REMARK VINA RESULT:      -3.9      2.007      2.832
REMARK  0 active torsions:
REMARK  status: ('A' for Active; 'I' for Inactive)
ROOT
ATOM      1  C   UNL d   1     -41.450-122.895 -53.189  0.00  0.00     0.063 A 
ATOM      2  N   UNL d   1     -41.910-121.741 -52.709  0.00  0.00    -0.204 NA
ATOM      3  C   UNL d   1     -41.755-122.166 -53.401  0.00  0.00     0.099 A 
ATOM      4  C   UNL d   1     -41.703-122.202 -52.095  0.00  0.00     0.318 A 
ATOM      5  C   UNL d   1     -41.413-122.926 -52.363  0.00  0.00     0.254 A 
ATOM      6  C   UNL d   1     -41.855-121.976 -54.181  0.00  0.00     0.076 A 
ATOM      7  C   UNL d   1     -41.648-122.521 -54.772  0.00  0.00     0.024 A 
ATOM      8  C   UNL d   1     -41.245-123.434 -53.756  0.00  0.00     0.016 A 
ATOM      9  O   UNL d   1     -41.777-121.966 -51.299  0.00  0.00    -0.262 OA
ATOM     10  C   UNL d   1     -41.343-123.250 -54.559  0.00  0.00     0.059 A 
ATOM     11  O   UNL d   1     -41.140-123.560 -51.913  0.00  0.00    -0.281 OA
ATOM     12 CL   UNL d   1     -42.164-121.237 -54.397  0.00  0.00    -0.081 Cl
ATOM     13 CL   UNL d   1     -41.128-123.815 -55.160  0.00  0.00    -0.082 Cl
ENDROOT
TORSDOF 0
ENDMDL
MODEL 3
REMARK VINA RESULT:      -3.1      3.853      4.581
REMARK  0 active torsions:
REMARK  status: ('A' for Active; 'I' for Inactive)
ROOT
ATOM      1  C   UNL d   1     -41.920-122.786 -49.660  0.00  0.00     0.063 A 
ATOM      2  N   UNL d   1     -43.074-122.768 -50.325  0.00  0.00    -0.204 NA
ATOM      3  C   UNL d   1     -42.692-123.055 -49.650  0.00  0.00     0.099 A 
ATOM      4  C   UNL d   1     -42.543-122.336 -50.732  0.00  0.00     0.318 A 
ATOM      5  C   UNL d   1     -41.817-122.330 -50.342  0.00  0.00     0.254 A 
ATOM      6  C   UNL d   1     -42.956-123.520 -49.042  0.00  0.00     0.076 A 
ATOM      7  C   UNL d   1     -42.441-123.727 -48.424  0.00  0.00     0.024 A 
ATOM      8  C   UNL d   1     -41.410-122.982 -49.063  0.00  0.00     0.016 A 
ATOM      9  O   UNL d   1     -42.721-121.953 -51.451  0.00  0.00    -0.262 OA
ATOM     10  C   UNL d   1     -41.669-123.458 -48.435  0.00  0.00     0.059 A 
ATOM     11  O   UNL d   1     -41.123-121.952 -50.573  0.00  0.00    -0.281 OA
ATOM     12 CL   UNL d   1     -43.739-123.793 -49.031  0.00  0.00    -0.081 Cl
ATOM     13 CL   UNL d   1     -41.136-123.666 -47.804  0.00  0.00    -0.082 Cl
ENDROOT
TORSDOF 0
ENDMDL
