MODEL 1
REMARK VINA RESULT:      83.6      0.000      0.000
REMARK  5 active torsions:
REMARK  status: ('A' for Active; 'I' for Inactive)
REMARK       I    between atoms: C_3  and  N_1 
REMARK    1  A    between atoms: S_7  and  C_2 
REMARK    2  A    between atoms: C_6  and  C_3 
REMARK    3  A    between atoms: N_4  and  C_8 
REMARK    4  A    between atoms: C_17  and  S_7 
REMARK    5  A    between atoms: C_18  and  C_17 
ROOT
ATOM      1  N   UNL d   1      61.444  47.157  50.209  0.00  0.00    -0.251 N 
ATOM      2  C   UNL d   1      61.643  46.396  49.946  0.00  0.00     0.182 A 
ATOM      3  C   UNL d   1      60.929  47.342  50.826  0.00  0.00     0.266 C 
ATOM      4  N   UNL d   1      62.172  46.477  49.323  0.00  0.00    -0.219 NA
ATOM      5  O   UNL d   1      60.553  46.740  51.249  0.00  0.00    -0.267 OA
ATOM      6  C   UNL d   1      61.857  47.708  49.740  0.00  0.00     0.106 A 
ATOM      7  C   UNL d   1      62.308  47.280  49.191  0.00  0.00     0.120 A 
ENDROOT
BRANCH   2   8
ATOM      8  S   UNL d   1      61.355  45.693  50.263  0.00  0.00    -0.049 SA
BRANCH   8   9
ATOM      9  C   UNL d   1      61.500  44.985  49.881  0.00  0.00     0.038 C 
BRANCH   9  10
ATOM     10  C   UNL d   1      61.699  44.317  50.313  0.00  0.00     0.007 A 
ATOM     11  C   UNL d   1      62.268  43.788  50.018  0.00  0.00     0.002 A 
ATOM     12  C   UNL d   1      62.468  43.114  50.456  0.00  0.00     0.024 A 
ATOM     13  C   UNL d   1      62.102  42.975  51.177  0.00  0.00     0.127 A 
ATOM     14  C   UNL d   1      61.540  43.494  51.473  0.00  0.00     0.024 A 
ATOM     15  C   UNL d   1      61.340  44.166  51.038  0.00  0.00     0.002 A 
BRANCH  13  16
ATOM     16  N   UNL d   1      62.307  42.298  51.610  0.00  0.00    -0.114 N 
ATOM     17  O   UNL d   1      61.890  42.103  52.314  0.00  0.00    -0.532 OA
ATOM     18  O   UNL d   1      62.927  41.801  51.357  0.00  0.00    -0.532 OA
ENDBRANCH  13  16
ENDBRANCH   9  10
ENDBRANCH   8   9
ENDBRANCH   2   8
BRANCH   3  19
ATOM     19  C   UNL d   1      60.786  48.135  51.024  0.00  0.00     0.057 A 
ATOM     20  C   UNL d   1      60.131  48.526  50.695  0.00  0.00     0.005 A 
ATOM     21  C   UNL d   1      60.001  49.313  50.900  0.00  0.00     0.000 A 
ATOM     22  C   UNL d   1      59.349  49.706  50.574  0.00  0.00     0.000 C 
ATOM     23  C   UNL d   1      60.511  49.706  51.422  0.00  0.00     0.000 A 
ATOM     24  C   UNL d   1      61.155  49.313  51.742  0.00  0.00     0.000 A 
ATOM     25  C   UNL d   1      61.294  48.526  51.543  0.00  0.00     0.005 A 
ENDBRANCH   3  19
TORSDOF 5
ENDMDL
MODEL 2
REMARK VINA RESULT:      85.2      4.346      5.845
REMARK  5 active torsions:
REMARK  status: ('A' for Active; 'I' for Inactive)
REMARK       I    between atoms: C_3  and  N_1 
REMARK    1  A    between atoms: S_7  and  C_2 
REMARK    2  A    between atoms: C_6  and  C_3 
REMARK    3  A    between atoms: N_4  and  C_8 
REMARK    4  A    between atoms: C_17  and  S_7 
REMARK    5  A    between atoms: C_18  and  C_17 
ROOT
ATOM      1  N   UNL d   1      56.979  48.011  50.502  0.00  0.00    -0.251 N 
ATOM      2  C   UNL d   1      57.213  48.785  50.685  0.00  0.00     0.182 A 
ATOM      3  C   UNL d   1      57.290  47.317  50.821  0.00  0.00     0.266 C 
ATOM      4  N   UNL d   1      56.756  49.298  50.237  0.00  0.00    -0.219 NA
ATOM      5  O   UNL d   1      57.896  47.352  51.383  0.00  0.00    -0.267 OA
ATOM      6  C   UNL d   1      56.371  48.053  49.934  0.00  0.00     0.106 A 
ATOM      7  C   UNL d   1      56.236  48.856  49.773  0.00  0.00     0.120 A 
ENDROOT
BRANCH   2   8
ATOM      8  S   UNL d   1      57.802  48.988  51.224  0.00  0.00    -0.049 SA
BRANCH   8   9
ATOM      9  C   UNL d   1      58.281  49.634  51.078  0.00  0.00     0.038 C 
BRANCH   9  10
ATOM     10  C   UNL d   1      59.067  49.624  51.310  0.00  0.00     0.007 A 
ATOM     11  C   UNL d   1      59.668  49.605  50.736  0.00  0.00     0.002 A 
ATOM     12  C   UNL d   1      60.461  49.595  50.972  0.00  0.00     0.024 A 
ATOM     13  C   UNL d   1      60.648  49.604  51.771  0.00  0.00     0.127 A 
ATOM     14  C   UNL d   1      60.059  49.623  52.342  0.00  0.00     0.024 A 
ATOM     15  C   UNL d   1      59.268  49.633  52.108  0.00  0.00     0.002 A 
BRANCH  13  16
ATOM     16  N   UNL d   1      61.445  49.594  52.000  0.00  0.00    -0.114 N 
ATOM     17  O   UNL d   1      61.653  49.667  52.812  0.00  0.00    -0.532 OA
ATOM     18  O   UNL d   1      62.051  49.512  51.433  0.00  0.00    -0.532 OA
ENDBRANCH  13  16
ENDBRANCH   9  10
ENDBRANCH   8   9
ENDBRANCH   2   8
BRANCH   3  19
ATOM     19  C   UNL d   1      56.995  46.579  50.579  0.00  0.00     0.057 A 
ATOM     20  C   UNL d   1      56.802  46.009  51.151  0.00  0.00     0.005 A 
ATOM     21  C   UNL d   1      56.510  45.282  50.897  0.00  0.00     0.000 A 
ATOM     22  C   UNL d   1      56.316  44.711  51.465  0.00  0.00     0.000 C 
ATOM     23  C   UNL d   1      56.412  45.123  50.090  0.00  0.00     0.000 A 
ATOM     24  C   UNL d   1      56.605  45.691  49.531  0.00  0.00     0.000 A 
ATOM     25  C   UNL d   1      56.898  46.421  49.775  0.00  0.00     0.005 A 
ENDBRANCH   3  19
TORSDOF 5
ENDMDL
