MODEL 1
REMARK VINA RESULT:     -10.3      0.000      0.000
REMARK  5 active torsions:
REMARK  status: ('A' for Active; 'I' for Inactive)
REMARK    1  A    between atoms: C_2  and  C_1 
REMARK    2  A    between atoms: O_16  and  C_13 
REMARK    3  A    between atoms: C_21  and  O_16 
REMARK    4  A    between atoms: O_22  and  C_17 
REMARK    5  A    between atoms: C_20  and  C_21 
ROOT
ATOM      1  C   UNL d   1      54.087  32.997  54.414  0.00  0.00     0.030 A 
ATOM      2  C   UNL d   1      53.587  33.653  54.396  0.00  0.00     0.027 A 
ATOM      3  C   UNL d   1      53.835  34.366  54.731  0.00  0.00     0.103 A 
ATOM      4  O   UNL d   1      54.579  34.424  55.082  0.00  0.00    -0.273 OA
ATOM      5  C   UNL d   1      55.079  33.769  55.101  0.00  0.00     0.300 A 
ATOM      6  C   UNL d   1      54.831  33.056  54.766  0.00  0.00     0.071 A 
ATOM      7  C   UNL d   1      52.835  33.603  54.044  0.00  0.00     0.027 A 
ATOM      8  C   UNL d   1      52.352  34.262  54.034  0.00  0.00     0.100 A 
ATOM      9  C   UNL d   1      53.336  35.026  54.715  0.00  0.00     0.027 A 
ATOM     10  C   UNL d   1      52.595  34.976  54.368  0.00  0.00     0.025 A 
ATOM     11  O   UNL d   1      55.820  33.818  55.448  0.00  0.00    -0.259 OA
ATOM     12  C   UNL d   1      52.104  35.628  54.352  0.00  0.00     0.002 C 
ENDROOT
BRANCH   1  13
ATOM     13  C   UNL d   1      53.833  32.287  54.078  0.00  0.00     0.100 A 
ATOM     14  O   UNL d   1      53.657  31.597  54.495  0.00  0.00    -0.305 OA
ATOM     15  C   UNL d   1      53.426  31.021  53.953  0.00  0.00     0.122 A 
ATOM     16  C   UNL d   1      53.191  30.239  54.043  0.00  0.00     0.117 A 
ATOM     17  C   UNL d   1      53.459  31.354  53.199  0.00  0.00     0.027 A 
ATOM     18  C   UNL d   1      52.989  29.790  53.391  0.00  0.00     0.026 A 
ATOM     19  C   UNL d   1      53.020  30.117  52.634  0.00  0.00     0.002 A 
ATOM     20  C   UNL d   1      53.256  30.903  52.539  0.00  0.00     0.002 A 
ATOM     21  C   UNL d   1      53.710  32.134  53.276  0.00  0.00     0.027 A 
BRANCH  16  22
ATOM     22  O   UNL d   1      53.158  29.910  54.788  0.00  0.00    -0.326 OA
ATOM     23  C   UNL d   1      53.189  29.091  54.880  0.00  0.00     0.181 C 
ENDBRANCH  16  22
ENDBRANCH   1  13
BRANCH   8  24
ATOM     24  O   UNL d   1      51.603  34.205  53.681  0.00  0.00    -0.302 OA
BRANCH  24  25
ATOM     25  C   UNL d   1      51.532  34.242  52.860  0.00  0.00     0.165 C 
BRANCH  25  26
ATOM     26  C   UNL d   1      50.819  34.056  52.499  0.00  0.00     0.220 C 
ATOM     27  O   UNL d   1      50.188  33.782  52.954  0.00  0.00    -0.284 OA
ATOM     28  C   UNL d   1      50.729  34.140  51.698  0.00  0.00     0.048 C 
ENDBRANCH  25  26
ENDBRANCH  24  25
ENDBRANCH   8  24
TORSDOF 5
ENDMDL
MODEL 2
REMARK VINA RESULT:      -9.6      1.038      3.828
REMARK  5 active torsions:
REMARK  status: ('A' for Active; 'I' for Inactive)
REMARK    1  A    between atoms: C_2  and  C_1 
REMARK    2  A    between atoms: O_16  and  C_13 
REMARK    3  A    between atoms: C_21  and  O_16 
REMARK    4  A    between atoms: O_22  and  C_17 
REMARK    5  A    between atoms: C_20  and  C_21 
ROOT
ATOM      1  C   UNL d   1      52.628  34.830  53.848  0.00  0.00     0.030 A 
ATOM      2  C   UNL d   1      53.038  34.193  54.175  0.00  0.00     0.027 A 
ATOM      3  C   UNL d   1      53.644  34.331  54.718  0.00  0.00     0.103 A 
ATOM      4  O   UNL d   1      53.842  35.102  54.933  0.00  0.00    -0.273 OA
ATOM      5  C   UNL d   1      53.433  35.739  54.607  0.00  0.00     0.300 A 
ATOM      6  C   UNL d   1      52.826  35.601  54.065  0.00  0.00     0.071 A 
ATOM      7  C   UNL d   1      52.845  33.412  53.963  0.00  0.00     0.027 A 
ATOM      8  C   UNL d   1      53.260  32.791  54.295  0.00  0.00     0.100 A 
ATOM      9  C   UNL d   1      54.058  33.694  55.048  0.00  0.00     0.027 A 
ATOM     10  C   UNL d   1      53.867  32.925  54.838  0.00  0.00     0.025 A 
ATOM     11  O   UNL d   1      53.623  36.509  54.817  0.00  0.00    -0.259 OA
ATOM     12  C   UNL d   1      54.275  32.298  55.163  0.00  0.00     0.002 C 
ENDROOT
BRANCH   1  13
ATOM     13  C   UNL d   1      52.023  34.686  53.306  0.00  0.00     0.100 A 
ATOM     14  O   UNL d   1      51.215  34.761  53.461  0.00  0.00    -0.305 OA
ATOM     15  C   UNL d   1      50.803  34.566  52.775  0.00  0.00     0.122 A 
ATOM     16  C   UNL d   1      50.001  34.541  52.599  0.00  0.00     0.117 A 
ATOM     17  C   UNL d   1      51.355  34.369  52.194  0.00  0.00     0.027 A 
ATOM     18  C   UNL d   1      49.747  34.322  51.854  0.00  0.00     0.026 A 
ATOM     19  C   UNL d   1      50.294  34.123  51.269  0.00  0.00     0.002 A 
ATOM     20  C   UNL d   1      51.101  34.148  51.441  0.00  0.00     0.002 A 
ATOM     21  C   UNL d   1      52.107  34.443  52.522  0.00  0.00     0.027 A 
BRANCH  16  22
ATOM     22  O   UNL d   1      49.456  34.735  53.173  0.00  0.00    -0.326 OA
ATOM     23  C   UNL d   1      48.777  35.159  52.971  0.00  0.00     0.181 C 
ENDBRANCH  16  22
ENDBRANCH   1  13
BRANCH   8  24
ATOM     24  O   UNL d   1      53.063  32.016  54.079  0.00  0.00    -0.302 OA
BRANCH  24  25
ATOM     25  C   UNL d   1      53.361  31.695  53.380  0.00  0.00     0.165 C 
BRANCH  25  26
ATOM     26  C   UNL d   1      53.028  31.015  53.061  0.00  0.00     0.220 C 
ATOM     27  O   UNL d   1      52.532  31.071  52.405  0.00  0.00    -0.284 OA
ATOM     28  C   UNL d   1      53.183  30.290  53.387  0.00  0.00     0.048 C 
ENDBRANCH  25  26
ENDBRANCH  24  25
ENDBRANCH   8  24
TORSDOF 5
ENDMDL
MODEL 3
REMARK VINA RESULT:      -8.6      1.039      3.021
REMARK  5 active torsions:
REMARK  status: ('A' for Active; 'I' for Inactive)
REMARK    1  A    between atoms: C_2  and  C_1 
REMARK    2  A    between atoms: O_16  and  C_13 
REMARK    3  A    between atoms: C_21  and  O_16 
REMARK    4  A    between atoms: O_22  and  C_17 
REMARK    5  A    between atoms: C_20  and  C_21 
ROOT
ATOM      1  C   UNL d   1      52.005  33.188  52.771  0.00  0.00     0.030 A 
ATOM      2  C   UNL d   1      52.251  33.802  53.263  0.00  0.00     0.027 A 
ATOM      3  C   UNL d   1      51.945  34.562  53.154  0.00  0.00     0.103 A 
ATOM      4  O   UNL d   1      51.397  34.708  52.556  0.00  0.00    -0.273 OA
ATOM      5  C   UNL d   1      51.151  34.095  52.063  0.00  0.00     0.300 A 
ATOM      6  C   UNL d   1      51.456  33.335  52.172  0.00  0.00     0.071 A 
ATOM      7  C   UNL d   1      52.803  33.664  53.869  0.00  0.00     0.027 A 
ATOM      8  C   UNL d   1      53.037  34.282  54.349  0.00  0.00     0.100 A 
ATOM      9  C   UNL d   1      52.190  35.181  53.647  0.00  0.00     0.027 A 
ATOM     10  C   UNL d   1      52.735  35.043  54.244  0.00  0.00     0.025 A 
ATOM     11  O   UNL d   1      50.606  34.232  51.466  0.00  0.00    -0.259 OA
ATOM     12  C   UNL d   1      52.976  35.654  54.729  0.00  0.00     0.002 C 
ENDROOT
BRANCH   1  13
ATOM     13  C   UNL d   1      52.313  32.431  52.884  0.00  0.00     0.100 A 
ATOM     14  O   UNL d   1      51.896  31.786  53.186  0.00  0.00    -0.305 OA
ATOM     15  C   UNL d   1      52.405  31.139  53.209  0.00  0.00     0.122 A 
ATOM     16  C   UNL d   1      52.301  30.361  53.453  0.00  0.00     0.117 A 
ATOM     17  C   UNL d   1      53.139  31.383  52.922  0.00  0.00     0.027 A 
ATOM     18  C   UNL d   1      52.920  29.828  53.412  0.00  0.00     0.026 A 
ATOM     19  C   UNL d   1      53.656  30.066  53.125  0.00  0.00     0.002 A 
ATOM     20  C   UNL d   1      53.765  30.847  52.879  0.00  0.00     0.002 A 
ATOM     21  C   UNL d   1      53.082  32.179  52.721  0.00  0.00     0.027 A 
BRANCH  16  22
ATOM     22  O   UNL d   1      51.577  30.120  53.737  0.00  0.00    -0.326 OA
ATOM     23  C   UNL d   1      51.467  29.341  53.983  0.00  0.00     0.181 C 
ENDBRANCH  16  22
ENDBRANCH   1  13
BRANCH   8  24
ATOM     24  O   UNL d   1      53.589  34.137  54.951  0.00  0.00    -0.302 OA
BRANCH  24  25
ATOM     25  C   UNL d   1      54.362  33.924  54.757  0.00  0.00     0.165 C 
BRANCH  25  26
ATOM     26  C   UNL d   1      54.885  33.688  55.345  0.00  0.00     0.220 C 
ATOM     27  O   UNL d   1      55.621  34.053  55.409  0.00  0.00    -0.284 OA
ATOM     28  C   UNL d   1      54.683  33.098  55.862  0.00  0.00     0.048 C 
ENDBRANCH  25  26
ENDBRANCH  24  25
ENDBRANCH   8  24
TORSDOF 5
ENDMDL
MODEL 4
REMARK VINA RESULT:      -8.6      1.001      3.711
REMARK  5 active torsions:
REMARK  status: ('A' for Active; 'I' for Inactive)
REMARK    1  A    between atoms: C_2  and  C_1 
REMARK    2  A    between atoms: O_16  and  C_13 
REMARK    3  A    between atoms: C_21  and  O_16 
REMARK    4  A    between atoms: O_22  and  C_17 
REMARK    5  A    between atoms: C_20  and  C_21 
ROOT
ATOM      1  C   UNL d   1      52.672  32.412  53.330  0.00  0.00     0.030 A 
ATOM      2  C   UNL d   1      53.260  32.723  53.818  0.00  0.00     0.027 A 
ATOM      3  C   UNL d   1      53.803  32.216  54.179  0.00  0.00     0.103 A 
ATOM      4  O   UNL d   1      53.761  31.403  54.053  0.00  0.00    -0.273 OA
ATOM      5  C   UNL d   1      53.174  31.091  53.565  0.00  0.00     0.300 A 
ATOM      6  C   UNL d   1      52.631  31.598  53.204  0.00  0.00     0.071 A 
ATOM      7  C   UNL d   1      53.310  33.542  53.951  0.00  0.00     0.027 A 
ATOM      8  C   UNL d   1      53.898  33.835  54.438  0.00  0.00     0.100 A 
ATOM      9  C   UNL d   1      54.394  32.525  54.670  0.00  0.00     0.027 A 
ATOM     10  C   UNL d   1      54.443  33.333  54.800  0.00  0.00     0.025 A 
ATOM     11  O   UNL d   1      53.124  30.282  53.434  0.00  0.00    -0.259 OA
ATOM     12  C   UNL d   1      55.026  33.636  55.284  0.00  0.00     0.002 C 
ENDROOT
BRANCH   1  13
ATOM     13  C   UNL d   1      52.132  32.923  52.972  0.00  0.00     0.100 A 
ATOM     14  O   UNL d   1      51.452  33.225  53.329  0.00  0.00    -0.305 OA
ATOM     15  C   UNL d   1      51.070  33.710  52.784  0.00  0.00     0.122 A 
ATOM     16  C   UNL d   1      50.379  34.152  52.826  0.00  0.00     0.117 A 
ATOM     17  C   UNL d   1      51.513  33.709  52.088  0.00  0.00     0.027 A 
ATOM     18  C   UNL d   1      50.128  34.591  52.183  0.00  0.00     0.026 A 
ATOM     19  C   UNL d   1      50.568  34.594  51.485  0.00  0.00     0.002 A 
ATOM     20  C   UNL d   1      51.263  34.151  51.439  0.00  0.00     0.002 A 
ATOM     21  C   UNL d   1      52.168  33.224  52.205  0.00  0.00     0.027 A 
BRANCH  16  22
ATOM     22  O   UNL d   1      49.941  34.153  53.513  0.00  0.00    -0.326 OA
ATOM     23  C   UNL d   1      49.416  34.771  53.668  0.00  0.00     0.181 C 
ENDBRANCH  16  22
ENDBRANCH   1  13
BRANCH   8  24
ATOM     24  O   UNL d   1      53.942  34.654  54.565  0.00  0.00    -0.302 OA
BRANCH  24  25
ATOM     25  C   UNL d   1      53.306  35.050  54.911  0.00  0.00     0.165 C 
BRANCH  25  26
ATOM     26  C   UNL d   1      53.175  35.844  54.745  0.00  0.00     0.220 C 
ATOM     27  O   UNL d   1      53.701  36.253  54.258  0.00  0.00    -0.284 OA
ATOM     28  C   UNL d   1      52.534  36.229  55.055  0.00  0.00     0.048 C 
ENDBRANCH  25  26
ENDBRANCH  24  25
ENDBRANCH   8  24
TORSDOF 5
ENDMDL
