MODEL 1
REMARK VINA RESULT:      -2.0      0.000      0.000
REMARK  6 active torsions:
REMARK  status: ('A' for Active; 'I' for Inactive)
REMARK    1  A    between atoms: S_5  and  C_2 
REMARK    2  A    between atoms: C_15  and  S_5 
REMARK    3  A    between atoms: N_11  and  C_8 
REMARK    4  A    between atoms: C_16  and  N_11 
REMARK    5  A    between atoms: C_17  and  N_12 
REMARK    6  A    between atoms: C_24  and  C_17 
ROOT
ATOM      1  C   UNL d   1      59.649  -2.192  28.869  0.00  0.00     0.197 A 
ATOM      2  C   UNL d   1      59.823  -2.965  28.675  0.00  0.00     0.227 A 
ATOM      3  N   UNL d   1      60.356  -1.762  28.855  0.00  0.00    -0.192 N 
ATOM      4  N   UNL d   1      58.938  -1.810  29.058  0.00  0.00    -0.206 NA
ATOM      5  N   UNL d   1      60.628  -3.021  28.542  0.00  0.00    -0.115 NA
ATOM      6  N   UNL d   1      60.964  -2.272  28.654  0.00  0.00    -0.058 NA
ATOM      7  C   UNL d   1      58.936  -1.007  29.232  0.00  0.00     0.166 A 
ATOM      8  C   UNL d   1      59.642  -0.577  29.218  0.00  0.00     0.054 A 
ATOM      9  C   UNL d   1      60.349  -0.952  29.031  0.00  0.00     0.089 A 
ATOM     10  C   UNL d   1      59.637   0.229  29.393  0.00  0.00     0.005 A 
ATOM     11  C   UNL d   1      61.059  -0.521  29.017  0.00  0.00     0.019 A 
ATOM     12  C   UNL d   1      60.347   0.661  29.379  0.00  0.00     0.000 A 
ATOM     13  C   UNL d   1      61.056   0.283  29.191  0.00  0.00     0.002 A 
ENDROOT
BRANCH   7  14
ATOM     14  N   UNL d   1      58.217  -0.634  29.420  0.00  0.00    -0.227 NA
BRANCH  14  15
ATOM     15  C   UNL d   1      58.004  -0.507  30.213  0.00  0.00     0.086 A 
ATOM     16  C   UNL d   1      57.890  -1.151  30.722  0.00  0.00     0.038 A 
ATOM     17  C   UNL d   1      57.679  -1.020  31.510  0.00  0.00     0.082 A 
ATOM     18  N   UNL d   1      57.583  -0.245  31.788  0.00  0.00    -0.302 N 
ATOM     19  C   UNL d   1      57.697   0.391  31.281  0.00  0.00     0.082 A 
ATOM     20  C   UNL d   1      57.909   0.260  30.492  0.00  0.00     0.038 A 
BRANCH  18  21
ATOM     21  C   UNL d   1      57.373  -0.111  32.572  0.00  0.00     0.080 C 
BRANCH  21  22
ATOM     22  C   UNL d   1      56.586  -0.196  32.807  0.00  0.00     0.018 A 
ATOM     23  C   UNL d   1      56.321  -0.921  33.095  0.00  0.00     0.002 A 
ATOM     24  C   UNL d   1      55.539  -1.014  33.330  0.00  0.00     0.000 A 
ATOM     25  C   UNL d   1      55.009  -0.368  33.276  0.00  0.00     0.000 A 
ATOM     26  C   UNL d   1      55.282   0.353  32.987  0.00  0.00     0.000 A 
ATOM     27  C   UNL d   1      56.067   0.444  32.752  0.00  0.00     0.002 A 
ENDBRANCH  21  22
ENDBRANCH  18  21
ENDBRANCH  14  15
ENDBRANCH   7  14
BRANCH   2  28
ATOM     28  S   UNL d   1      59.281  -3.587  28.623  0.00  0.00     0.231 S 
ATOM     29  O   UNL d   1      58.678  -3.046  28.456  0.00  0.00    -0.215 OA
ATOM     30  O   UNL d   1      59.877  -4.132  28.788  0.00  0.00    -0.215 OA
BRANCH  28  31
ATOM     31  C   UNL d   1      58.734  -4.201  28.568  0.00  0.00     0.090 A 
ATOM     32  C   UNL d   1      57.934  -4.033  28.546  0.00  0.00     0.011 A 
ATOM     33  C   UNL d   1      57.383  -4.646  28.492  0.00  0.00     0.001 A 
ATOM     34  C   UNL d   1      57.639  -5.428  28.460  0.00  0.00     0.000 A 
ATOM     35  C   UNL d   1      58.440  -5.591  28.482  0.00  0.00     0.001 A 
ATOM     36  C   UNL d   1      58.985  -4.982  28.536  0.00  0.00     0.011 A 
ENDBRANCH  28  31
ENDBRANCH   2  28
TORSDOF 6
ENDMDL
MODEL 2
REMARK VINA RESULT:      -0.1      2.086      5.193
REMARK  6 active torsions:
REMARK  status: ('A' for Active; 'I' for Inactive)
REMARK    1  A    between atoms: S_5  and  C_2 
REMARK    2  A    between atoms: C_15  and  S_5 
REMARK    3  A    between atoms: N_11  and  C_8 
REMARK    4  A    between atoms: C_16  and  N_11 
REMARK    5  A    between atoms: C_17  and  N_12 
REMARK    6  A    between atoms: C_24  and  C_17 
ROOT
ATOM      1  C   UNL d   1      58.348   0.241  32.002  0.00  0.00     0.197 A 
ATOM      2  C   UNL d   1      57.969   0.280  32.723  0.00  0.00     0.227 A 
ATOM      3  N   UNL d   1      59.140   0.450  32.121  0.00  0.00    -0.192 N 
ATOM      4  N   UNL d   1      58.084   0.043  31.242  0.00  0.00    -0.206 NA
ATOM      5  N   UNL d   1      58.514   0.510  33.288  0.00  0.00    -0.115 NA
ATOM      6  N   UNL d   1      59.246   0.617  32.915  0.00  0.00    -0.058 NA
ATOM      7  C   UNL d   1      58.607   0.055  30.608  0.00  0.00     0.166 A 
ATOM      8  C   UNL d   1      59.399   0.264  30.727  0.00  0.00     0.054 A 
ATOM      9  C   UNL d   1      59.664   0.461  31.479  0.00  0.00     0.089 A 
ATOM     10  C   UNL d   1      59.922   0.274  30.089  0.00  0.00     0.005 A 
ATOM     11  C   UNL d   1      60.459   0.670  31.599  0.00  0.00     0.019 A 
ATOM     12  C   UNL d   1      60.717   0.484  30.209  0.00  0.00     0.000 A 
ATOM     13  C   UNL d   1      60.982   0.682  30.965  0.00  0.00     0.002 A 
ENDROOT
BRANCH   7  14
ATOM     14  N   UNL d   1      58.331  -0.146  29.850  0.00  0.00    -0.227 NA
BRANCH  14  15
ATOM     15  C   UNL d   1      58.537  -0.874  29.506  0.00  0.00     0.086 A 
ATOM     16  C   UNL d   1      58.964  -0.892  28.796  0.00  0.00     0.038 A 
ATOM     17  C   UNL d   1      59.168  -1.619  28.458  0.00  0.00     0.082 A 
ATOM     18  N   UNL d   1      58.943  -2.324  28.830  0.00  0.00    -0.302 N 
ATOM     19  C   UNL d   1      58.519  -2.302  29.533  0.00  0.00     0.082 A 
ATOM     20  C   UNL d   1      58.316  -1.576  29.872  0.00  0.00     0.038 A 
BRANCH  18  21
ATOM     21  C   UNL d   1      59.143  -3.049  28.495  0.00  0.00     0.080 C 
BRANCH  21  22
ATOM     22  C   UNL d   1      59.805  -3.460  28.772  0.00  0.00     0.018 A 
ATOM     23  C   UNL d   1      60.411  -3.051  29.149  0.00  0.00     0.002 A 
ATOM     24  C   UNL d   1      61.073  -3.452  29.427  0.00  0.00     0.000 A 
ATOM     25  C   UNL d   1      61.129  -4.281  29.325  0.00  0.00     0.000 A 
ATOM     26  C   UNL d   1      60.518  -4.682  28.946  0.00  0.00     0.000 A 
ATOM     27  C   UNL d   1      59.855  -4.277  28.668  0.00  0.00     0.002 A 
ENDBRANCH  21  22
ENDBRANCH  18  21
ENDBRANCH  14  15
ENDBRANCH   7  14
BRANCH   2  28
ATOM     28  S   UNL d   1      57.171   0.115  32.862  0.00  0.00     0.231 S 
ATOM     29  O   UNL d   1      56.956   0.682  32.299  0.00  0.00    -0.215 OA
ATOM     30  O   UNL d   1      57.376  -0.452  33.424  0.00  0.00    -0.215 OA
BRANCH  28  31
ATOM     31  C   UNL d   1      56.372  -0.043  32.994  0.00  0.00     0.090 A 
ATOM     32  C   UNL d   1      55.807   0.506  32.776  0.00  0.00     0.011 A 
ATOM     33  C   UNL d   1      55.007   0.351  32.907  0.00  0.00     0.001 A 
ATOM     34  C   UNL d   1      54.776  -0.358  33.258  0.00  0.00     0.000 A 
ATOM     35  C   UNL d   1      55.345  -0.904  33.474  0.00  0.00     0.001 A 
ATOM     36  C   UNL d   1      56.139  -0.748  33.343  0.00  0.00     0.011 A 
ENDBRANCH  28  31
ENDBRANCH   2  28
TORSDOF 6
ENDMDL
