MODEL 1
REMARK VINA RESULT:       3.8      0.000      0.000
REMARK  7 active torsions:
REMARK  status: ('A' for Active; 'I' for Inactive)
REMARK    1  A    between atoms: C_10  and  C_4 
REMARK    2  A    between atoms: N_12  and  C_5 
REMARK    3  A    between atoms: C_11  and  C_8 
REMARK    4  A    between atoms: C_21  and  N_12 
REMARK    5  A    between atoms: N_16  and  C_25 
REMARK    6  A    between atoms: C_20  and  C_21 
REMARK    7  A    between atoms: C_25  and  C_20 
ROOT
ATOM      1  C   UNL d   1      58.524  -0.374  30.920  0.00  0.00     0.168 A 
ATOM      2  N   UNL d   1      57.861  -0.143  31.370  0.00  0.00    -0.184 N 
ATOM      3  N   UNL d   1      59.270  -0.170  31.172  0.00  0.00    -0.231 NA
ATOM      4  C   UNL d   1      58.420  -0.797  30.241  0.00  0.00     0.057 A 
ATOM      5  C   UNL d   1      57.976   0.281  32.051  0.00  0.00     0.217 A 
ATOM      6  N   UNL d   1      57.019  -0.767  30.443  0.00  0.00    -0.160 NA
ATOM      7  C   UNL d   1      58.722   0.488  32.308  0.00  0.00     0.067 A 
ATOM      8  C   UNL d   1      59.382   0.258  31.860  0.00  0.00     0.064 A 
ATOM      9  C   UNL d   1      57.668  -0.994  30.002  0.00  0.00     0.124 A 
ENDROOT
BRANCH   4  10
ATOM     10  C   UNL d   1      59.069  -1.024  29.800  0.00  0.00     0.005 A 
ATOM     11  C   UNL d   1      59.383  -1.769  29.879  0.00  0.00     0.001 A 
ATOM     12  C   UNL d   1      60.039  -1.997  29.433  0.00  0.00     0.011 A 
ATOM     13  C   UNL d   1      60.374  -1.478  28.915  0.00  0.00     0.058 A 
ATOM     14  C   UNL d   1      60.053  -0.722  28.837  0.00  0.00     0.011 A 
ATOM     15 CL   UNL d   1      61.046  -1.713  28.458  0.00  0.00    -0.082 Cl
ATOM     16  C   UNL d   1      59.414  -0.499  29.271  0.00  0.00     0.001 A 
ENDBRANCH   4  10
BRANCH   5  17
ATOM     17  N   UNL d   1      57.299   0.517  32.510  0.00  0.00    -0.380 NA
BRANCH  17  18
ATOM     18  C   UNL d   1      56.620   0.681  32.986  0.00  0.00     0.164 C 
BRANCH  18  19
ATOM     19  C   UNL d   1      56.355   0.098  33.535  0.00  0.00     0.054 C 
BRANCH  19  20
ATOM     20  C   UNL d   1      55.524  -0.111  33.555  0.00  0.00     0.083 C 
BRANCH  20  21
ATOM     21  N   UNL d   1      55.015   0.244  34.128  0.00  0.00    -0.300 N 
ATOM     22  C   UNL d   1      55.530   0.017  34.766  0.00  0.00     0.100 C 
ATOM     23  C   UNL d   1      54.308   0.670  34.310  0.00  0.00     0.100 C 
ENDBRANCH  20  21
ENDBRANCH  19  20
ENDBRANCH  18  19
ENDBRANCH  17  18
ENDBRANCH   5  17
BRANCH   8  24
ATOM     24  C   UNL d   1      60.167   0.469  32.117  0.00  0.00     0.036 C 
ATOM     25  C   UNL d   1      60.948   0.677  32.368  0.00  0.00     0.006 C 
ATOM     26  C   UNL d   1      60.331   0.565  32.949  0.00  0.00     0.006 C 
ATOM     27  C   UNL d   1      60.785   0.581  31.537  0.00  0.00     0.006 C 
ENDBRANCH   8  24
TORSDOF 7
ENDMDL
MODEL 2
REMARK VINA RESULT:       5.0      2.328      5.484
REMARK  7 active torsions:
REMARK  status: ('A' for Active; 'I' for Inactive)
REMARK    1  A    between atoms: C_10  and  C_4 
REMARK    2  A    between atoms: N_12  and  C_5 
REMARK    3  A    between atoms: C_11  and  C_8 
REMARK    4  A    between atoms: C_21  and  N_12 
REMARK    5  A    between atoms: N_16  and  C_25 
REMARK    6  A    between atoms: C_20  and  C_21 
REMARK    7  A    between atoms: C_25  and  C_20 
ROOT
ATOM      1  C   UNL d   1      57.195  -0.248  32.730  0.00  0.00     0.168 A 
ATOM      2  N   UNL d   1      57.507  -0.353  31.964  0.00  0.00    -0.184 N 
ATOM      3  N   UNL d   1      56.536  -0.670  32.955  0.00  0.00    -0.231 NA
ATOM      4  C   UNL d   1      57.547   0.268  33.240  0.00  0.00     0.057 A 
ATOM      5  C   UNL d   1      57.146  -0.873  31.460  0.00  0.00     0.217 A 
ATOM      6  N   UNL d   1      58.510   0.580  32.251  0.00  0.00    -0.160 NA
ATOM      7  C   UNL d   1      56.486  -1.299  31.680  0.00  0.00     0.067 A 
ATOM      8  C   UNL d   1      56.175  -1.195  32.443  0.00  0.00     0.064 A 
ATOM      9  C   UNL d   1      58.204   0.682  33.001  0.00  0.00     0.124 A 
ENDROOT
BRANCH   4  10
ATOM     10  C   UNL d   1      57.241   0.371  33.991  0.00  0.00     0.005 A 
ATOM     11  C   UNL d   1      56.458   0.559  34.096  0.00  0.00     0.001 A 
ATOM     12  C   UNL d   1      56.149   0.663  34.854  0.00  0.00     0.011 A 
ATOM     13  C   UNL d   1      56.626   0.576  35.498  0.00  0.00     0.058 A 
ATOM     14  C   UNL d   1      57.421   0.384  35.388  0.00  0.00     0.011 A 
ATOM     15 CL   UNL d   1      56.309   0.682  36.275  0.00  0.00    -0.082 Cl
ATOM     16  C   UNL d   1      57.723   0.283  34.650  0.00  0.00     0.001 A 
ENDBRANCH   4  10
BRANCH   5  17
ATOM     17  N   UNL d   1      57.465  -0.980  30.678  0.00  0.00    -0.380 NA
BRANCH  17  18
ATOM     18  C   UNL d   1      57.758  -1.018  29.886  0.00  0.00     0.164 C 
BRANCH  18  19
ATOM     19  C   UNL d   1      58.236  -1.675  29.659  0.00  0.00     0.054 C 
BRANCH  19  20
ATOM     20  C   UNL d   1      59.043  -1.538  29.402  0.00  0.00     0.083 C 
BRANCH  20  21
ATOM     21  N   UNL d   1      59.465  -2.147  28.998  0.00  0.00    -0.300 N 
ATOM     22  C   UNL d   1      60.060  -1.599  28.735  0.00  0.00     0.100 C 
ATOM     23  C   UNL d   1      59.537  -2.960  28.776  0.00  0.00     0.100 C 
ENDBRANCH  20  21
ENDBRANCH  19  20
ENDBRANCH  18  19
ENDBRANCH  17  18
ENDBRANCH   5  17
BRANCH   8  24
ATOM     24  C   UNL d   1      55.485  -1.633  32.686  0.00  0.00     0.036 C 
ATOM     25  C   UNL d   1      54.803  -2.071  32.929  0.00  0.00     0.006 C 
ATOM     26  C   UNL d   1      54.709  -1.289  32.596  0.00  0.00     0.006 C 
ATOM     27  C   UNL d   1      55.578  -2.415  33.019  0.00  0.00     0.006 C 
ENDBRANCH   8  24
TORSDOF 7
ENDMDL
