MODEL 1
REMARK VINA RESULT:      -2.1      0.000      0.000
REMARK  5 active torsions:
REMARK  status: ('A' for Active; 'I' for Inactive)
REMARK    1  A    between atoms: N_5  and  C_1 
REMARK    2  A    between atoms: C_8  and  C_2 
REMARK       I    between atoms: C_6  and  N_5 
REMARK    3  A    between atoms: C_9  and  C_6 
REMARK    4  A    between atoms: O_12  and  C_8 
REMARK    5  A    between atoms: C_17  and  O_12 
ROOT
ATOM      1  C   UNL d   1      33.111  20.111 -22.138  0.00  0.00     0.114 A 
ATOM      2  C   UNL d   1      32.914  19.232 -23.111  0.00  0.00     0.094 A 
ATOM      3  S   UNL d   1      32.909  20.015 -22.929  0.00  0.00    -0.062 SA
ATOM      4  C   UNL d   1      33.128  18.837 -22.402  0.00  0.00     0.013 A 
ATOM      5  C   UNL d   1      33.241  19.365 -21.837  0.00  0.00     0.026 A 
ATOM      6  C   UNL d   1      33.209  18.021 -22.310  0.00  0.00     0.001 C 
ENDROOT
BRANCH   1   7
ATOM      7  N   UNL d   1      33.175  20.846 -21.703  0.00  0.00    -0.205 NA
ATOM      8  C   UNL d   1      32.523  21.137 -21.305  0.00  0.00     0.255 C 
ATOM      9  O   UNL d   1      31.812  20.739 -21.314  0.00  0.00    -0.270 OA
BRANCH   8  10
ATOM     10  C   UNL d   1      32.580  21.835 -20.890  0.00  0.00     0.073 C 
ATOM     11  C   UNL d   1      32.940  21.911 -20.082  0.00  0.00     0.009 C 
ATOM     12  C   UNL d   1      32.289  22.580 -21.208  0.00  0.00     0.009 C 
ATOM     13  C   UNL d   1      32.623  22.452 -20.540  0.00  0.00     0.009 C 
ENDBRANCH   8  10
ENDBRANCH   1   7
BRANCH   2  14
ATOM     14  C   UNL d   1      32.745  18.883 -23.846  0.00  0.00     0.306 C 
ATOM     15  O   UNL d   1      33.238  19.045 -24.473  0.00  0.00    -0.258 OA
BRANCH  14  16
ATOM     16  O   UNL d   1      32.104  18.390 -23.949  0.00  0.00    -0.271 OA
BRANCH  16  17
ATOM     17  C   UNL d   1      31.926  18.087 -24.690  0.00  0.00     0.126 C 
ATOM     18  C   UNL d   1      31.184  17.749 -24.813  0.00  0.00     0.029 C 
ENDBRANCH  16  17
ENDBRANCH  14  16
ENDBRANCH   2  14
TORSDOF 5
ENDMDL
MODEL 2
REMARK VINA RESULT:      -1.8      2.678      4.426
REMARK  5 active torsions:
REMARK  status: ('A' for Active; 'I' for Inactive)
REMARK    1  A    between atoms: N_5  and  C_1 
REMARK    2  A    between atoms: C_8  and  C_2 
REMARK       I    between atoms: C_6  and  N_5 
REMARK    3  A    between atoms: C_9  and  C_6 
REMARK    4  A    between atoms: O_12  and  C_8 
REMARK    5  A    between atoms: C_17  and  O_12 
ROOT
ATOM      1  C   UNL d   1      32.823  23.201 -19.181  0.00  0.00     0.114 A 
ATOM      2  C   UNL d   1      32.849  22.653 -20.389  0.00  0.00     0.094 A 
ATOM      3  S   UNL d   1      33.126  22.587 -19.637  0.00  0.00    -0.062 SA
ATOM      4  C   UNL d   1      32.358  23.334 -20.389  0.00  0.00     0.013 A 
ATOM      5  C   UNL d   1      32.352  23.647 -19.674  0.00  0.00     0.026 A 
ATOM      6  C   UNL d   1      31.946  23.631 -21.040  0.00  0.00     0.001 C 
ENDROOT
BRANCH   1   7
ATOM      7  N   UNL d   1      32.968  23.352 -18.351  0.00  0.00    -0.205 NA
ATOM      8  C   UNL d   1      32.756  22.790 -17.797  0.00  0.00     0.255 C 
ATOM      9  O   UNL d   1      32.409  22.088 -18.020  0.00  0.00    -0.270 OA
BRANCH   8  10
ATOM     10  C   UNL d   1      32.892  22.931 -17.006  0.00  0.00     0.073 C 
ATOM     11  C   UNL d   1      32.703  23.693 -16.591  0.00  0.00     0.009 C 
ATOM     12  C   UNL d   1      33.241  22.337 -16.490  0.00  0.00     0.009 C 
ATOM     13  C   UNL d   1      33.017  23.039 -16.315  0.00  0.00     0.009 C 
ENDBRANCH   8  10
ENDBRANCH   1   7
BRANCH   2  14
ATOM     14  C   UNL d   1      33.011  22.154 -21.033  0.00  0.00     0.306 C 
ATOM     15  O   UNL d   1      33.147  22.495 -21.760  0.00  0.00    -0.258 OA
BRANCH  14  16
ATOM     16  O   UNL d   1      33.037  21.343 -20.952  0.00  0.00    -0.271 OA
BRANCH  16  17
ATOM     17  C   UNL d   1      33.180  20.864 -21.602  0.00  0.00     0.126 C 
ATOM     18  C   UNL d   1      33.116  20.047 -21.514  0.00  0.00     0.029 C 
ENDBRANCH  16  17
ENDBRANCH  14  16
ENDBRANCH   2  14
TORSDOF 5
ENDMDL
MODEL 3
REMARK VINA RESULT:      -1.7      1.884      4.600
REMARK  5 active torsions:
REMARK  status: ('A' for Active; 'I' for Inactive)
REMARK    1  A    between atoms: N_5  and  C_1 
REMARK    2  A    between atoms: C_8  and  C_2 
REMARK       I    between atoms: C_6  and  N_5 
REMARK    3  A    between atoms: C_9  and  C_6 
REMARK    4  A    between atoms: O_12  and  C_8 
REMARK    5  A    between atoms: C_17  and  O_12 
ROOT
ATOM      1  C   UNL d   1      32.163  17.815 -24.241  0.00  0.00     0.114 A 
ATOM      2  C   UNL d   1      32.701  18.941 -23.795  0.00  0.00     0.094 A 
ATOM      3  S   UNL d   1      32.287  18.287 -23.580  0.00  0.00    -0.062 SA
ATOM      4  C   UNL d   1      32.834  18.863 -24.620  0.00  0.00     0.013 A 
ATOM      5  C   UNL d   1      32.512  18.197 -24.870  0.00  0.00     0.026 A 
ATOM      6  C   UNL d   1      33.239  19.402 -25.097  0.00  0.00     0.001 C 
ENDROOT
BRANCH   1   7
ATOM      7  N   UNL d   1      31.749  17.066 -24.274  0.00  0.00    -0.205 NA
ATOM      8  C   UNL d   1      30.932  17.055 -24.249  0.00  0.00     0.255 C 
ATOM      9  O   UNL d   1      30.504  17.746 -24.192  0.00  0.00    -0.270 OA
BRANCH   8  10
ATOM     10  C   UNL d   1      30.536  16.345 -24.281  0.00  0.00     0.073 C 
ATOM     11  C   UNL d   1      30.412  15.807 -23.585  0.00  0.00     0.009 C 
ATOM     12  C   UNL d   1      30.191  16.046 -25.011  0.00  0.00     0.009 C 
ATOM     13  C   UNL d   1      30.186  15.727 -24.324  0.00  0.00     0.009 C 
ENDBRANCH   8  10
ENDBRANCH   1   7
BRANCH   2  14
ATOM     14  C   UNL d   1      32.948  19.567 -23.306  0.00  0.00     0.306 C 
ATOM     15  O   UNL d   1      33.115  20.284 -23.653  0.00  0.00    -0.258 OA
BRANCH  14  16
ATOM     16  O   UNL d   1      33.025  19.477 -22.500  0.00  0.00    -0.271 OA
BRANCH  16  17
ATOM     17  C   UNL d   1      33.240  20.112 -22.028  0.00  0.00     0.126 C 
ATOM     18  C   UNL d   1      32.934  20.162 -21.265  0.00  0.00     0.029 C 
ENDBRANCH  16  17
ENDBRANCH  14  16
ENDBRANCH   2  14
TORSDOF 5
ENDMDL
MODEL 4
REMARK VINA RESULT:      -1.6      1.518      3.958
REMARK  5 active torsions:
REMARK  status: ('A' for Active; 'I' for Inactive)
REMARK    1  A    between atoms: N_5  and  C_1 
REMARK    2  A    between atoms: C_8  and  C_2 
REMARK       I    between atoms: C_6  and  N_5 
REMARK    3  A    between atoms: C_9  and  C_6 
REMARK    4  A    between atoms: O_12  and  C_8 
REMARK    5  A    between atoms: C_17  and  O_12 
ROOT
ATOM      1  C   UNL d   1      33.162  19.502 -22.631  0.00  0.00     0.114 A 
ATOM      2  C   UNL d   1      33.170  20.796 -22.345  0.00  0.00     0.094 A 
ATOM      3  S   UNL d   1      33.240  20.259 -22.939  0.00  0.00    -0.062 SA
ATOM      4  C   UNL d   1      33.044  20.346 -21.648  0.00  0.00     0.013 A 
ATOM      5  C   UNL d   1      33.042  19.587 -21.829  0.00  0.00     0.026 A 
ATOM      6  C   UNL d   1      32.940  20.653 -20.889  0.00  0.00     0.001 C 
ENDROOT
BRANCH   1   7
ATOM      7  N   UNL d   1      33.198  18.760 -23.057  0.00  0.00    -0.205 NA
ATOM      8  C   UNL d   1      32.534  18.488 -23.448  0.00  0.00     0.255 C 
ATOM      9  O   UNL d   1      31.837  18.909 -23.439  0.00  0.00    -0.270 OA
BRANCH   8  10
ATOM     10  C   UNL d   1      32.564  17.783 -23.855  0.00  0.00     0.073 C 
ATOM     11  C   UNL d   1      32.474  16.982 -23.480  0.00  0.00     0.009 C 
ATOM     12  C   UNL d   1      32.690  17.751 -24.706  0.00  0.00     0.009 C 
ATOM     13  C   UNL d   1      32.593  17.175 -24.223  0.00  0.00     0.009 C 
ENDBRANCH   8  10
ENDBRANCH   1   7
BRANCH   2  14
ATOM     14  C   UNL d   1      33.212  21.625 -22.405  0.00  0.00     0.306 C 
ATOM     15  O   UNL d   1      33.224  22.060 -21.717  0.00  0.00    -0.258 OA
BRANCH  14  16
ATOM     16  O   UNL d   1      33.241  22.002 -23.127  0.00  0.00    -0.271 OA
BRANCH  16  17
ATOM     17  C   UNL d   1      33.208  22.820 -23.171  0.00  0.00     0.126 C 
ATOM     18  C   UNL d   1      33.170  23.177 -23.913  0.00  0.00     0.029 C 
ENDBRANCH  16  17
ENDBRANCH  14  16
ENDBRANCH   2  14
TORSDOF 5
ENDMDL
MODEL 5
REMARK VINA RESULT:      -1.2      1.007      1.441
REMARK  5 active torsions:
REMARK  status: ('A' for Active; 'I' for Inactive)
REMARK    1  A    between atoms: N_5  and  C_1 
REMARK    2  A    between atoms: C_8  and  C_2 
REMARK       I    between atoms: C_6  and  N_5 
REMARK    3  A    between atoms: C_9  and  C_6 
REMARK    4  A    between atoms: O_12  and  C_8 
REMARK    5  A    between atoms: C_17  and  O_12 
ROOT
ATOM      1  C   UNL d   1      33.194  20.757 -22.142  0.00  0.00     0.114 A 
ATOM      2  C   UNL d   1      33.139  19.730 -22.979  0.00  0.00     0.094 A 
ATOM      3  S   UNL d   1      33.131  19.940 -22.203  0.00  0.00    -0.062 SA
ATOM      4  C   UNL d   1      33.210  20.450 -23.406  0.00  0.00     0.013 A 
ATOM      5  C   UNL d   1      33.241  21.046 -22.902  0.00  0.00     0.026 A 
ATOM      6  C   UNL d   1      33.241  20.521 -24.228  0.00  0.00     0.001 C 
ENDROOT
BRANCH   1   7
ATOM      7  N   UNL d   1      33.209  21.225 -21.425  0.00  0.00    -0.205 NA
ATOM      8  C   UNL d   1      32.518  21.563 -21.150  0.00  0.00     0.255 C 
ATOM      9  O   UNL d   1      31.813  21.462 -21.546  0.00  0.00    -0.270 OA
BRANCH   8  10
ATOM     10  C   UNL d   1      32.528  22.009 -20.469  0.00  0.00     0.073 C 
ATOM     11  C   UNL d   1      32.831  21.722 -19.685  0.00  0.00     0.009 C 
ATOM     12  C   UNL d   1      32.237  22.819 -20.449  0.00  0.00     0.009 C 
ATOM     13  C   UNL d   1      32.530  22.410 -19.882  0.00  0.00     0.009 C 
ENDBRANCH   8  10
ENDBRANCH   1   7
BRANCH   2  14
ATOM     14  C   UNL d   1      33.088  18.963 -23.296  0.00  0.00     0.306 C 
ATOM     15  O   UNL d   1      33.019  18.884 -24.103  0.00  0.00    -0.258 OA
BRANCH  14  16
ATOM     16  O   UNL d   1      33.107  18.301 -22.821  0.00  0.00    -0.271 OA
BRANCH  16  17
ATOM     17  C   UNL d   1      32.998  17.555 -23.143  0.00  0.00     0.126 C 
ATOM     18  C   UNL d   1      33.214  16.895 -22.699  0.00  0.00     0.029 C 
ENDBRANCH  16  17
ENDBRANCH  14  16
ENDBRANCH   2  14
TORSDOF 5
ENDMDL
MODEL 6
REMARK VINA RESULT:      -1.0      4.475      5.610
REMARK  5 active torsions:
REMARK  status: ('A' for Active; 'I' for Inactive)
REMARK    1  A    between atoms: N_5  and  C_1 
REMARK    2  A    between atoms: C_8  and  C_2 
REMARK       I    between atoms: C_6  and  N_5 
REMARK    3  A    between atoms: C_9  and  C_6 
REMARK    4  A    between atoms: O_12  and  C_8 
REMARK    5  A    between atoms: C_17  and  O_12 
ROOT
ATOM      1  C   UNL d   1      30.292  16.721 -24.544  0.00  0.00     0.114 A 
ATOM      2  C   UNL d   1      29.078  16.675 -24.013  0.00  0.00     0.094 A 
ATOM      3  S   UNL d   1      29.773  16.278 -24.087  0.00  0.00    -0.062 SA
ATOM      4  C   UNL d   1      29.180  17.389 -24.443  0.00  0.00     0.013 A 
ATOM      5  C   UNL d   1      29.897  17.404 -24.751  0.00  0.00     0.026 A 
ATOM      6  C   UNL d   1      28.614  17.984 -24.531  0.00  0.00     0.001 C 
ENDROOT
BRANCH   1   7
ATOM      7  N   UNL d   1      31.093  16.517 -24.767  0.00  0.00    -0.205 NA
ATOM      8  C   UNL d   1      31.691  16.569 -24.213  0.00  0.00     0.255 C 
ATOM      9  O   UNL d   1      31.539  16.811 -23.450  0.00  0.00    -0.270 OA
BRANCH   8  10
ATOM     10  C   UNL d   1      32.454  16.375 -24.421  0.00  0.00     0.073 C 
ATOM     11  C   UNL d   1      32.805  15.563 -24.347  0.00  0.00     0.009 C 
ATOM     12  C   UNL d   1      33.002  16.957 -24.740  0.00  0.00     0.009 C 
ATOM     13  C   UNL d   1      33.123  16.221 -24.608  0.00  0.00     0.009 C 
ENDBRANCH   8  10
ENDBRANCH   1   7
BRANCH   2  14
ATOM     14  C   UNL d   1      28.399  16.434 -23.598  0.00  0.00     0.306 C 
ATOM     15  O   UNL d   1      28.300  16.697 -22.834  0.00  0.00    -0.258 OA
BRANCH  14  16
ATOM     16  O   UNL d   1      27.840  15.947 -23.937  0.00  0.00    -0.271 OA
BRANCH  16  17
ATOM     17  C   UNL d   1      27.323  15.517 -23.469  0.00  0.00     0.126 C 
ATOM     18  C   UNL d   1      26.535  15.453 -23.702  0.00  0.00     0.029 C 
ENDBRANCH  16  17
ENDBRANCH  14  16
ENDBRANCH   2  14
TORSDOF 5
ENDMDL
MODEL 7
REMARK VINA RESULT:      -0.9      1.425      4.552
REMARK  5 active torsions:
REMARK  status: ('A' for Active; 'I' for Inactive)
REMARK    1  A    between atoms: N_5  and  C_1 
REMARK    2  A    between atoms: C_8  and  C_2 
REMARK       I    between atoms: C_6  and  N_5 
REMARK    3  A    between atoms: C_9  and  C_6 
REMARK    4  A    between atoms: O_12  and  C_8 
REMARK    5  A    between atoms: C_17  and  O_12 
ROOT
ATOM      1  C   UNL d   1      33.014  21.223 -21.757  0.00  0.00     0.114 A 
ATOM      2  C   UNL d   1      32.638  22.283 -21.055  0.00  0.00     0.094 A 
ATOM      3  S   UNL d   1      32.815  21.500 -21.010  0.00  0.00    -0.062 SA
ATOM      4  C   UNL d   1      32.733  22.489 -21.863  0.00  0.00     0.013 A 
ATOM      5  C   UNL d   1      32.954  21.857 -22.265  0.00  0.00     0.026 A 
ATOM      6  C   UNL d   1      32.613  23.239 -22.186  0.00  0.00     0.001 C 
ENDROOT
BRANCH   1   7
ATOM      7  N   UNL d   1      33.241  20.426 -21.974  0.00  0.00    -0.205 NA
ATOM      8  C   UNL d   1      32.780  20.005 -22.501  0.00  0.00     0.255 C 
ATOM      9  O   UNL d   1      32.107  20.330 -22.825  0.00  0.00    -0.270 OA
BRANCH   8  10
ATOM     10  C   UNL d   1      32.993  19.247 -22.709  0.00  0.00     0.073 C 
ATOM     11  C   UNL d   1      33.236  19.000 -23.527  0.00  0.00     0.009 C 
ATOM     12  C   UNL d   1      33.001  18.602 -22.139  0.00  0.00     0.009 C 
ATOM     13  C   UNL d   1      33.176  18.581 -22.876  0.00  0.00     0.009 C 
ENDBRANCH   8  10
ENDBRANCH   1   7
BRANCH   2  14
ATOM     14  C   UNL d   1      32.409  22.786 -20.434  0.00  0.00     0.306 C 
ATOM     15  O   UNL d   1      31.908  23.404 -20.605  0.00  0.00    -0.258 OA
BRANCH  14  16
ATOM     16  O   UNL d   1      32.672  22.673 -19.671  0.00  0.00    -0.271 OA
BRANCH  16  17
ATOM     17  C   UNL d   1      32.576  23.260 -19.107  0.00  0.00     0.126 C 
ATOM     18  C   UNL d   1      32.522  23.043 -18.313  0.00  0.00     0.029 C 
ENDBRANCH  16  17
ENDBRANCH  14  16
ENDBRANCH   2  14
TORSDOF 5
ENDMDL
