MODEL 1
REMARK VINA RESULT:      -7.0      0.000      0.000
REMARK  4 active torsions:
REMARK  status: ('A' for Active; 'I' for Inactive)
REMARK    1  A    between atoms: C_7  and  C_3 
REMARK    2  A    between atoms: S_6  and  C_7 
REMARK    3  A    between atoms: C_9  and  S_6 
REMARK    4  A    between atoms: C_8  and  C_9 
ROOT
ATOM      1  N   UNL d   1      50.722  34.047  52.016  0.00  0.00    -0.225 NA
ATOM      2  N   UNL d   1      50.380  34.607  53.208  0.00  0.00    -0.225 NA
ATOM      3  C   UNL d   1      50.980  34.186  52.803  0.00  0.00     0.169 A 
ATOM      4  C   UNL d   1      49.961  34.386  51.945  0.00  0.00     0.101 A 
ATOM      5  C   UNL d   1      49.744  34.731  52.673  0.00  0.00     0.101 A 
ATOM      6  C   UNL d   1      49.434  34.421  51.297  0.00  0.00     0.021 A 
ATOM      7  C   UNL d   1      49.005  35.106  52.739  0.00  0.00     0.021 A 
ATOM      8  C   UNL d   1      48.496  35.136  52.100  0.00  0.00     0.002 A 
ATOM      9  C   UNL d   1      48.711  34.793  51.379  0.00  0.00     0.002 A 
ENDROOT
BRANCH   3  10
ATOM     10  C   UNL d   1      51.711  33.812  52.724  0.00  0.00     0.074 C 
BRANCH  10  11
ATOM     11  S   UNL d   1      52.213  33.748  53.376  0.00  0.00    -0.083 SA
BRANCH  11  12
ATOM     12  C   UNL d   1      52.976  33.450  53.281  0.00  0.00     0.035 C 
BRANCH  12  13
ATOM     13  C   UNL d   1      53.456  33.330  53.941  0.00  0.00     0.006 A 
ATOM     14  C   UNL d   1      53.804  33.980  54.314  0.00  0.00     0.001 A 
ATOM     15  C   UNL d   1      54.284  33.861  54.974  0.00  0.00     0.000 A 
ATOM     16  C   UNL d   1      54.414  33.096  55.255  0.00  0.00     0.000 A 
ATOM     17  C   UNL d   1      54.062  32.450  54.876  0.00  0.00     0.000 A 
ATOM     18  C   UNL d   1      53.582  32.570  54.217  0.00  0.00     0.001 A 
ENDBRANCH  12  13
ENDBRANCH  11  12
ENDBRANCH  10  11
ENDBRANCH   3  10
TORSDOF 4
ENDMDL
MODEL 2
REMARK VINA RESULT:      -6.8      1.024      4.828
REMARK  4 active torsions:
REMARK  status: ('A' for Active; 'I' for Inactive)
REMARK    1  A    between atoms: C_7  and  C_3 
REMARK    2  A    between atoms: S_6  and  C_7 
REMARK    3  A    between atoms: C_9  and  S_6 
REMARK    4  A    between atoms: C_8  and  C_9 
ROOT
ATOM      1  N   UNL d   1      52.948  33.251  53.276  0.00  0.00    -0.225 NA
ATOM      2  N   UNL d   1      52.652  34.155  54.249  0.00  0.00    -0.225 NA
ATOM      3  C   UNL d   1      52.372  33.800  53.544  0.00  0.00     0.169 A 
ATOM      4  C   UNL d   1      53.580  33.274  53.822  0.00  0.00     0.101 A 
ATOM      5  C   UNL d   1      53.405  33.827  54.423  0.00  0.00     0.101 A 
ATOM      6  C   UNL d   1      54.301  32.853  53.845  0.00  0.00     0.021 A 
ATOM      7  C   UNL d   1      53.955  33.948  55.034  0.00  0.00     0.021 A 
ATOM      8  C   UNL d   1      54.659  33.531  55.049  0.00  0.00     0.002 A 
ATOM      9  C   UNL d   1      54.832  32.983  54.454  0.00  0.00     0.002 A 
ENDROOT
BRANCH   3  10
ATOM     10  C   UNL d   1      51.834  33.671  52.932  0.00  0.00     0.074 C 
BRANCH  10  11
ATOM     11  S   UNL d   1      51.141  34.117  52.892  0.00  0.00    -0.083 SA
BRANCH  11  12
ATOM     12  C   UNL d   1      50.655  34.065  52.228  0.00  0.00     0.035 C 
BRANCH  12  13
ATOM     13  C   UNL d   1      49.929  34.455  52.218  0.00  0.00     0.006 A 
ATOM     14  C   UNL d   1      49.463  34.431  51.534  0.00  0.00     0.001 A 
ATOM     15  C   UNL d   1      48.736  34.821  51.525  0.00  0.00     0.000 A 
ATOM     16  C   UNL d   1      48.480  35.230  52.193  0.00  0.00     0.000 A 
ATOM     17  C   UNL d   1      48.951  35.249  52.873  0.00  0.00     0.000 A 
ATOM     18  C   UNL d   1      49.678  34.859  52.883  0.00  0.00     0.001 A 
ENDBRANCH  12  13
ENDBRANCH  11  12
ENDBRANCH  10  11
ENDBRANCH   3  10
TORSDOF 4
ENDMDL
MODEL 3
REMARK VINA RESULT:      -6.7      2.752      3.926
REMARK  4 active torsions:
REMARK  status: ('A' for Active; 'I' for Inactive)
REMARK    1  A    between atoms: C_7  and  C_3 
REMARK    2  A    between atoms: S_6  and  C_7 
REMARK    3  A    between atoms: C_9  and  S_6 
REMARK    4  A    between atoms: C_8  and  C_9 
ROOT
ATOM      1  N   UNL d   1      53.321  33.578  53.462  0.00  0.00    -0.225 NA
ATOM      2  N   UNL d   1      53.792  33.485  54.735  0.00  0.00    -0.225 NA
ATOM      3  C   UNL d   1      53.702  33.071  54.012  0.00  0.00     0.169 A 
ATOM      4  C   UNL d   1      53.180  34.303  53.854  0.00  0.00     0.101 A 
ATOM      5  C   UNL d   1      53.467  34.253  54.637  0.00  0.00     0.101 A 
ATOM      6  C   UNL d   1      52.821  35.009  53.590  0.00  0.00     0.021 A 
ATOM      7  C   UNL d   1      53.388  34.911  55.139  0.00  0.00     0.021 A 
ATOM      8  C   UNL d   1      53.035  35.599  54.872  0.00  0.00     0.002 A 
ATOM      9  C   UNL d   1      52.751  35.648  54.096  0.00  0.00     0.002 A 
ENDROOT
BRANCH   3  10
ATOM     10  C   UNL d   1      53.774  32.426  53.504  0.00  0.00     0.074 C 
BRANCH  10  11
ATOM     11  S   UNL d   1      53.640  31.663  53.788  0.00  0.00    -0.083 SA
BRANCH  11  12
ATOM     12  C   UNL d   1      53.687  31.019  53.274  0.00  0.00     0.035 C 
BRANCH  12  13
ATOM     13  C   UNL d   1      53.376  30.289  53.500  0.00  0.00     0.006 A 
ATOM     14  C   UNL d   1      53.736  29.864  54.111  0.00  0.00     0.001 A 
ATOM     15  C   UNL d   1      53.424  29.134  54.337  0.00  0.00     0.000 A 
ATOM     16  C   UNL d   1      52.759  28.835  53.952  0.00  0.00     0.000 A 
ATOM     17  C   UNL d   1      52.404  29.266  53.342  0.00  0.00     0.000 A 
ATOM     18  C   UNL d   1      52.715  29.995  53.117  0.00  0.00     0.001 A 
ENDBRANCH  12  13
ENDBRANCH  11  12
ENDBRANCH  10  11
ENDBRANCH   3  10
TORSDOF 4
ENDMDL
MODEL 4
REMARK VINA RESULT:      -6.4      1.408      2.232
REMARK  4 active torsions:
REMARK  status: ('A' for Active; 'I' for Inactive)
REMARK    1  A    between atoms: C_7  and  C_3 
REMARK    2  A    between atoms: S_6  and  C_7 
REMARK    3  A    between atoms: C_9  and  S_6 
REMARK    4  A    between atoms: C_8  and  C_9 
ROOT
ATOM      1  N   UNL d   1      48.594  35.151  52.083  0.00  0.00    -0.225 NA
ATOM      2  N   UNL d   1      48.783  35.683  53.322  0.00  0.00    -0.225 NA
ATOM      3  C   UNL d   1      49.114  35.176  52.742  0.00  0.00     0.169 A 
ATOM      4  C   UNL d   1      47.945  35.646  52.265  0.00  0.00     0.101 A 
ATOM      5  C   UNL d   1      48.054  35.976  53.024  0.00  0.00     0.101 A 
ATOM      6  C   UNL d   1      47.261  35.837  51.826  0.00  0.00     0.021 A 
ATOM      7  C   UNL d   1      47.477  36.491  53.329  0.00  0.00     0.021 A 
ATOM      8  C   UNL d   1      46.810  36.672  52.892  0.00  0.00     0.002 A 
ATOM      9  C   UNL d   1      46.702  36.345  52.140  0.00  0.00     0.002 A 
ENDROOT
BRANCH   3  10
ATOM     10  C   UNL d   1      49.680  34.664  52.429  0.00  0.00     0.074 C 
BRANCH  10  11
ATOM     11  S   UNL d   1      50.361  34.490  52.861  0.00  0.00    -0.083 SA
BRANCH  11  12
ATOM     12  C   UNL d   1      51.002  34.127  52.489  0.00  0.00     0.035 C 
BRANCH  12  13
ATOM     13  C   UNL d   1      51.696  33.987  52.912  0.00  0.00     0.006 A 
ATOM     14  C   UNL d   1      52.236  34.604  53.023  0.00  0.00     0.001 A 
ATOM     15  C   UNL d   1      52.931  34.464  53.445  0.00  0.00     0.000 A 
ATOM     16  C   UNL d   1      53.082  33.714  53.752  0.00  0.00     0.000 A 
ATOM     17  C   UNL d   1      52.537  33.102  53.636  0.00  0.00     0.000 A 
ATOM     18  C   UNL d   1      51.843  33.242  53.214  0.00  0.00     0.001 A 
ENDBRANCH  12  13
ENDBRANCH  11  12
ENDBRANCH  10  11
ENDBRANCH   3  10
TORSDOF 4
ENDMDL
MODEL 5
REMARK VINA RESULT:      -6.4      2.831      4.509
REMARK  4 active torsions:
REMARK  status: ('A' for Active; 'I' for Inactive)
REMARK    1  A    between atoms: C_7  and  C_3 
REMARK    2  A    between atoms: S_6  and  C_7 
REMARK    3  A    between atoms: C_9  and  S_6 
REMARK    4  A    between atoms: C_8  and  C_9 
ROOT
ATOM      1  N   UNL d   1      53.781  31.070  53.869  0.00  0.00    -0.225 NA
ATOM      2  N   UNL d   1      52.848  31.100  52.879  0.00  0.00    -0.225 NA
ATOM      3  C   UNL d   1      53.417  31.557  53.290  0.00  0.00     0.169 A 
ATOM      4  C   UNL d   1      53.430  30.314  53.808  0.00  0.00     0.101 A 
ATOM      5  C   UNL d   1      52.856  30.324  53.202  0.00  0.00     0.101 A 
ATOM      6  C   UNL d   1      53.566  29.610  54.236  0.00  0.00     0.021 A 
ATOM      7  C   UNL d   1      52.430  29.630  53.036  0.00  0.00     0.021 A 
ATOM      8  C   UNL d   1      52.570  28.945  53.461  0.00  0.00     0.002 A 
ATOM      9  C   UNL d   1      53.138  28.935  54.061  0.00  0.00     0.002 A 
ENDROOT
BRANCH   3  10
ATOM     10  C   UNL d   1      53.846  32.240  53.464  0.00  0.00     0.074 C 
BRANCH  10  11
ATOM     11  S   UNL d   1      53.461  32.967  53.512  0.00  0.00    -0.083 SA
BRANCH  11  12
ATOM     12  C   UNL d   1      53.882  33.643  53.727  0.00  0.00     0.035 C 
BRANCH  12  13
ATOM     13  C   UNL d   1      53.481  34.305  54.012  0.00  0.00     0.006 A 
ATOM     14  C   UNL d   1      53.578  34.531  54.802  0.00  0.00     0.001 A 
ATOM     15  C   UNL d   1      53.176  35.193  55.086  0.00  0.00     0.000 A 
ATOM     16  C   UNL d   1      52.683  35.623  54.584  0.00  0.00     0.000 A 
ATOM     17  C   UNL d   1      52.591  35.390  53.796  0.00  0.00     0.000 A 
ATOM     18  C   UNL d   1      52.992  34.728  53.511  0.00  0.00     0.001 A 
ENDBRANCH  12  13
ENDBRANCH  11  12
ENDBRANCH  10  11
ENDBRANCH   3  10
TORSDOF 4
ENDMDL
MODEL 6
REMARK VINA RESULT:      -6.2      2.039      4.894
REMARK  4 active torsions:
REMARK  status: ('A' for Active; 'I' for Inactive)
REMARK    1  A    between atoms: C_7  and  C_3 
REMARK    2  A    between atoms: S_6  and  C_7 
REMARK    3  A    between atoms: C_9  and  S_6 
REMARK    4  A    between atoms: C_8  and  C_9 
ROOT
ATOM      1  N   UNL d   1      53.090  31.751  53.678  0.00  0.00    -0.225 NA
ATOM      2  N   UNL d   1      52.555  31.118  52.598  0.00  0.00    -0.225 NA
ATOM      3  C   UNL d   1      52.673  31.866  52.958  0.00  0.00     0.169 A 
ATOM      4  C   UNL d   1      53.225  30.929  53.754  0.00  0.00     0.101 A 
ATOM      5  C   UNL d   1      52.899  30.534  53.094  0.00  0.00     0.101 A 
ATOM      6  C   UNL d   1      53.609  30.488  54.351  0.00  0.00     0.021 A 
ATOM      7  C   UNL d   1      52.963  29.707  53.045  0.00  0.00     0.021 A 
ATOM      8  C   UNL d   1      53.341  29.284  53.634  0.00  0.00     0.002 A 
ATOM      9  C   UNL d   1      53.664  29.675  54.287  0.00  0.00     0.002 A 
ENDROOT
BRANCH   3  10
ATOM     10  C   UNL d   1      52.615  32.686  53.019  0.00  0.00     0.074 C 
BRANCH  10  11
ATOM     11  S   UNL d   1      52.010  33.086  52.626  0.00  0.00    -0.083 SA
BRANCH  11  12
ATOM     12  C   UNL d   1      51.804  33.850  52.858  0.00  0.00     0.035 C 
BRANCH  12  13
ATOM     13  C   UNL d   1      51.065  34.156  52.653  0.00  0.00     0.006 A 
ATOM     14  C   UNL d   1      50.837  34.174  51.859  0.00  0.00     0.001 A 
ATOM     15  C   UNL d   1      50.099  34.480  51.654  0.00  0.00     0.000 A 
ATOM     16  C   UNL d   1      49.596  34.766  52.242  0.00  0.00     0.000 A 
ATOM     17  C   UNL d   1      49.831  34.745  53.035  0.00  0.00     0.000 A 
ATOM     18  C   UNL d   1      50.569  34.439  53.239  0.00  0.00     0.001 A 
ENDBRANCH  12  13
ENDBRANCH  11  12
ENDBRANCH  10  11
ENDBRANCH   3  10
TORSDOF 4
ENDMDL
MODEL 7
REMARK VINA RESULT:      -5.4      9.946     10.986
REMARK  4 active torsions:
REMARK  status: ('A' for Active; 'I' for Inactive)
REMARK    1  A    between atoms: C_7  and  C_3 
REMARK    2  A    between atoms: S_6  and  C_7 
REMARK    3  A    between atoms: C_9  and  S_6 
REMARK    4  A    between atoms: C_8  and  C_9 
ROOT
ATOM      1  N   UNL d   1      44.670  31.156  60.833  0.00  0.00    -0.225 NA
ATOM      2  N   UNL d   1      44.684  29.808  61.023  0.00  0.00    -0.225 NA
ATOM      3  C   UNL d   1      44.755  30.414  60.449  0.00  0.00     0.169 A 
ATOM      4  C   UNL d   1      44.547  30.997  61.645  0.00  0.00     0.101 A 
ATOM      5  C   UNL d   1      44.554  30.172  61.769  0.00  0.00     0.101 A 
ATOM      6  C   UNL d   1      44.428  31.511  62.292  0.00  0.00     0.021 A 
ATOM      7  C   UNL d   1      44.442  29.877  62.538  0.00  0.00     0.021 A 
ATOM      8  C   UNL d   1      44.326  30.388  63.166  0.00  0.00     0.002 A 
ATOM      9  C   UNL d   1      44.319  31.206  63.043  0.00  0.00     0.002 A 
ENDROOT
BRANCH   3  10
ATOM     10  C   UNL d   1      44.865  30.718  59.690  0.00  0.00     0.074 C 
BRANCH  10  11
ATOM     11  S   UNL d   1      44.859  30.212  59.039  0.00  0.00    -0.083 SA
BRANCH  11  12
ATOM     12  C   UNL d   1      45.008  30.511  58.284  0.00  0.00     0.035 C 
BRANCH  12  13
ATOM     13  C   UNL d   1      44.884  30.035  57.622  0.00  0.00     0.006 A 
ATOM     14  C   UNL d   1      44.609  30.377  56.921  0.00  0.00     0.001 A 
ATOM     15  C   UNL d   1      44.484  29.902  56.259  0.00  0.00     0.000 A 
ATOM     16  C   UNL d   1      44.634  29.092  56.300  0.00  0.00     0.000 A 
ATOM     17  C   UNL d   1      44.909  28.757  57.004  0.00  0.00     0.000 A 
ATOM     18  C   UNL d   1      45.034  29.232  57.666  0.00  0.00     0.001 A 
ENDBRANCH  12  13
ENDBRANCH  11  12
ENDBRANCH  10  11
ENDBRANCH   3  10
TORSDOF 4
ENDMDL
MODEL 8
REMARK VINA RESULT:      -5.1      9.655     10.332
REMARK  4 active torsions:
REMARK  status: ('A' for Active; 'I' for Inactive)
REMARK    1  A    between atoms: C_7  and  C_3 
REMARK    2  A    between atoms: S_6  and  C_7 
REMARK    3  A    between atoms: C_9  and  S_6 
REMARK    4  A    between atoms: C_8  and  C_9 
ROOT
ATOM      1  N   UNL d   1      44.971  29.553  58.197  0.00  0.00    -0.225 NA
ATOM      2  N   UNL d   1      44.484  30.821  58.117  0.00  0.00    -0.225 NA
ATOM      3  C   UNL d   1      44.759  30.231  58.645  0.00  0.00     0.169 A 
ATOM      4  C   UNL d   1      44.824  29.734  57.394  0.00  0.00     0.101 A 
ATOM      5  C   UNL d   1      44.525  30.511  57.337  0.00  0.00     0.101 A 
ATOM      6  C   UNL d   1      44.928  29.279  56.702  0.00  0.00     0.021 A 
ATOM      7  C   UNL d   1      44.335  30.818  56.588  0.00  0.00     0.021 A 
ATOM      8  C   UNL d   1      44.440  30.365  55.915  0.00  0.00     0.002 A 
ATOM      9  C   UNL d   1      44.737  29.595  55.972  0.00  0.00     0.002 A 
ENDROOT
BRANCH   3  10
ATOM     10  C   UNL d   1      44.950  29.916  59.382  0.00  0.00     0.074 C 
BRANCH  10  11
ATOM     11  S   UNL d   1      44.740  30.321  60.070  0.00  0.00    -0.083 SA
BRANCH  11  12
ATOM     12  C   UNL d   1      44.765  29.934  60.798  0.00  0.00     0.035 C 
BRANCH  12  13
ATOM     13  C   UNL d   1      44.615  30.355  61.492  0.00  0.00     0.006 A 
ATOM     14  C   UNL d   1      44.493  31.172  61.454  0.00  0.00     0.001 A 
ATOM     15  C   UNL d   1      44.343  31.592  62.148  0.00  0.00     0.000 A 
ATOM     16  C   UNL d   1      44.316  31.196  62.871  0.00  0.00     0.000 A 
ATOM     17  C   UNL d   1      44.439  30.379  62.901  0.00  0.00     0.000 A 
ATOM     18  C   UNL d   1      44.589  29.959  62.207  0.00  0.00     0.001 A 
ENDBRANCH  12  13
ENDBRANCH  11  12
ENDBRANCH  10  11
ENDBRANCH   3  10
TORSDOF 4
ENDMDL
MODEL 9
REMARK VINA RESULT:      -4.8      9.365      9.968
REMARK  4 active torsions:
REMARK  status: ('A' for Active; 'I' for Inactive)
REMARK    1  A    between atoms: C_7  and  C_3 
REMARK    2  A    between atoms: S_6  and  C_7 
REMARK    3  A    between atoms: C_9  and  S_6 
REMARK    4  A    between atoms: C_8  and  C_9 
ROOT
ATOM      1  N   UNL d   1      44.849  30.262  57.941  0.00  0.00    -0.225 NA
ATOM      2  N   UNL d   1      44.600  29.874  56.660  0.00  0.00    -0.225 NA
ATOM      3  C   UNL d   1      44.798  29.600  57.426  0.00  0.00     0.169 A 
ATOM      4  C   UNL d   1      44.680  30.941  57.483  0.00  0.00     0.101 A 
ATOM      5  C   UNL d   1      44.526  30.710  56.695  0.00  0.00     0.101 A 
ATOM      6  C   UNL d   1      44.648  31.749  57.690  0.00  0.00     0.021 A 
ATOM      7  C   UNL d   1      44.343  31.293  56.131  0.00  0.00     0.021 A 
ATOM      8  C   UNL d   1      44.314  32.082  56.344  0.00  0.00     0.002 A 
ATOM      9  C   UNL d   1      44.466  32.310  57.124  0.00  0.00     0.002 A 
ENDROOT
BRANCH   3  10
ATOM     10  C   UNL d   1      44.981  29.031  57.995  0.00  0.00     0.074 C 
BRANCH  10  11
ATOM     11  S   UNL d   1      44.859  28.232  57.830  0.00  0.00    -0.083 SA
BRANCH  11  12
ATOM     12  C   UNL d   1      45.325  27.660  58.201  0.00  0.00     0.035 C 
BRANCH  12  13
ATOM     13  C   UNL d   1      45.076  26.874  58.217  0.00  0.00     0.006 A 
ATOM     14  C   UNL d   1      44.869  26.527  58.939  0.00  0.00     0.001 A 
ATOM     15  C   UNL d   1      44.620  25.741  58.955  0.00  0.00     0.000 A 
ATOM     16  C   UNL d   1      44.579  25.308  58.254  0.00  0.00     0.000 A 
ATOM     17  C   UNL d   1      44.787  25.662  57.536  0.00  0.00     0.000 A 
ATOM     18  C   UNL d   1      45.036  26.448  57.520  0.00  0.00     0.001 A 
ENDBRANCH  12  13
ENDBRANCH  11  12
ENDBRANCH  10  11
ENDBRANCH   3  10
TORSDOF 4
ENDMDL
