MODEL 1
REMARK VINA RESULT:      56.6      0.000      0.000
REMARK  2 active torsions:
REMARK  status: ('A' for Active; 'I' for Inactive)
REMARK    1  A    between atoms: N_9  and  C_3 
REMARK    2  A    between atoms: C_11  and  C_5 
ROOT
ATOM      1  N   UNL d   1     -50.957  25.928  33.859  0.00  0.00    -0.196 N 
ATOM      2  C   UNL d   1     -51.223  25.170  33.675  0.00  0.00     0.167 A 
ATOM      3  C   UNL d   1     -50.151  26.092  33.861  0.00  0.00     0.152 A 
ATOM      4  N   UNL d   1     -51.612  26.393  34.013  0.00  0.00    -0.163 NA
ATOM      5  C   UNL d   1     -52.043  25.167  33.715  0.00  0.00     0.055 A 
ATOM      6  C   UNL d   1     -52.286  25.922  33.924  0.00  0.00     0.104 A 
ATOM      7  N   UNL d   1     -50.684  24.576  33.493  0.00  0.00    -0.227 NA
ATOM      8  C   UNL d   1     -49.604  25.496  33.678  0.00  0.00     0.057 A 
ATOM      9  C   UNL d   1     -49.870  24.738  33.494  0.00  0.00     0.086 A 
ATOM     10  C   UNL d   1     -53.066  26.167  34.027  0.00  0.00     0.023 C 
ATOM     11  C   UNL d   1     -49.331  24.131  33.309  0.00  0.00     0.021 C 
ENDROOT
BRANCH   5  12
ATOM     12  C   UNL d   1     -52.607  24.576  33.589  0.00  0.00     0.004 A 
ATOM     13  C   UNL d   1     -53.394  24.784  33.432  0.00  0.00     0.000 A 
ATOM     14  C   UNL d   1     -53.957  24.193  33.306  0.00  0.00     0.000 A 
ATOM     15  C   UNL d   1     -53.738  23.398  33.337  0.00  0.00     0.000 A 
ATOM     16  C   UNL d   1     -52.948  23.193  33.494  0.00  0.00     0.000 A 
ATOM     17  C   UNL d   1     -52.388  23.782  33.620  0.00  0.00     0.000 A 
ENDBRANCH   5  12
BRANCH   3  18
ATOM     18  N   UNL d   1     -49.884  26.850  34.045  0.00  0.00    -0.289 N 
ATOM     19  C   UNL d   1     -49.625  27.401  33.490  0.00  0.00     0.082 A 
ATOM     20  C   UNL d   1     -49.404  28.092  33.890  0.00  0.00     0.021 A 
ATOM     21  C   UNL d   1     -49.530  27.958  34.694  0.00  0.00     0.021 A 
ATOM     22  C   UNL d   1     -49.822  27.207  34.799  0.00  0.00     0.082 A 
ENDBRANCH   3  18
TORSDOF 2
ENDMDL
