MODEL 1
REMARK VINA RESULT:      -5.9      0.000      0.000
REMARK  6 active torsions:
REMARK  status: ('A' for Active; 'I' for Inactive)
REMARK    1  A    between atoms: C_8  and  C_1 
REMARK    2  A    between atoms: C_6  and  O_10 
REMARK    3  A    between atoms: C_7  and  C_6 
REMARK    4  A    between atoms: C_18  and  C_8 
REMARK    5  A    between atoms: O_10  and  C_12 
REMARK    6  A    between atoms: O_20  and  C_13 
ROOT
ATOM      1  C   UNL d   1     -49.556  12.586  23.305  0.00  0.00     0.139 A 
ATOM      2  C   UNL d   1     -48.451  11.859  23.498  0.00  0.00     0.064 A 
ATOM      3  C   UNL d   1     -49.278  11.834  23.512  0.00  0.00     0.220 A 
ATOM      4  C   UNL d   1     -48.215  12.621  23.284  0.00  0.00     0.105 A 
ATOM      5  O   UNL d   1     -48.899  13.071  23.165  0.00  0.00    -0.304 OA
ATOM      6  C   UNL d   1     -47.415  12.797  23.229  0.00  0.00     0.050 A 
ATOM      7  C   UNL d   1     -47.885  11.279  23.655  0.00  0.00     0.007 A 
ATOM      8  C   UNL d   1     -46.857  12.221  23.385  0.00  0.00     0.105 A 
ATOM      9  O   UNL d   1     -49.747  11.180  23.698  0.00  0.00    -0.284 OA
ATOM     10  C   UNL d   1     -47.082  11.463  23.597  0.00  0.00     0.025 A 
ENDROOT
BRANCH   8  11
ATOM     11  O   UNL d   1     -46.055  12.404  23.327  0.00  0.00    -0.273 OA
BRANCH  11  12
ATOM     12  C   UNL d   1     -45.522  11.868  22.988  0.00  0.00     0.302 C 
ATOM     13  O   UNL d   1     -45.661  11.057  23.065  0.00  0.00    -0.259 OA
BRANCH  12  14
ATOM     14  C   UNL d   1     -44.860  12.128  22.578  0.00  0.00     0.086 A 
ATOM     15  C   UNL d   1     -44.116  11.778  22.730  0.00  0.00     0.099 A 
ATOM     16  C   UNL d   1     -43.456  12.039  22.321  0.00  0.00     0.024 A 
ATOM     17  C   UNL d   1     -43.514  12.638  21.763  0.00  0.00     0.002 A 
ATOM     18  C   UNL d   1     -44.261  12.989  21.610  0.00  0.00     0.000 A 
ATOM     19  C   UNL d   1     -44.927  12.730  22.020  0.00  0.00     0.007 A 
BRANCH  15  20
ATOM     20  O   UNL d   1     -44.066  11.175  23.293  0.00  0.00    -0.328 OA
ATOM     21  C   UNL d   1     -43.444  10.632  23.243  0.00  0.00     0.181 C 
ENDBRANCH  15  20
ENDBRANCH  12  14
ENDBRANCH  11  12
ENDBRANCH   8  11
BRANCH   1  22
ATOM     22  C   UNL d   1     -50.348  12.814  23.248  0.00  0.00     0.028 C 
BRANCH  22  23
ATOM     23  C   UNL d   1     -50.587  13.352  22.666  0.00  0.00     0.005 A 
ATOM     24  C   UNL d   1     -50.791  13.075  21.921  0.00  0.00     0.021 A 
ATOM     25  C   UNL d   1     -51.029  13.603  21.338  0.00  0.00     0.099 A 
ATOM     26  N   UNL d   1     -51.064  14.417  21.500  0.00  0.00    -0.242 NA
ATOM     27  C   UNL d   1     -50.856  14.693  22.255  0.00  0.00     0.099 A 
ATOM     28  C   UNL d   1     -50.618  14.155  22.836  0.00  0.00     0.021 A 
ENDBRANCH  22  23
ENDBRANCH   1  22
TORSDOF 6
ENDMDL
MODEL 2
REMARK VINA RESULT:      -4.7      1.272      2.119
REMARK  6 active torsions:
REMARK  status: ('A' for Active; 'I' for Inactive)
REMARK    1  A    between atoms: C_8  and  C_1 
REMARK    2  A    between atoms: C_6  and  O_10 
REMARK    3  A    between atoms: C_7  and  C_6 
REMARK    4  A    between atoms: C_18  and  C_8 
REMARK    5  A    between atoms: O_10  and  C_12 
REMARK    6  A    between atoms: O_20  and  C_13 
ROOT
ATOM      1  C   UNL d   1     -48.569  14.259  22.825  0.00  0.00     0.139 A 
ATOM      2  C   UNL d   1     -47.235  14.277  22.736  0.00  0.00     0.064 A 
ATOM      3  C   UNL d   1     -47.921  14.717  22.587  0.00  0.00     0.220 A 
ATOM      4  C   UNL d   1     -47.454  13.551  23.064  0.00  0.00     0.105 A 
ATOM      5  O   UNL d   1     -48.280  13.540  23.119  0.00  0.00    -0.304 OA
ATOM      6  C   UNL d   1     -46.875  13.006  23.264  0.00  0.00     0.050 A 
ATOM      7  C   UNL d   1     -46.438  14.452  22.611  0.00  0.00     0.007 A 
ATOM      8  C   UNL d   1     -46.086  13.182  23.140  0.00  0.00     0.105 A 
ATOM      9  O   UNL d   1     -47.958  15.474  22.261  0.00  0.00    -0.284 OA
ATOM     10  C   UNL d   1     -45.861  13.898  22.816  0.00  0.00     0.025 A 
ENDROOT
BRANCH   8  11
ATOM     11  O   UNL d   1     -45.509  12.630  23.344  0.00  0.00    -0.273 OA
BRANCH  11  12
ATOM     12  C   UNL d   1     -45.277  12.042  22.807  0.00  0.00     0.302 C 
ATOM     13  O   UNL d   1     -45.398  12.163  21.999  0.00  0.00    -0.259 OA
BRANCH  12  14
ATOM     14  C   UNL d   1     -44.930  11.344  23.065  0.00  0.00     0.086 A 
ATOM     15  C   UNL d   1     -44.112  11.221  22.943  0.00  0.00     0.099 A 
ATOM     16  C   UNL d   1     -43.765  10.525  23.201  0.00  0.00     0.024 A 
ATOM     17  C   UNL d   1     -44.210   9.946  23.576  0.00  0.00     0.002 A 
ATOM     18  C   UNL d   1     -45.032  10.069  23.698  0.00  0.00     0.000 A 
ATOM     19  C   UNL d   1     -45.383  10.768  23.441  0.00  0.00     0.007 A 
BRANCH  15  20
ATOM     20  O   UNL d   1     -43.671  11.809  22.565  0.00  0.00    -0.328 OA
ATOM     21  C   UNL d   1     -42.868  11.675  22.419  0.00  0.00     0.181 C 
ENDBRANCH  15  20
ENDBRANCH  12  14
ENDBRANCH  11  12
ENDBRANCH   8  11
BRANCH   1  22
ATOM     22  C   UNL d   1     -49.364  14.479  22.779  0.00  0.00     0.028 C 
BRANCH  22  23
ATOM     23  C   UNL d   1     -49.932  13.937  22.518  0.00  0.00     0.005 A 
ATOM     24  C   UNL d   1     -50.061  13.844  21.713  0.00  0.00     0.021 A 
ATOM     25  C   UNL d   1     -50.625  13.307  21.446  0.00  0.00     0.099 A 
ATOM     26  N   UNL d   1     -51.065  12.859  21.991  0.00  0.00    -0.242 NA
ATOM     27  C   UNL d   1     -50.931  12.957  22.803  0.00  0.00     0.099 A 
ATOM     28  C   UNL d   1     -50.363  13.498  23.063  0.00  0.00     0.021 A 
ENDBRANCH  22  23
ENDBRANCH   1  22
TORSDOF 6
ENDMDL
MODEL 3
REMARK VINA RESULT:      -4.4      2.328      5.874
REMARK  6 active torsions:
REMARK  status: ('A' for Active; 'I' for Inactive)
REMARK    1  A    between atoms: C_8  and  C_1 
REMARK    2  A    between atoms: C_6  and  O_10 
REMARK    3  A    between atoms: C_7  and  C_6 
REMARK    4  A    between atoms: C_18  and  C_8 
REMARK    5  A    between atoms: O_10  and  C_12 
REMARK    6  A    between atoms: O_20  and  C_13 
ROOT
ATOM      1  C   UNL d   1     -43.847  12.575  21.749  0.00  0.00     0.139 A 
ATOM      2  C   UNL d   1     -44.907  12.467  22.557  0.00  0.00     0.064 A 
ATOM      3  C   UNL d   1     -44.204  12.097  22.323  0.00  0.00     0.220 A 
ATOM      4  C   UNL d   1     -44.987  13.171  22.132  0.00  0.00     0.105 A 
ATOM      5  O   UNL d   1     -44.331  13.238  21.632  0.00  0.00    -0.304 OA
ATOM      6  C   UNL d   1     -45.642  13.649  22.260  0.00  0.00     0.050 A 
ATOM      7  C   UNL d   1     -45.482  12.247  23.107  0.00  0.00     0.007 A 
ATOM      8  C   UNL d   1     -46.210  13.428  22.805  0.00  0.00     0.105 A 
ATOM      9  O   UNL d   1     -43.908  11.380  22.607  0.00  0.00    -0.284 OA
ATOM     10  C   UNL d   1     -46.138  12.733  23.230  0.00  0.00     0.025 A 
ENDROOT
BRANCH   8  11
ATOM     11  O   UNL d   1     -46.865  13.913  22.929  0.00  0.00    -0.273 OA
BRANCH  11  12
ATOM     12  C   UNL d   1     -47.573  13.780  22.518  0.00  0.00     0.302 C 
ATOM     13  O   UNL d   1     -47.631  13.128  22.014  0.00  0.00    -0.259 OA
BRANCH  12  14
ATOM     14  C   UNL d   1     -48.215  14.285  22.603  0.00  0.00     0.086 A 
ATOM     15  C   UNL d   1     -48.927  13.994  22.929  0.00  0.00     0.099 A 
ATOM     16  C   UNL d   1     -49.568  14.498  23.014  0.00  0.00     0.024 A 
ATOM     17  C   UNL d   1     -49.520  15.284  22.784  0.00  0.00     0.002 A 
ATOM     18  C   UNL d   1     -48.804  15.577  22.457  0.00  0.00     0.000 A 
ATOM     19  C   UNL d   1     -48.158  15.073  22.370  0.00  0.00     0.007 A 
BRANCH  15  20
ATOM     20  O   UNL d   1     -48.968  13.202  23.158  0.00  0.00    -0.328 OA
ATOM     21  C   UNL d   1     -49.671  12.916  23.489  0.00  0.00     0.181 C 
ENDBRANCH  15  20
ENDBRANCH  12  14
ENDBRANCH  11  12
ENDBRANCH   8  11
BRANCH   1  22
ATOM     22  C   UNL d   1     -43.135  12.421  21.360  0.00  0.00     0.028 C 
BRANCH  22  23
ATOM     23  C   UNL d   1     -42.580  13.025  21.250  0.00  0.00     0.005 A 
ATOM     24  C   UNL d   1     -41.982  13.128  21.802  0.00  0.00     0.021 A 
ATOM     25  C   UNL d   1     -41.427  13.726  21.700  0.00  0.00     0.099 A 
ATOM     26  N   UNL d   1     -41.470  14.227  21.037  0.00  0.00    -0.242 NA
ATOM     27  C   UNL d   1     -42.076  14.118  20.482  0.00  0.00     0.099 A 
ATOM     28  C   UNL d   1     -42.630  13.515  20.592  0.00  0.00     0.021 A 
ENDBRANCH  22  23
ENDBRANCH   1  22
TORSDOF 6
ENDMDL
MODEL 4
REMARK VINA RESULT:      -4.3      2.748      4.559
REMARK  6 active torsions:
REMARK  status: ('A' for Active; 'I' for Inactive)
REMARK    1  A    between atoms: C_8  and  C_1 
REMARK    2  A    between atoms: C_6  and  O_10 
REMARK    3  A    between atoms: C_7  and  C_6 
REMARK    4  A    between atoms: C_18  and  C_8 
REMARK    5  A    between atoms: O_10  and  C_12 
REMARK    6  A    between atoms: O_20  and  C_13 
ROOT
ATOM      1  C   UNL d   1     -45.289  12.800  22.573  0.00  0.00     0.139 A 
ATOM      2  C   UNL d   1     -44.070  12.491  22.119  0.00  0.00     0.064 A 
ATOM      3  C   UNL d   1     -44.698  12.221  22.586  0.00  0.00     0.220 A 
ATOM      4  C   UNL d   1     -44.269  13.234  21.817  0.00  0.00     0.105 A 
ATOM      5  O   UNL d   1     -45.024  13.425  22.098  0.00  0.00    -0.304 OA
ATOM      6  C   UNL d   1     -43.738  13.629  21.331  0.00  0.00     0.050 A 
ATOM      7  C   UNL d   1     -43.342  12.150  21.934  0.00  0.00     0.007 A 
ATOM      8  C   UNL d   1     -43.018  13.288  21.150  0.00  0.00     0.105 A 
ATOM      9  O   UNL d   1     -44.734  11.504  22.994  0.00  0.00    -0.284 OA
ATOM     10  C   UNL d   1     -42.813  12.553  21.445  0.00  0.00     0.025 A 
ENDROOT
BRANCH   8  11
ATOM     11  O   UNL d   1     -42.489  13.690  20.661  0.00  0.00    -0.273 OA
BRANCH  11  12
ATOM     12  C   UNL d   1     -41.718  13.855  20.918  0.00  0.00     0.302 C 
ATOM     13  O   UNL d   1     -41.333  13.317  21.412  0.00  0.00    -0.259 OA
BRANCH  12  14
ATOM     14  C   UNL d   1     -41.333  14.543  20.689  0.00  0.00     0.086 A 
ATOM     15  C   UNL d   1     -40.920  14.563  19.963  0.00  0.00     0.099 A 
ATOM     16  C   UNL d   1     -40.535  15.250  19.735  0.00  0.00     0.024 A 
ATOM     17  C   UNL d   1     -40.549  15.918  20.210  0.00  0.00     0.002 A 
ATOM     18  C   UNL d   1     -40.964  15.899  20.940  0.00  0.00     0.000 A 
ATOM     19  C   UNL d   1     -41.351  15.211  21.172  0.00  0.00     0.007 A 
BRANCH  15  20
ATOM     20  O   UNL d   1     -40.910  13.886  19.490  0.00  0.00    -0.328 OA
ATOM     21  C   UNL d   1     -40.508  13.907  18.767  0.00  0.00     0.181 C 
ENDBRANCH  15  20
ENDBRANCH  12  14
ENDBRANCH  11  12
ENDBRANCH   8  11
BRANCH   1  22
ATOM     22  C   UNL d   1     -46.017  12.764  22.963  0.00  0.00     0.028 C 
BRANCH  22  23
ATOM     23  C   UNL d   1     -46.649  13.235  22.712  0.00  0.00     0.005 A 
ATOM     24  C   UNL d   1     -47.202  12.923  22.192  0.00  0.00     0.021 A 
ATOM     25  C   UNL d   1     -47.834  13.384  21.938  0.00  0.00     0.099 A 
ATOM     26  N   UNL d   1     -47.914  14.167  22.206  0.00  0.00    -0.242 NA
ATOM     27  C   UNL d   1     -47.352  14.478  22.731  0.00  0.00     0.099 A 
ATOM     28  C   UNL d   1     -46.720  14.008  22.982  0.00  0.00     0.021 A 
ENDBRANCH  22  23
ENDBRANCH   1  22
TORSDOF 6
ENDMDL
MODEL 5
REMARK VINA RESULT:      -4.1      7.972     10.077
REMARK  6 active torsions:
REMARK  status: ('A' for Active; 'I' for Inactive)
REMARK    1  A    between atoms: C_8  and  C_1 
REMARK    2  A    between atoms: C_6  and  O_10 
REMARK    3  A    between atoms: C_7  and  C_6 
REMARK    4  A    between atoms: C_18  and  C_8 
REMARK    5  A    between atoms: O_10  and  C_12 
REMARK    6  A    between atoms: O_20  and  C_13 
ROOT
ATOM      1  C   UNL d   1     -40.044  14.350  20.934  0.00  0.00     0.139 A 
ATOM      2  C   UNL d   1     -40.484  14.684  19.716  0.00  0.00     0.064 A 
ATOM      3  C   UNL d   1     -40.725  14.464  20.477  0.00  0.00     0.220 A 
ATOM      4  C   UNL d   1     -39.659  14.706  19.699  0.00  0.00     0.105 A 
ATOM      5  O   UNL d   1     -39.386  14.499  20.453  0.00  0.00    -0.304 OA
ATOM      6  C   UNL d   1     -39.274  14.910  19.003  0.00  0.00     0.050 A 
ATOM      7  C   UNL d   1     -40.918  14.866  19.038  0.00  0.00     0.007 A 
ATOM      8  C   UNL d   1     -39.706  15.090  18.334  0.00  0.00     0.105 A 
ATOM      9  O   UNL d   1     -41.503  14.374  20.740  0.00  0.00    -0.284 OA
ATOM     10  C   UNL d   1     -40.524  15.070  18.342  0.00  0.00     0.025 A 
ENDROOT
BRANCH   8  11
ATOM     11  O   UNL d   1     -39.314  15.294  17.638  0.00  0.00    -0.273 OA
BRANCH  11  12
ATOM     12  C   UNL d   1     -39.034  14.709  17.122  0.00  0.00     0.302 C 
ATOM     13  O   UNL d   1     -39.123  13.914  17.328  0.00  0.00    -0.259 OA
BRANCH  12  14
ATOM     14  C   UNL d   1     -38.672  14.906  16.412  0.00  0.00     0.086 A 
ATOM     15  C   UNL d   1     -38.429  14.299  15.891  0.00  0.00     0.099 A 
ATOM     16  C   UNL d   1     -38.067  14.496  15.182  0.00  0.00     0.024 A 
ATOM     17  C   UNL d   1     -37.941  15.280  14.976  0.00  0.00     0.002 A 
ATOM     18  C   UNL d   1     -38.186  15.889  15.500  0.00  0.00     0.000 A 
ATOM     19  C   UNL d   1     -38.549  15.696  16.212  0.00  0.00     0.007 A 
BRANCH  15  20
ATOM     20  O   UNL d   1     -38.559  13.512  16.105  0.00  0.00    -0.328 OA
ATOM     21  C   UNL d   1     -37.940  12.969  16.032  0.00  0.00     0.181 C 
ENDBRANCH  15  20
ENDBRANCH  12  14
ENDBRANCH  11  12
ENDBRANCH   8  11
BRANCH   1  22
ATOM     22  C   UNL d   1     -40.021  14.126  21.729  0.00  0.00     0.028 C 
BRANCH  22  23
ATOM     23  C   UNL d   1     -39.332  14.235  22.174  0.00  0.00     0.005 A 
ATOM     24  C   UNL d   1     -39.176  14.971  22.501  0.00  0.00     0.021 A 
ATOM     25  C   UNL d   1     -38.493  15.087  22.945  0.00  0.00     0.099 A 
ATOM     26  N   UNL d   1     -37.960  14.460  23.063  0.00  0.00    -0.242 NA
ATOM     27  C   UNL d   1     -38.123  13.718  22.730  0.00  0.00     0.099 A 
ATOM     28  C   UNL d   1     -38.811  13.609  22.285  0.00  0.00     0.021 A 
ENDBRANCH  22  23
ENDBRANCH   1  22
TORSDOF 6
ENDMDL
MODEL 6
REMARK VINA RESULT:      -4.0      1.705      5.398
REMARK  6 active torsions:
REMARK  status: ('A' for Active; 'I' for Inactive)
REMARK    1  A    between atoms: C_8  and  C_1 
REMARK    2  A    between atoms: C_6  and  O_10 
REMARK    3  A    between atoms: C_7  and  C_6 
REMARK    4  A    between atoms: C_18  and  C_8 
REMARK    5  A    between atoms: O_10  and  C_12 
REMARK    6  A    between atoms: O_20  and  C_13 
ROOT
ATOM      1  C   UNL d   1     -45.628  11.904  23.244  0.00  0.00     0.139 A 
ATOM      2  C   UNL d   1     -46.939  11.747  23.454  0.00  0.00     0.064 A 
ATOM      3  C   UNL d   1     -46.217  11.344  23.403  0.00  0.00     0.220 A 
ATOM      4  C   UNL d   1     -46.801  12.551  23.327  0.00  0.00     0.105 A 
ATOM      5  O   UNL d   1     -45.989  12.649  23.197  0.00  0.00    -0.304 OA
ATOM      6  C   UNL d   1     -47.429  13.078  23.348  0.00  0.00     0.050 A 
ATOM      7  C   UNL d   1     -47.705  11.476  23.601  0.00  0.00     0.007 A 
ATOM      8  C   UNL d   1     -48.186  12.807  23.494  0.00  0.00     0.105 A 
ATOM      9  O   UNL d   1     -46.100  10.532  23.494  0.00  0.00    -0.284 OA
ATOM     10  C   UNL d   1     -48.332  12.013  23.620  0.00  0.00     0.025 A 
ENDROOT
BRANCH   8  11
ATOM     11  O   UNL d   1     -48.814  13.343  23.513  0.00  0.00    -0.273 OA
BRANCH  11  12
ATOM     12  C   UNL d   1     -49.046  13.748  22.829  0.00  0.00     0.302 C 
ATOM     13  O   UNL d   1     -48.702  13.547  22.105  0.00  0.00    -0.259 OA
BRANCH  12  14
ATOM     14  C   UNL d   1     -49.610  14.343  22.858  0.00  0.00     0.086 A 
ATOM     15  C   UNL d   1     -50.306  14.275  22.401  0.00  0.00     0.099 A 
ATOM     16  C   UNL d   1     -50.869  14.869  22.430  0.00  0.00     0.024 A 
ATOM     17  C   UNL d   1     -50.760  15.531  22.902  0.00  0.00     0.002 A 
ATOM     18  C   UNL d   1     -50.060  15.601  23.361  0.00  0.00     0.000 A 
ATOM     19  C   UNL d   1     -49.492  15.005  23.334  0.00  0.00     0.007 A 
BRANCH  15  20
ATOM     20  O   UNL d   1     -50.410  13.605  21.928  0.00  0.00    -0.328 OA
ATOM     21  C   UNL d   1     -51.064  13.568  21.423  0.00  0.00     0.181 C 
ENDBRANCH  15  20
ENDBRANCH  12  14
ENDBRANCH  11  12
ENDBRANCH   8  11
BRANCH   1  22
ATOM     22  C   UNL d   1     -44.822  11.750  23.148  0.00  0.00     0.028 C 
BRANCH  22  23
ATOM     23  C   UNL d   1     -44.397  12.114  22.539  0.00  0.00     0.005 A 
ATOM     24  C   UNL d   1     -44.697  12.792  22.186  0.00  0.00     0.021 A 
ATOM     25  C   UNL d   1     -44.280  13.160  21.580  0.00  0.00     0.099 A 
ATOM     26  N   UNL d   1     -43.554  12.846  21.323  0.00  0.00    -0.242 NA
ATOM     27  C   UNL d   1     -43.255  12.161  21.682  0.00  0.00     0.099 A 
ATOM     28  C   UNL d   1     -43.680  11.798  22.290  0.00  0.00     0.021 A 
ENDBRANCH  22  23
ENDBRANCH   1  22
TORSDOF 6
ENDMDL
MODEL 7
REMARK VINA RESULT:      -3.5      4.307      7.775
REMARK  6 active torsions:
REMARK  status: ('A' for Active; 'I' for Inactive)
REMARK    1  A    between atoms: C_8  and  C_1 
REMARK    2  A    between atoms: C_6  and  O_10 
REMARK    3  A    between atoms: C_7  and  C_6 
REMARK    4  A    between atoms: C_18  and  C_8 
REMARK    5  A    between atoms: O_10  and  C_12 
REMARK    6  A    between atoms: O_20  and  C_13 
ROOT
ATOM      1  C   UNL d   1     -40.320  14.926  19.501  0.00  0.00     0.139 A 
ATOM      2  C   UNL d   1     -40.543  14.234  20.623  0.00  0.00     0.064 A 
ATOM      3  C   UNL d   1     -39.950  14.525  20.124  0.00  0.00     0.220 A 
ATOM      4  C   UNL d   1     -41.277  14.452  20.313  0.00  0.00     0.105 A 
ATOM      5  O   UNL d   1     -41.139  14.881  19.618  0.00  0.00    -0.304 OA
ATOM      6  C   UNL d   1     -41.964  14.231  20.704  0.00  0.00     0.050 A 
ATOM      7  C   UNL d   1     -40.502  13.797  21.322  0.00  0.00     0.007 A 
ATOM      8  C   UNL d   1     -41.920  13.798  21.396  0.00  0.00     0.105 A 
ATOM      9  O   UNL d   1     -39.136  14.435  20.224  0.00  0.00    -0.284 OA
ATOM     10  C   UNL d   1     -41.197  13.578  21.710  0.00  0.00     0.025 A 
ENDROOT
BRANCH   8  11
ATOM     11  O   UNL d   1     -42.613  13.579  21.784  0.00  0.00    -0.273 OA
BRANCH  11  12
ATOM     12  C   UNL d   1     -43.082  12.959  21.496  0.00  0.00     0.302 C 
ATOM     13  O   UNL d   1     -42.788  12.477  20.894  0.00  0.00    -0.259 OA
BRANCH  12  14
ATOM     14  C   UNL d   1     -43.831  12.817  21.799  0.00  0.00     0.086 A 
ATOM     15  C   UNL d   1     -43.964  12.138  22.270  0.00  0.00     0.099 A 
ATOM     16  C   UNL d   1     -44.712  11.997  22.572  0.00  0.00     0.024 A 
ATOM     17  C   UNL d   1     -45.334  12.510  22.420  0.00  0.00     0.002 A 
ATOM     18  C   UNL d   1     -45.200  13.192  21.947  0.00  0.00     0.000 A 
ATOM     19  C   UNL d   1     -44.450  13.337  21.642  0.00  0.00     0.007 A 
BRANCH  15  20
ATOM     20  O   UNL d   1     -43.334  11.626  22.419  0.00  0.00    -0.328 OA
ATOM     21  C   UNL d   1     -43.448  10.990  22.935  0.00  0.00     0.181 C 
ENDBRANCH  15  20
ENDBRANCH  12  14
ENDBRANCH  11  12
ENDBRANCH   8  11
BRANCH   1  22
ATOM     22  C   UNL d   1     -39.942  15.306  18.872  0.00  0.00     0.028 C 
BRANCH  22  23
ATOM     23  C   UNL d   1     -40.290  15.320  18.122  0.00  0.00     0.005 A 
ATOM     24  C   UNL d   1     -40.088  14.746  17.572  0.00  0.00     0.021 A 
ATOM     25  C   UNL d   1     -40.431  14.754  16.824  0.00  0.00     0.099 A 
ATOM     26  N   UNL d   1     -40.982  15.343  16.624  0.00  0.00    -0.242 NA
ATOM     27  C   UNL d   1     -41.183  15.922  17.183  0.00  0.00     0.099 A 
ATOM     28  C   UNL d   1     -40.835  15.906  17.932  0.00  0.00     0.021 A 
ENDBRANCH  22  23
ENDBRANCH   1  22
TORSDOF 6
ENDMDL
