MODEL 1
REMARK VINA RESULT:      65.0      0.000      0.000
REMARK  8 active torsions:
REMARK  status: ('A' for Active; 'I' for Inactive)
REMARK    1  A    between atoms: N_3  and  C_1 
REMARK    2  A    between atoms: S_2  and  C_9 
REMARK    3  A    between atoms: N_10  and  S_2 
REMARK       I    between atoms: C_8  and  N_3 
REMARK    4  A    between atoms: C_15  and  C_8 
REMARK    5  A    between atoms: C_27  and  N_10 
REMARK       I    between atoms: C_16  and  N_17 
REMARK    6  A    between atoms: N_17  and  C_18 
REMARK    7  A    between atoms: C_30  and  C_27 
REMARK    8  A    between atoms: C_31  and  C_30 
ROOT
ATOM      1  N   UNL d   1     -49.618  27.583  33.844  0.00  0.00    -0.184 NA
ATOM      2  C   UNL d   1     -49.237  27.694  34.568  0.00  0.00     0.281 C 
ATOM      3  O   UNL d   1     -49.360  27.158  35.194  0.00  0.00    -0.265 OA
ENDROOT
BRANCH   2   4
ATOM      4  C   UNL d   1     -48.733  28.338  34.678  0.00  0.00     0.058 A 
ATOM      5  C   UNL d   1     -48.537  28.823  34.039  0.00  0.00     0.005 A 
ATOM      6  C   UNL d   1     -48.032  29.466  34.149  0.00  0.00     0.013 A 
ATOM      7  C   UNL d   1     -47.716  29.634  34.895  0.00  0.00     0.104 A 
ATOM      8  C   UNL d   1     -47.911  29.150  35.532  0.00  0.00     0.013 A 
ATOM      9  C   UNL d   1     -48.419  28.502  35.423  0.00  0.00     0.005 A 
BRANCH   7  10
ATOM     10  S   UNL d   1     -47.204  30.288  35.002  0.00  0.00     0.271 S 
ATOM     11  O   UNL d   1     -46.705  30.942  35.107  0.00  0.00    -0.200 OA
ATOM     12  O   UNL d   1     -46.580  29.779  35.150  0.00  0.00    -0.200 OA
BRANCH  10  13
ATOM     13  N   UNL d   1     -47.845  30.799  34.850  0.00  0.00    -0.228 N 
ATOM     14  C   UNL d   1     -48.606  30.492  34.722  0.00  0.00     0.111 C 
BRANCH  13  15
ATOM     15  C   UNL d   1     -47.722  31.613  34.828  0.00  0.00     0.092 C 
BRANCH  15  16
ATOM     16  C   UNL d   1     -48.202  32.084  34.360  0.00  0.00     0.020 C 
BRANCH  16  17
ATOM     17  C   UNL d   1     -47.928  32.802  34.090  0.00  0.00     0.002 C 
ATOM     18  C   UNL d   1     -47.349  32.820  33.482  0.00  0.00     0.000 C 
ENDBRANCH  16  17
ENDBRANCH  15  16
ENDBRANCH  13  15
ENDBRANCH  10  13
ENDBRANCH   7  10
ENDBRANCH   2   4
BRANCH   1  19
ATOM     19  C   UNL d   1     -50.127  26.933  33.736  0.00  0.00     0.182 A 
ATOM     20  N   UNL d   1     -49.892  26.164  33.566  0.00  0.00    -0.283 N 
ATOM     21  C   UNL d   1     -50.560  25.687  33.502  0.00  0.00     0.072 A 
ATOM     22  C   UNL d   1     -49.101  25.912  33.476  0.00  0.00     0.101 C 
ATOM     23  C   UNL d   1     -50.653  24.879  33.340  0.00  0.00     0.020 A 
ATOM     24  C   UNL d   1     -51.228  26.152  33.630  0.00  0.00     0.050 A 
ATOM     25  C   UNL d   1     -51.406  24.554  33.311  0.00  0.00     0.021 A 
ATOM     26  C   UNL d   1     -52.071  25.021  33.440  0.00  0.00     0.085 A 
ATOM     27  C   UNL d   1     -51.982  25.826  33.600  0.00  0.00     0.027 A 
ATOM     28  S   UNL d   1     -50.961  26.927  33.776  0.00  0.00    -0.048 SA
BRANCH  26  29
ATOM     29  N   UNL d   1     -52.837  24.682  33.408  0.00  0.00    -0.208 NA
ATOM     30  C   UNL d   1     -52.913  23.855  33.359  0.00  0.00     0.279 C 
ATOM     31  O   UNL d   1     -53.663  23.517  33.328  0.00  0.00    -0.265 OA
ATOM     32  C   UNL d   1     -52.235  23.386  33.343  0.00  0.00     0.068 C 
ENDBRANCH  26  29
ENDBRANCH   1  19
TORSDOF 8
ENDMDL
MODEL 2
REMARK VINA RESULT:      65.8      1.371      6.606
REMARK  8 active torsions:
REMARK  status: ('A' for Active; 'I' for Inactive)
REMARK    1  A    between atoms: N_3  and  C_1 
REMARK    2  A    between atoms: S_2  and  C_9 
REMARK    3  A    between atoms: N_10  and  S_2 
REMARK       I    between atoms: C_8  and  N_3 
REMARK    4  A    between atoms: C_15  and  C_8 
REMARK    5  A    between atoms: C_27  and  N_10 
REMARK       I    between atoms: C_16  and  N_17 
REMARK    6  A    between atoms: N_17  and  C_18 
REMARK    7  A    between atoms: C_30  and  C_27 
REMARK    8  A    between atoms: C_31  and  C_30 
ROOT
ATOM      1  N   UNL d   1     -48.812  27.941  34.551  0.00  0.00    -0.184 NA
ATOM      2  C   UNL d   1     -49.469  27.847  34.060  0.00  0.00     0.281 C 
ATOM      3  O   UNL d   1     -49.831  28.511  33.712  0.00  0.00    -0.265 OA
ENDROOT
BRANCH   2   4
ATOM      4  C   UNL d   1     -49.771  27.094  33.911  0.00  0.00     0.058 A 
ATOM      5  C   UNL d   1     -50.522  27.009  33.578  0.00  0.00     0.005 A 
ATOM      6  C   UNL d   1     -50.824  26.255  33.429  0.00  0.00     0.013 A 
ATOM      7  C   UNL d   1     -50.383  25.579  33.609  0.00  0.00     0.104 A 
ATOM      8  C   UNL d   1     -49.634  25.665  33.942  0.00  0.00     0.013 A 
ATOM      9  C   UNL d   1     -49.328  26.421  34.092  0.00  0.00     0.005 A 
BRANCH   7  10
ATOM     10  S   UNL d   1     -50.693  24.816  33.456  0.00  0.00     0.271 S 
ATOM     11  O   UNL d   1     -51.010  24.065  33.306  0.00  0.00    -0.200 OA
ATOM     12  O   UNL d   1     -49.934  24.521  33.371  0.00  0.00    -0.200 OA
BRANCH  10  13
ATOM     13  N   UNL d   1     -51.462  25.125  33.544  0.00  0.00    -0.228 N 
ATOM     14  C   UNL d   1     -51.633  25.901  33.306  0.00  0.00     0.111 C 
BRANCH  13  15
ATOM     15  C   UNL d   1     -52.056  24.656  33.870  0.00  0.00     0.092 C 
BRANCH  15  16
ATOM     16  C   UNL d   1     -52.838  24.895  33.818  0.00  0.00     0.020 C 
BRANCH  16  17
ATOM     17  C   UNL d   1     -53.346  24.515  33.308  0.00  0.00     0.002 C 
ATOM     18  C   UNL d   1     -53.601  23.735  33.486  0.00  0.00     0.000 C 
ENDBRANCH  16  17
ENDBRANCH  15  16
ENDBRANCH  13  15
ENDBRANCH  10  13
ENDBRANCH   7  10
ENDBRANCH   2   4
BRANCH   1  19
ATOM     19  C   UNL d   1     -48.508  28.702  34.700  0.00  0.00     0.182 A 
ATOM     20  N   UNL d   1     -48.204  28.964  35.418  0.00  0.00    -0.283 N 
ATOM     21  C   UNL d   1     -47.962  29.747  35.337  0.00  0.00     0.072 A 
ATOM     22  C   UNL d   1     -48.152  28.506  36.114  0.00  0.00     0.101 C 
ATOM     23  C   UNL d   1     -47.620  30.281  35.871  0.00  0.00     0.020 A 
ATOM     24  C   UNL d   1     -48.111  29.989  34.563  0.00  0.00     0.050 A 
ATOM     25  C   UNL d   1     -47.435  31.042  35.623  0.00  0.00     0.021 A 
ATOM     26  C   UNL d   1     -47.585  31.281  34.850  0.00  0.00     0.085 A 
ATOM     27  C   UNL d   1     -47.925  30.751  34.316  0.00  0.00     0.027 A 
ATOM     28  S   UNL d   1     -48.450  29.341  34.166  0.00  0.00    -0.048 SA
BRANCH  26  29
ATOM     29  N   UNL d   1     -47.394  32.058  34.605  0.00  0.00    -0.208 NA
ATOM     30  C   UNL d   1     -47.935  32.482  34.135  0.00  0.00     0.279 C 
ATOM     31  O   UNL d   1     -47.752  33.246  33.891  0.00  0.00    -0.265 OA
ATOM     32  C   UNL d   1     -48.649  32.127  33.921  0.00  0.00     0.068 C 
ENDBRANCH  26  29
ENDBRANCH   1  19
TORSDOF 8
ENDMDL
