MODEL 1
REMARK VINA RESULT:      -0.4      0.000      0.000
REMARK  6 active torsions:
REMARK  status: ('A' for Active; 'I' for Inactive)
REMARK    1  A    between atoms: N_3  and  C_1 
REMARK       I    between atoms: C_4  and  N_3 
REMARK       I    between atoms: N_10  and  C_4 
REMARK    2  A    between atoms: C_7  and  C_5 
REMARK    3  A    between atoms: C_9  and  C_7 
REMARK       I    between atoms: N_12  and  C_9 
REMARK    4  A    between atoms: C_14  and  N_10 
REMARK    5  A    between atoms: C_19  and  N_12 
REMARK    6  A    between atoms: C_17  and  C_19 
ROOT
ATOM      1  C   UNL d   1     -41.212-121.893 -52.337  0.00  0.00     0.199 A 
ATOM      2  N   UNL d   1     -41.123-122.676 -52.087  0.00  0.00    -0.220 NA
ATOM      3  C   UNL d   1     -41.246-122.695 -51.275  0.00  0.00     0.095 A 
ATOM      4  S   UNL d   1     -41.386-121.433 -51.693  0.00  0.00    -0.046 SA
ATOM      5  C   UNL d   1     -41.409-121.922 -51.030  0.00  0.00     0.058 A 
ENDROOT
BRANCH   1   6
ATOM      6  N   UNL d   1     -41.135-121.614 -53.123  0.00  0.00    -0.166 NA
ATOM      7  C   UNL d   1     -41.654-121.892 -53.715  0.00  0.00     0.370 C 
ATOM      8  N   UNL d   1     -41.587-121.623 -54.494  0.00  0.00    -0.191 NA
ATOM      9  O   UNL d   1     -42.246-122.444 -53.525  0.00  0.00    -0.242 OA
BRANCH   8  10
ATOM     10  C   UNL d   1     -42.094-121.891 -55.080  0.00  0.00     0.087 A 
ATOM     11  C   UNL d   1     -42.279-122.691 -55.145  0.00  0.00     0.031 A 
ATOM     12  C   UNL d   1     -42.780-122.961 -55.724  0.00  0.00     0.059 A 
ATOM     13 CL   UNL d   1     -42.962-123.767 -55.783  0.00  0.00    -0.082 Cl
ATOM     14  C   UNL d   1     -43.114-122.418 -56.263  0.00  0.00     0.011 A 
ATOM     15  C   UNL d   1     -42.929-121.618 -56.199  0.00  0.00     0.002 A 
ATOM     16  C   UNL d   1     -42.418-121.352 -55.607  0.00  0.00     0.019 A 
ENDBRANCH   8  10
ENDBRANCH   1   6
BRANCH   3  17
ATOM     17  C   UNL d   1     -41.212-123.369 -50.791  0.00  0.00     0.082 C 
BRANCH  17  18
ATOM     18  C   UNL d   1     -41.838-123.549 -50.262  0.00  0.00     0.281 C 
ATOM     19  N   UNL d   1     -41.695-123.640 -49.454  0.00  0.00    -0.205 NA
ATOM     20  O   UNL d   1     -42.600-123.633 -50.568  0.00  0.00    -0.265 OA
BRANCH  19  21
ATOM     21  C   UNL d   1     -42.314-123.816 -48.944  0.00  0.00     0.121 C 
BRANCH  21  22
ATOM     22  C   UNL d   1     -42.341-123.500 -48.201  0.00  0.00     0.101 A 
ATOM     23  N   UNL d   1     -41.711-123.629 -47.664  0.00  0.00    -0.242 NA
ATOM     24  C   UNL d   1     -41.748-123.302 -46.909  0.00  0.00     0.099 A 
ATOM     25  C   UNL d   1     -42.396-122.851 -46.676  0.00  0.00     0.021 A 
ATOM     26  C   UNL d   1     -43.018-122.724 -47.205  0.00  0.00     0.003 A 
ATOM     27  C   UNL d   1     -42.981-123.053 -47.966  0.00  0.00     0.021 A 
ENDBRANCH  21  22
ENDBRANCH  19  21
ENDBRANCH  17  18
ENDBRANCH   3  17
TORSDOF 6
ENDMDL
