MODEL 1
REMARK VINA RESULT:      19.3      0.000      0.000
REMARK  8 active torsions:
REMARK  status: ('A' for Active; 'I' for Inactive)
REMARK    1  A    between atoms: C_4  and  C_1 
REMARK    2  A    between atoms: C_2  and  C_15 
REMARK    3  A    between atoms: C_3  and  C_2 
REMARK    4  A    between atoms: C_16  and  C_4 
REMARK    5  A    between atoms: O_14  and  C_9 
REMARK    6  A    between atoms: S_13  and  C_16 
REMARK    7  A    between atoms: C_15  and  S_13 
REMARK    8  A    between atoms: C_17  and  O_14 
ROOT
ATOM      1  C   UNL d   1     -56.558 -98.957 -44.274  0.00  0.00     0.040 A 
ATOM      2  C   UNL d   1     -56.979 -98.894 -43.570  0.00  0.00     0.005 A 
ATOM      3  C   UNL d   1     -56.963 -98.954 -44.999  0.00  0.00     0.005 A 
ATOM      4  C   UNL d   1     -58.205 -98.824 -44.305  0.00  0.00     0.100 A 
ATOM      5  C   UNL d   1     -57.801 -98.828 -43.580  0.00  0.00     0.025 A 
ATOM      6  C   UNL d   1     -57.783 -98.887 -45.010  0.00  0.00     0.025 A 
ENDROOT
BRANCH   1   7
ATOM      7  C   UNL d   1     -55.729 -99.024 -44.248  0.00  0.00     0.202 C 
ATOM      8  O   UNL d   1     -55.304 -98.756 -43.597  0.00  0.00    -0.286 OA
BRANCH   7   9
ATOM      9  C   UNL d   1     -55.324 -99.368 -44.894  0.00  0.00     0.077 C 
BRANCH   9  10
ATOM     10  S   UNL d   1     -54.711 -99.929 -44.751  0.00  0.00    -0.082 SA
BRANCH  10  11
ATOM     11  C   UNL d   1     -54.835-100.724 -44.925  0.00  0.00     0.042 C 
BRANCH  11  12
ATOM     12  C   UNL d   1     -54.978-101.260 -44.317  0.00  0.00     0.077 C 
BRANCH  12  13
ATOM     13  C   UNL d   1     -54.969-102.072 -44.467  0.00  0.00     0.211 C 
ATOM     14  O   UNL d   1     -54.741-102.346 -45.212  0.00  0.00    -0.644 OA
ATOM     15  O   UNL d   1     -55.185-102.605 -43.878  0.00  0.00    -0.644 OA
ENDBRANCH  12  13
ENDBRANCH  11  12
ENDBRANCH  10  11
ENDBRANCH   9  10
ENDBRANCH   7   9
ENDBRANCH   1   7
BRANCH   4  16
ATOM     16  O   UNL d   1     -59.048 -98.756 -44.323  0.00  0.00    -0.305 OA
BRANCH  16  17
ATOM     17  C   UNL d   1     -59.505 -99.215 -43.812  0.00  0.00     0.123 C 
ATOM     18  C   UNL d   1     -59.956 -98.851 -43.225  0.00  0.00     0.029 C 
ENDBRANCH  16  17
ENDBRANCH   4  16
TORSDOF 8
ENDMDL
MODEL 2
REMARK VINA RESULT:      22.2      1.446      4.010
REMARK  8 active torsions:
REMARK  status: ('A' for Active; 'I' for Inactive)
REMARK    1  A    between atoms: C_4  and  C_1 
REMARK    2  A    between atoms: C_2  and  C_15 
REMARK    3  A    between atoms: C_3  and  C_2 
REMARK    4  A    between atoms: C_16  and  C_4 
REMARK    5  A    between atoms: O_14  and  C_9 
REMARK    6  A    between atoms: S_13  and  C_16 
REMARK    7  A    between atoms: C_15  and  S_13 
REMARK    8  A    between atoms: C_17  and  O_14 
ROOT
ATOM      1  C   UNL d   1     -55.105-100.495 -44.247  0.00  0.00     0.040 A 
ATOM      2  C   UNL d   1     -54.936-100.294 -43.467  0.00  0.00     0.005 A 
ATOM      3  C   UNL d   1     -55.154-101.294 -44.466  0.00  0.00     0.005 A 
ATOM      4  C   UNL d   1     -54.865-101.681 -43.121  0.00  0.00     0.100 A 
ATOM      5  C   UNL d   1     -54.816-100.882 -42.902  0.00  0.00     0.025 A 
ATOM      6  C   UNL d   1     -55.034-101.882 -43.903  0.00  0.00     0.025 A 
ENDROOT
BRANCH   1   7
ATOM      7  C   UNL d   1     -55.224 -99.891 -44.806  0.00  0.00     0.202 C 
ATOM      8  O   UNL d   1     -55.046-100.009 -45.601  0.00  0.00    -0.286 OA
BRANCH   7   9
ATOM      9  C   UNL d   1     -55.529 -99.153 -44.556  0.00  0.00     0.077 C 
BRANCH   9  10
ATOM     10  S   UNL d   1     -56.222 -98.842 -44.921  0.00  0.00    -0.082 SA
BRANCH  10  11
ATOM     11  C   UNL d   1     -56.932 -98.823 -44.503  0.00  0.00     0.042 C 
BRANCH  11  12
ATOM     12  C   UNL d   1     -57.645 -98.762 -44.910  0.00  0.00     0.077 C 
BRANCH  12  13
ATOM     13  C   UNL d   1     -58.361 -98.840 -44.506  0.00  0.00     0.211 C 
ATOM     14  O   UNL d   1     -59.062 -98.937 -44.934  0.00  0.00    -0.644 OA
ATOM     15  O   UNL d   1     -58.378 -98.822 -43.683  0.00  0.00    -0.644 OA
ENDBRANCH  12  13
ENDBRANCH  11  12
ENDBRANCH  10  11
ENDBRANCH   9  10
ENDBRANCH   7   9
ENDBRANCH   1   7
BRANCH   4  16
ATOM     16  O   UNL d   1     -54.743-102.289 -42.547  0.00  0.00    -0.305 OA
BRANCH  16  17
ATOM     17  C   UNL d   1     -54.873-102.128 -41.748  0.00  0.00     0.123 C 
ATOM     18  C   UNL d   1     -55.299-102.661 -41.286  0.00  0.00     0.029 C 
ENDBRANCH  16  17
ENDBRANCH   4  16
TORSDOF 8
ENDMDL
