MODEL 1
REMARK VINA RESULT:      98.7      0.000      0.000
REMARK  6 active torsions:
REMARK  status: ('A' for Active; 'I' for Inactive)
REMARK    1  A    between atoms: S_12  and  C_5 
REMARK    2  A    between atoms: C_16  and  C_6 
REMARK    3  A    between atoms: C_10  and  C_14 
REMARK    4  A    between atoms: C_19  and  S_12 
REMARK    5  A    between atoms: C_13  and  C_19 
REMARK       I    between atoms: N_15  and  C_13 
REMARK    6  A    between atoms: C_22  and  N_15 
ROOT
ATOM      1  C   UNL d   1      59.587  49.681  51.749  0.00  0.00     0.186 A 
ATOM      2  C   UNL d   1      60.282  49.671  51.293  0.00  0.00     0.065 A 
ATOM      3  N   UNL d   1      58.851  49.681  51.383  0.00  0.00    -0.203 NA
ATOM      4  N   UNL d   1      59.503  49.659  50.106  0.00  0.00    -0.220 NA
ATOM      5  C   UNL d   1      60.230  49.660  50.479  0.00  0.00     0.116 A 
ATOM      6  C   UNL d   1      58.806  49.670  50.558  0.00  0.00     0.165 A 
ATOM      7  O   UNL d   1      59.635  49.692  52.578  0.00  0.00    -0.289 OA
ATOM      8  C   UNL d   1      61.020  49.671  51.669  0.00  0.00     0.007 A 
ATOM      9  C   UNL d   1      60.364  49.693  52.955  0.00  0.00     0.102 A 
ATOM     10  C   UNL d   1      61.062  49.682  52.497  0.00  0.00     0.023 A 
ATOM     11  C   UNL d   1      60.414  49.704  53.766  0.00  0.00     0.025 A 
ATOM     12  C   UNL d   1      61.796  49.682  52.874  0.00  0.00     0.002 A 
ATOM     13  C   UNL d   1      61.835  49.693  53.699  0.00  0.00     0.000 A 
ATOM     14  C   UNL d   1      61.144  49.704  54.152  0.00  0.00     0.002 A 
ENDROOT
BRANCH   5  15
ATOM     15  S   UNL d   1      60.929  49.649  50.030  0.00  0.00    -0.062 SA
BRANCH  15  16
ATOM     16  C   UNL d   1      61.027  49.068  49.449  0.00  0.00     0.099 C 
BRANCH  16  17
ATOM     17  C   UNL d   1      61.272  48.313  49.658  0.00  0.00     0.286 C 
ATOM     18  N   UNL d   1      60.819  47.662  49.445  0.00  0.00    -0.208 NA
ATOM     19  O   UNL d   1      61.969  48.204  50.081  0.00  0.00    -0.265 OA
BRANCH  18  20
ATOM     20  C   UNL d   1      61.063  46.903  49.654  0.00  0.00     0.085 A 
ATOM     21  C   UNL d   1      61.538  46.475  49.142  0.00  0.00     0.019 A 
ATOM     22  C   UNL d   1      61.782  45.723  49.346  0.00  0.00     0.008 A 
ATOM     23  C   UNL d   1      61.547  45.393  50.072  0.00  0.00     0.065 A 
ATOM     24  C   UNL d   1      61.071  45.827  50.580  0.00  0.00     0.008 A 
ATOM     25  C   UNL d   1      60.826  46.585  50.375  0.00  0.00     0.019 A 
BRANCH  23  26
ATOM     26  C   UNL d   1      61.789  44.637  50.282  0.00  0.00     0.211 C 
ATOM     27  O   UNL d   1      62.236  44.193  49.750  0.00  0.00    -0.644 OA
ATOM     28  O   UNL d   1      61.589  44.322  51.015  0.00  0.00    -0.644 OA
ENDBRANCH  23  26
ENDBRANCH  18  20
ENDBRANCH  16  17
ENDBRANCH  15  16
ENDBRANCH   5  15
BRANCH   6  29
ATOM     29  C   UNL d   1      58.069  49.670  50.192  0.00  0.00     0.036 A 
ATOM     30  C   UNL d   1      57.380  49.632  50.654  0.00  0.00     0.003 A 
ATOM     31  C   UNL d   1      56.640  49.632  50.292  0.00  0.00     0.000 A 
ATOM     32  C   UNL d   1      56.584  49.669  49.468  0.00  0.00     0.000 A 
ATOM     33  C   UNL d   1      57.267  49.706  49.002  0.00  0.00     0.000 A 
ATOM     34  C   UNL d   1      58.013  49.707  49.371  0.00  0.00     0.003 A 
ENDBRANCH   6  29
TORSDOF 6
ENDMDL
