MODEL 1
REMARK VINA RESULT:       4.2      0.000      0.000
REMARK  4 active torsions:
REMARK  status: ('A' for Active; 'I' for Inactive)
REMARK    1  A    between atoms: N_11  and  C_4 
REMARK    2  A    between atoms: C_13  and  C_17 
REMARK    3  A    between atoms: C_17  and  N_16 
REMARK    4  A    between atoms: O_29  and  C_18 
ROOT
ATOM      1  N   UNL d   1     -41.754-122.654 -50.887  0.00  0.00    -0.195 N 
ATOM      2  C   UNL d   1     -41.830-122.268 -50.179  0.00  0.00     0.168 A 
ATOM      3  C   UNL d   1     -42.112-122.649 -49.536  0.00  0.00     0.073 A 
ATOM      4  C   UNL d   1     -41.472-122.258 -51.519  0.00  0.00     0.153 A 
ATOM      5  N   UNL d   1     -42.240-123.804 -50.312  0.00  0.00    -0.143 NA
ATOM      6  C   UNL d   1     -42.316-123.418 -49.604  0.00  0.00     0.185 A 
ATOM      7  N   UNL d   1     -41.622-121.496 -50.121  0.00  0.00    -0.227 NA
ATOM      8  C   UNL d   1     -42.187-122.267 -48.835  0.00  0.00     0.007 A 
ATOM      9  N   UNL d   1     -42.603-123.817 -48.961  0.00  0.00    -0.225 NA
ATOM     10  C   UNL d   1     -41.264-121.493 -51.467  0.00  0.00     0.057 A 
ATOM     11  C   UNL d   1     -42.469-122.648 -48.192  0.00  0.00     0.019 A 
ATOM     12  C   UNL d   1     -41.340-121.107 -50.759  0.00  0.00     0.086 A 
ATOM     13  C   UNL d   1     -42.679-123.431 -48.253  0.00  0.00     0.083 A 
ATOM     14  C   UNL d   1     -41.978-121.491 -48.778  0.00  0.00     0.000 C 
ATOM     15  C   UNL d   1     -41.123-120.304 -50.702  0.00  0.00     0.021 C 
ATOM     16  C   UNL d   1     -42.960-123.816 -47.617  0.00  0.00     0.021 C 
ENDROOT
BRANCH   4  17
ATOM     17  N   UNL d   1     -41.396-122.663 -52.246  0.00  0.00    -0.286 N 
ATOM     18  C   UNL d   1     -41.142-123.410 -52.474  0.00  0.00     0.101 A 
ATOM     19  C   UNL d   1     -41.146-123.621 -53.281  0.00  0.00     0.100 A 
ATOM     20  N   UNL d   1     -41.403-123.088 -53.862  0.00  0.00    -0.300 N 
ATOM     21  C   UNL d   1     -41.664-122.319 -53.622  0.00  0.00     0.100 A 
ATOM     22  C   UNL d   1     -41.656-122.115 -52.811  0.00  0.00     0.101 A 
BRANCH  20  23
ATOM     23  C   UNL d   1     -41.407-123.297 -54.665  0.00  0.00     0.082 C 
BRANCH  23  24
ATOM     24  C   UNL d   1     -41.722-122.785 -55.230  0.00  0.00     0.042 A 
ATOM     25  C   UNL d   1     -42.470-122.944 -55.566  0.00  0.00     0.096 A 
ATOM     26  C   UNL d   1     -42.775-122.421 -56.131  0.00  0.00     0.027 A 
ATOM     27  C   UNL d   1     -42.352-121.749 -56.366  0.00  0.00     0.032 A 
ATOM     28  C   UNL d   1     -41.603-121.590 -56.029  0.00  0.00     0.140 A 
ATOM     29  C   UNL d   1     -41.292-122.113 -55.459  0.00  0.00     0.033 A 
ATOM     30  F   UNL d   1     -41.170-120.918 -56.257  0.00  0.00    -0.204 F 
BRANCH  25  31
ATOM     31  O   UNL d   1     -42.893-123.606 -55.339  0.00  0.00    -0.328 OA
ATOM     32  C   UNL d   1     -43.666-123.732 -55.625  0.00  0.00     0.181 C 
ENDBRANCH  25  31
ENDBRANCH  23  24
ENDBRANCH  20  23
ENDBRANCH   4  17
TORSDOF 4
ENDMDL
