MODEL 1
REMARK VINA RESULT:      -3.1      0.000      0.000
REMARK  4 active torsions:
REMARK  status: ('A' for Active; 'I' for Inactive)
REMARK    1  A    between atoms: C_8  and  C_4 
REMARK       I    between atoms: C_7  and  N_10 
REMARK    2  A    between atoms: C_16  and  C_7 
REMARK    3  A    between atoms: N_10  and  C_13 
REMARK    4  A    between atoms: C_17  and  C_16 
ROOT
ATOM      1  C   UNL d   1      33.032  19.255 -23.390  0.00  0.00     0.021 A 
ATOM      2  C   UNL d   1      32.816  18.482 -23.187  0.00  0.00     0.021 A 
ATOM      3  C   UNL d   1      32.808  17.893 -23.759  0.00  0.00     0.085 A 
ATOM      4  C   UNL d   1      33.239  19.434 -24.167  0.00  0.00     0.002 A 
ATOM      5  C   UNL d   1      33.234  18.847 -24.747  0.00  0.00     0.002 A 
ATOM      6  C   UNL d   1      33.016  18.069 -24.538  0.00  0.00     0.019 A 
ENDROOT
BRANCH   1   7
ATOM      7  C   UNL d   1      33.039  19.847 -22.816  0.00  0.00     0.118 A 
ATOM      8  N   UNL d   1      32.896  19.743 -22.016  0.00  0.00    -0.059 NA
ATOM      9  C   UNL d   1      32.960  20.478 -21.652  0.00  0.00     0.735 A 
ATOM     10  N   UNL d   1      33.143  21.037 -22.223  0.00  0.00    -0.136 N 
ATOM     11  N   UNL d   1      32.871  20.698 -20.858  0.00  0.00    -0.059 NA
ATOM     12  C   UNL d   1      33.193  20.647 -22.946  0.00  0.00     0.118 A 
ATOM     13  C   UNL d   1      33.241  21.826 -22.010  0.00  0.00     0.100 A 
ATOM     14  C   UNL d   1      33.154  22.051 -21.227  0.00  0.00     0.041 A 
ATOM     15  C   UNL d   1      32.971  21.492 -20.656  0.00  0.00     0.119 A 
ENDBRANCH   1   7
BRANCH   3  16
ATOM     16  N   UNL d   1      32.593  17.124 -23.552  0.00  0.00    -0.208 NA
ATOM     17  C   UNL d   1      31.826  16.854 -23.702  0.00  0.00     0.275 C 
ATOM     18  O   UNL d   1      31.277  17.351 -24.056  0.00  0.00    -0.266 OA
BRANCH  17  19
ATOM     19  C   UNL d   1      31.610  16.091 -23.497  0.00  0.00     0.036 C 
BRANCH  19  20
ATOM     20  C   UNL d   1      30.913  15.775 -23.794  0.00  0.00     0.023 C 
ATOM     21  C   UNL d   1      31.117  15.469 -24.544  0.00  0.00     0.004 C 
ATOM     22  C   UNL d   1      30.349  15.908 -23.221  0.00  0.00     0.004 C 
ATOM     23  C   UNL d   1      30.211  15.456 -24.098  0.00  0.00     0.004 C 
ENDBRANCH  19  20
ENDBRANCH  17  19
ENDBRANCH   3  16
TORSDOF 4
ENDMDL
MODEL 2
REMARK VINA RESULT:      -2.8      0.739      1.255
REMARK  4 active torsions:
REMARK  status: ('A' for Active; 'I' for Inactive)
REMARK    1  A    between atoms: C_8  and  C_4 
REMARK       I    between atoms: C_7  and  N_10 
REMARK    2  A    between atoms: C_16  and  C_7 
REMARK    3  A    between atoms: N_10  and  C_13 
REMARK    4  A    between atoms: C_17  and  C_16 
ROOT
ATOM      1  C   UNL d   1      32.979  19.977 -22.698  0.00  0.00     0.021 A 
ATOM      2  C   UNL d   1      32.871  19.166 -22.572  0.00  0.00     0.021 A 
ATOM      3  C   UNL d   1      32.947  18.639 -23.197  0.00  0.00     0.085 A 
ATOM      4  C   UNL d   1      33.163  20.257 -23.451  0.00  0.00     0.002 A 
ATOM      5  C   UNL d   1      33.241  19.733 -24.083  0.00  0.00     0.002 A 
ATOM      6  C   UNL d   1      33.131  18.917 -23.953  0.00  0.00     0.019 A 
ENDROOT
BRANCH   1   7
ATOM      7  C   UNL d   1      32.902  20.507 -22.070  0.00  0.00     0.118 A 
ATOM      8  N   UNL d   1      32.477  21.207 -22.080  0.00  0.00    -0.059 NA
ATOM      9  C   UNL d   1      32.553  21.556 -21.339  0.00  0.00     0.735 A 
ATOM     10  N   UNL d   1      33.023  21.075 -20.870  0.00  0.00    -0.136 N 
ATOM     11  N   UNL d   1      32.242  22.264 -21.041  0.00  0.00    -0.059 NA
ATOM     12  C   UNL d   1      33.241  20.423 -21.322  0.00  0.00     0.118 A 
ATOM     13  C   UNL d   1      33.190  21.294 -20.094  0.00  0.00     0.100 A 
ATOM     14  C   UNL d   1      32.886  21.993 -19.792  0.00  0.00     0.041 A 
ATOM     15  C   UNL d   1      32.416  22.474 -20.261  0.00  0.00     0.119 A 
ENDBRANCH   1   7
BRANCH   3  16
ATOM     16  N   UNL d   1      32.838  17.832 -23.068  0.00  0.00    -0.208 NA
ATOM     17  C   UNL d   1      32.167  17.451 -23.365  0.00  0.00     0.275 C 
ATOM     18  O   UNL d   1      31.607  17.876 -23.788  0.00  0.00    -0.266 OA
BRANCH  17  19
ATOM     19  C   UNL d   1      32.058  16.649 -23.237  0.00  0.00     0.036 C 
BRANCH  19  20
ATOM     20  C   UNL d   1      31.596  16.217 -23.760  0.00  0.00     0.023 C 
ATOM     21  C   UNL d   1      30.819  16.270 -23.456  0.00  0.00     0.004 C 
ATOM     22  C   UNL d   1      32.108  15.939 -24.330  0.00  0.00     0.004 C 
ATOM     23  C   UNL d   1      31.125  15.782 -24.286  0.00  0.00     0.004 C 
ENDBRANCH  19  20
ENDBRANCH  17  19
ENDBRANCH   3  16
TORSDOF 4
ENDMDL
MODEL 3
REMARK VINA RESULT:      -2.6      2.821      6.263
REMARK  4 active torsions:
REMARK  status: ('A' for Active; 'I' for Inactive)
REMARK    1  A    between atoms: C_8  and  C_4 
REMARK       I    between atoms: C_7  and  N_10 
REMARK    2  A    between atoms: C_16  and  C_7 
REMARK    3  A    between atoms: N_10  and  C_13 
REMARK    4  A    between atoms: C_17  and  C_16 
ROOT
ATOM      1  C   UNL d   1      32.472  22.187 -21.339  0.00  0.00     0.021 A 
ATOM      2  C   UNL d   1      32.800  22.445 -20.624  0.00  0.00     0.021 A 
ATOM      3  C   UNL d   1      32.632  23.198 -20.342  0.00  0.00     0.085 A 
ATOM      4  C   UNL d   1      31.976  22.685 -21.769  0.00  0.00     0.002 A 
ATOM      5  C   UNL d   1      31.803  23.443 -21.492  0.00  0.00     0.002 A 
ATOM      6  C   UNL d   1      32.135  23.699 -20.771  0.00  0.00     0.019 A 
ENDROOT
BRANCH   1   7
ATOM      7  C   UNL d   1      32.641  21.431 -21.622  0.00  0.00     0.118 A 
ATOM      8  N   UNL d   1      32.673  20.746 -21.175  0.00  0.00    -0.059 NA
ATOM      9  C   UNL d   1      32.859  20.124 -21.680  0.00  0.00     0.735 A 
ATOM     10  N   UNL d   1      32.943  20.422 -22.440  0.00  0.00    -0.136 N 
ATOM     11  N   UNL d   1      32.962  19.316 -21.529  0.00  0.00    -0.059 NA
ATOM     12  C   UNL d   1      32.809  21.233 -22.406  0.00  0.00     0.118 A 
ATOM     13  C   UNL d   1      33.132  19.916 -23.061  0.00  0.00     0.100 A 
ATOM     14  C   UNL d   1      33.234  19.116 -22.920  0.00  0.00     0.041 A 
ATOM     15  C   UNL d   1      33.150  18.818 -22.161  0.00  0.00     0.119 A 
ENDBRANCH   1   7
BRANCH   3  16
ATOM     16  N   UNL d   1      32.960  23.452 -19.630  0.00  0.00    -0.208 NA
ATOM     17  C   UNL d   1      32.505  23.450 -18.939  0.00  0.00     0.275 C 
ATOM     18  O   UNL d   1      31.725  23.197 -18.962  0.00  0.00    -0.266 OA
BRANCH  17  19
ATOM     19  C   UNL d   1      32.830  23.702 -18.231  0.00  0.00     0.036 C 
BRANCH  19  20
ATOM     20  C   UNL d   1      32.600  23.340 -17.531  0.00  0.00     0.023 C 
ATOM     21  C   UNL d   1      31.818  23.602 -17.399  0.00  0.00     0.004 C 
ATOM     22  C   UNL d   1      33.240  22.896 -17.292  0.00  0.00     0.004 C 
ATOM     23  C   UNL d   1      32.364  22.977 -16.824  0.00  0.00     0.004 C 
ENDBRANCH  19  20
ENDBRANCH  17  19
ENDBRANCH   3  16
TORSDOF 4
ENDMDL
MODEL 4
REMARK VINA RESULT:      -2.4      1.255      2.309
REMARK  4 active torsions:
REMARK  status: ('A' for Active; 'I' for Inactive)
REMARK    1  A    between atoms: C_8  and  C_4 
REMARK       I    between atoms: C_7  and  N_10 
REMARK    2  A    between atoms: C_16  and  C_7 
REMARK    3  A    between atoms: N_10  and  C_13 
REMARK    4  A    between atoms: C_17  and  C_16 
ROOT
ATOM      1  C   UNL d   1      32.430  17.280 -23.615  0.00  0.00     0.021 A 
ATOM      2  C   UNL d   1      31.719  16.952 -23.346  0.00  0.00     0.021 A 
ATOM      3  C   UNL d   1      31.532  16.173 -23.527  0.00  0.00     0.085 A 
ATOM      4  C   UNL d   1      32.950  16.827 -24.065  0.00  0.00     0.002 A 
ATOM      5  C   UNL d   1      32.768  16.044 -24.251  0.00  0.00     0.002 A 
ATOM      6  C   UNL d   1      32.051  15.716 -23.978  0.00  0.00     0.019 A 
ENDROOT
BRANCH   1   7
ATOM      7  C   UNL d   1      32.618  18.063 -23.433  0.00  0.00     0.118 A 
ATOM      8  N   UNL d   1      32.715  18.672 -23.972  0.00  0.00    -0.059 NA
ATOM      9  C   UNL d   1      32.899  19.354 -23.549  0.00  0.00     0.735 A 
ATOM     10  N   UNL d   1      32.916  19.169 -22.751  0.00  0.00    -0.136 N 
ATOM     11  N   UNL d   1      33.052  20.126 -23.808  0.00  0.00    -0.059 NA
ATOM     12  C   UNL d   1      32.742  18.368 -22.676  0.00  0.00     0.118 A 
ATOM     13  C   UNL d   1      33.087  19.753 -22.197  0.00  0.00     0.100 A 
ATOM     14  C   UNL d   1      33.240  20.519 -22.445  0.00  0.00     0.041 A 
ATOM     15  C   UNL d   1      33.223  20.704 -23.244  0.00  0.00     0.119 A 
ENDBRANCH   1   7
BRANCH   3  16
ATOM     16  N   UNL d   1      30.823  15.849 -23.257  0.00  0.00    -0.208 NA
ATOM     17  C   UNL d   1      30.143  15.892 -23.725  0.00  0.00     0.275 C 
ATOM     18  O   UNL d   1      30.171  16.259 -24.459  0.00  0.00    -0.266 OA
BRANCH  17  19
ATOM     19  C   UNL d   1      29.438  15.571 -23.458  0.00  0.00     0.036 C 
BRANCH  19  20
ATOM     20  C   UNL d   1      28.733  15.964 -23.608  0.00  0.00     0.023 C 
ATOM     21  C   UNL d   1      28.789  16.677 -23.175  0.00  0.00     0.004 C 
ATOM     22  C   UNL d   1      28.310  15.478 -24.106  0.00  0.00     0.004 C 
ATOM     23  C   UNL d   1      28.023  16.365 -23.756  0.00  0.00     0.004 C 
ENDBRANCH  19  20
ENDBRANCH  17  19
ENDBRANCH   3  16
TORSDOF 4
ENDMDL
MODEL 5
REMARK VINA RESULT:      -2.2      1.240      4.943
REMARK  4 active torsions:
REMARK  status: ('A' for Active; 'I' for Inactive)
REMARK    1  A    between atoms: C_8  and  C_4 
REMARK       I    between atoms: C_7  and  N_10 
REMARK    2  A    between atoms: C_16  and  C_7 
REMARK    3  A    between atoms: N_10  and  C_13 
REMARK    4  A    between atoms: C_17  and  C_16 
ROOT
ATOM      1  C   UNL d   1      32.833  18.852 -23.622  0.00  0.00     0.021 A 
ATOM      2  C   UNL d   1      32.928  19.104 -22.839  0.00  0.00     0.021 A 
ATOM      3  C   UNL d   1      33.131  19.884 -22.680  0.00  0.00     0.085 A 
ATOM      4  C   UNL d   1      32.941  19.383 -24.243  0.00  0.00     0.002 A 
ATOM      5  C   UNL d   1      33.145  20.168 -24.090  0.00  0.00     0.002 A 
ATOM      6  C   UNL d   1      33.240  20.418 -23.300  0.00  0.00     0.019 A 
ENDROOT
BRANCH   1   7
ATOM      7  C   UNL d   1      32.629  18.069 -23.782  0.00  0.00     0.118 A 
ATOM      8  N   UNL d   1      32.415  17.505 -23.228  0.00  0.00    -0.059 NA
ATOM      9  C   UNL d   1      32.259  16.805 -23.631  0.00  0.00     0.735 A 
ATOM     10  N   UNL d   1      32.376  16.933 -24.433  0.00  0.00    -0.136 N 
ATOM     11  N   UNL d   1      32.022  16.061 -23.352  0.00  0.00    -0.059 NA
ATOM     12  C   UNL d   1      32.606  17.717 -24.528  0.00  0.00     0.118 A 
ATOM     13  C   UNL d   1      32.258  16.319 -24.968  0.00  0.00     0.100 A 
ATOM     14  C   UNL d   1      32.023  15.581 -24.700  0.00  0.00     0.041 A 
ATOM     15  C   UNL d   1      31.906  15.453 -23.899  0.00  0.00     0.119 A 
ENDBRANCH   1   7
BRANCH   3  16
ATOM     16  N   UNL d   1      33.225  20.131 -21.899  0.00  0.00    -0.208 NA
ATOM     17  C   UNL d   1      32.820  20.797 -21.623  0.00  0.00     0.275 C 
ATOM     18  O   UNL d   1      32.323  21.213 -22.126  0.00  0.00    -0.266 OA
BRANCH  17  19
ATOM     19  C   UNL d   1      32.913  21.044 -20.848  0.00  0.00     0.036 C 
BRANCH  19  20
ATOM     20  C   UNL d   1      32.627  21.779 -20.622  0.00  0.00     0.023 C 
ATOM     21  C   UNL d   1      33.236  22.317 -20.818  0.00  0.00     0.004 C 
ATOM     22  C   UNL d   1      31.885  21.642 -20.313  0.00  0.00     0.004 C 
ATOM     23  C   UNL d   1      32.342  22.524 -20.395  0.00  0.00     0.004 C 
ENDBRANCH  19  20
ENDBRANCH  17  19
ENDBRANCH   3  16
TORSDOF 4
ENDMDL
MODEL 6
REMARK VINA RESULT:      -1.2      2.392      4.512
REMARK  4 active torsions:
REMARK  status: ('A' for Active; 'I' for Inactive)
REMARK    1  A    between atoms: C_8  and  C_4 
REMARK       I    between atoms: C_7  and  N_10 
REMARK    2  A    between atoms: C_16  and  C_7 
REMARK    3  A    between atoms: N_10  and  C_13 
REMARK    4  A    between atoms: C_17  and  C_16 
ROOT
ATOM      1  C   UNL d   1      32.475  22.676 -20.286  0.00  0.00     0.021 A 
ATOM      2  C   UNL d   1      32.875  22.035 -20.623  0.00  0.00     0.021 A 
ATOM      3  C   UNL d   1      32.838  21.908 -21.434  0.00  0.00     0.085 A 
ATOM      4  C   UNL d   1      32.039  23.188 -20.762  0.00  0.00     0.002 A 
ATOM      5  C   UNL d   1      31.998  23.065 -21.577  0.00  0.00     0.002 A 
ATOM      6  C   UNL d   1      32.402  22.419 -21.914  0.00  0.00     0.019 A 
ENDROOT
BRANCH   1   7
ATOM      7  C   UNL d   1      32.512  22.804 -19.472  0.00  0.00     0.118 A 
ATOM      8  N   UNL d   1      33.043  22.456 -18.954  0.00  0.00    -0.059 NA
ATOM      9  C   UNL d   1      32.881  22.742 -18.199  0.00  0.00     0.735 A 
ATOM     10  N   UNL d   1      32.251  23.265 -18.248  0.00  0.00    -0.136 N 
ATOM     11  N   UNL d   1      33.241  22.580 -17.470  0.00  0.00    -0.059 NA
ATOM     12  C   UNL d   1      32.021  23.305 -19.036  0.00  0.00     0.118 A 
ATOM     13  C   UNL d   1      31.971  23.635 -17.568  0.00  0.00     0.100 A 
ATOM     14  C   UNL d   1      32.322  23.480 -16.844  0.00  0.00     0.041 A 
ATOM     15  C   UNL d   1      32.951  22.957 -16.795  0.00  0.00     0.119 A 
ENDBRANCH   1   7
BRANCH   3  16
ATOM     16  N   UNL d   1      33.238  21.268 -21.766  0.00  0.00    -0.208 NA
ATOM     17  C   UNL d   1      32.814  20.642 -22.100  0.00  0.00     0.275 C 
ATOM     18  O   UNL d   1      31.993  20.656 -22.101  0.00  0.00    -0.266 OA
BRANCH  17  19
ATOM     19  C   UNL d   1      33.210  20.006 -22.431  0.00  0.00     0.036 C 
BRANCH  19  20
ATOM     20  C   UNL d   1      32.789  19.332 -22.639  0.00  0.00     0.023 C 
ATOM     21  C   UNL d   1      32.865  18.820 -21.983  0.00  0.00     0.004 C 
ATOM     22  C   UNL d   1      32.495  19.478 -23.385  0.00  0.00     0.004 C 
ATOM     23  C   UNL d   1      32.365  18.650 -22.845  0.00  0.00     0.004 C 
ENDBRANCH  19  20
ENDBRANCH  17  19
ENDBRANCH   3  16
TORSDOF 4
ENDMDL
MODEL 7
REMARK VINA RESULT:      -1.0      1.769      5.000
REMARK  4 active torsions:
REMARK  status: ('A' for Active; 'I' for Inactive)
REMARK    1  A    between atoms: C_8  and  C_4 
REMARK       I    between atoms: C_7  and  N_10 
REMARK    2  A    between atoms: C_16  and  C_7 
REMARK    3  A    between atoms: N_10  and  C_13 
REMARK    4  A    between atoms: C_17  and  C_16 
ROOT
ATOM      1  C   UNL d   1      31.184  16.117 -24.177  0.00  0.00     0.021 A 
ATOM      2  C   UNL d   1      31.670  16.671 -23.799  0.00  0.00     0.021 A 
ATOM      3  C   UNL d   1      32.476  16.683 -23.953  0.00  0.00     0.085 A 
ATOM      4  C   UNL d   1      31.509  15.578 -24.708  0.00  0.00     0.002 A 
ATOM      5  C   UNL d   1      32.318  15.584 -24.867  0.00  0.00     0.002 A 
ATOM      6  C   UNL d   1      32.805  16.143 -24.485  0.00  0.00     0.019 A 
ENDROOT
BRANCH   1   7
ATOM      7  C   UNL d   1      30.374  16.105 -24.023  0.00  0.00     0.118 A 
ATOM      8  N   UNL d   1      29.809  16.581 -24.377  0.00  0.00    -0.059 NA
ATOM      9  C   UNL d   1      29.077  16.382 -24.059  0.00  0.00     0.735 A 
ATOM     10  N   UNL d   1      29.186  15.785 -23.508  0.00  0.00    -0.136 N 
ATOM     11  N   UNL d   1      28.320  16.683 -24.212  0.00  0.00    -0.059 NA
ATOM     12  C   UNL d   1      29.990  15.611 -23.484  0.00  0.00     0.118 A 
ATOM     13  C   UNL d   1      28.540  15.478 -23.101  0.00  0.00     0.100 A 
ATOM     14  C   UNL d   1      27.788  15.770 -23.247  0.00  0.00     0.041 A 
ATOM     15  C   UNL d   1      27.679  16.368 -23.798  0.00  0.00     0.119 A 
ENDBRANCH   1   7
BRANCH   3  16
ATOM     16  N   UNL d   1      32.957  17.235 -23.574  0.00  0.00    -0.208 NA
ATOM     17  C   UNL d   1      32.761  18.038 -23.592  0.00  0.00     0.275 C 
ATOM     18  O   UNL d   1      32.085  18.287 -23.987  0.00  0.00    -0.266 OA
BRANCH  17  19
ATOM     19  C   UNL d   1      33.238  18.588 -23.216  0.00  0.00     0.036 C 
BRANCH  19  20
ATOM     20  C   UNL d   1      33.035  19.383 -23.245  0.00  0.00     0.023 C 
ATOM     21  C   UNL d   1      32.742  19.558 -22.482  0.00  0.00     0.004 C 
ATOM     22  C   UNL d   1      33.215  19.630 -24.001  0.00  0.00     0.004 C 
ATOM     23  C   UNL d   1      32.830  20.186 -23.268  0.00  0.00     0.004 C 
ENDBRANCH  19  20
ENDBRANCH  17  19
ENDBRANCH   3  16
TORSDOF 4
ENDMDL
