MODEL 1
REMARK VINA RESULT:      65.4      0.000      0.000
REMARK  4 active torsions:
REMARK  status: ('A' for Active; 'I' for Inactive)
REMARK    1  A    between atoms: C_7  and  C_1 
REMARK    2  A    between atoms: S_4  and  O_12 
REMARK    3  A    between atoms: O_12  and  C_10 
REMARK    4  A    between atoms: C_25  and  C_13 
ROOT
ATOM      1  C   UNL d   1      13.976  15.265  -4.046  0.00  0.00     0.064 A 
ATOM      2  C   UNL d   1      13.662  13.882  -3.910  0.00  0.00     0.062 A 
ATOM      3  C   UNL d   1      13.702  14.561  -4.372  0.00  0.00     0.199 A 
ATOM      4  C   UNL d   1      14.214  15.292  -3.248  0.00  0.00     0.126 A 
ATOM      5  C   UNL d   1      13.896  13.905  -3.119  0.00  0.00     0.105 A 
ATOM      6  O   UNL d   1      14.172  14.601  -2.781  0.00  0.00    -0.305 OA
ATOM      7  C   UNL d   1      13.388  13.178  -4.232  0.00  0.00     0.007 A 
ATOM      8  C   UNL d   1      13.583  12.525  -2.980  0.00  0.00     0.115 A 
ATOM      9  C   UNL d   1      13.857  13.231  -2.655  0.00  0.00     0.050 A 
ATOM     10  C   UNL d   1      13.348  12.499  -3.770  0.00  0.00     0.024 A 
ATOM     11  O   UNL d   1      13.470  14.535  -5.154  0.00  0.00    -0.286 OA
ENDROOT
BRANCH   1  12
ATOM     12  C   UNL d   1      14.016  15.944  -4.511  0.00  0.00     0.007 A 
ATOM     13  C   UNL d   1      14.484  16.579  -4.263  0.00  0.00     0.027 A 
ATOM     14  C   UNL d   1      14.523  17.258  -4.727  0.00  0.00     0.123 A 
ATOM     15  O   UNL d   1      14.996  17.901  -4.477  0.00  0.00    -0.301 OA
ATOM     16  C   UNL d   1      14.095  17.300  -5.441  0.00  0.00     0.123 A 
ATOM     17  C   UNL d   1      15.031  18.583  -4.953  0.00  0.00     0.149 A 
ATOM     18  C   UNL d   1      14.606  18.625  -5.659  0.00  0.00     0.149 A 
ATOM     19  O   UNL d   1      14.137  17.986  -5.907  0.00  0.00    -0.301 OA
ATOM     20  C   UNL d   1      13.638  16.671  -5.677  0.00  0.00     0.027 A 
ATOM     21  C   UNL d   1      13.592  15.986  -5.217  0.00  0.00     0.002 A 
ENDBRANCH   1  12
BRANCH  10  22
ATOM     22  C   UNL d   1      13.073  11.795  -4.096  0.00  0.00     0.002 C 
ATOM     23  C   UNL d   1      12.769  11.779  -4.863  0.00  0.00     0.000 C 
ENDBRANCH  10  22
BRANCH   8  24
ATOM     24  O   UNL d   1      13.543  11.848  -2.516  0.00  0.00    -0.230 OA
BRANCH  24  25
ATOM     25  S   UNL d   1      13.944  11.817  -1.795  0.00  0.00     0.285 S 
ATOM     26  O   UNL d   1      13.227  11.854  -1.389  0.00  0.00    -0.197 OA
ATOM     27  O   UNL d   1      14.664  11.779  -2.196  0.00  0.00    -0.197 OA
ATOM     28  C   UNL d   1      14.349  11.786  -1.077  0.00  0.00     0.172 C 
ENDBRANCH  24  25
ENDBRANCH   8  24
TORSDOF 4
ENDMDL
