MODEL 1
REMARK VINA RESULT:      -1.6      0.000      0.000
REMARK  1 active torsions:
REMARK  status: ('A' for Active; 'I' for Inactive)
REMARK    1  A    between atoms: C_11  and  N_5 
ROOT
ATOM      1  C   UNL d   1     -41.721-122.564 -52.379  0.00  0.00     0.130 A 
ATOM      2  C   UNL d   1     -41.523-121.766 -52.455  0.00  0.00     0.157 A 
ATOM      3  N   UNL d   1     -41.406-121.306 -51.789  0.00  0.00    -0.210 NA
ATOM      4  C   UNL d   1     -41.802-122.902 -51.632  0.00  0.00     0.272 A 
ATOM      5  N   UNL d   1     -41.685-122.442 -50.961  0.00  0.00    -0.259 N 
ATOM      6  C   UNL d   1     -41.838-123.023 -53.054  0.00  0.00     0.204 A 
ATOM      7  N   UNL d   1     -41.444-121.435 -53.202  0.00  0.00    -0.289 N 
ATOM      8  C   UNL d   1     -41.487-121.643 -51.033  0.00  0.00     0.152 A 
ATOM      9  C   UNL d   1     -41.759-122.692 -53.792  0.00  0.00     0.055 A 
ATOM     10  C   UNL d   1     -41.562-121.899 -53.872  0.00  0.00     0.069 A 
ATOM     11  O   UNL d   1     -41.999-123.696 -51.560  0.00  0.00    -0.266 OA
ATOM     12  O   UNL d   1     -42.036-123.817 -52.974  0.00  0.00    -0.286 OA
ATOM     13  C   UNL d   1     -41.247-120.641 -53.282  0.00  0.00     0.101 C 
ATOM     14  C   UNL d   1     -41.369-121.181 -50.363  0.00  0.00     0.041 C 
ATOM     15  C   UNL d   1     -41.878-123.156 -54.466  0.00  0.00     0.005 A 
ATOM     16  C   UNL d   1     -41.482-121.562 -54.627  0.00  0.00     0.018 A 
ATOM     17  C   UNL d   1     -41.797-122.818 -55.213  0.00  0.00     0.000 A 
ATOM     18  C   UNL d   1     -41.600-122.025 -55.293  0.00  0.00     0.002 A 
ENDROOT
BRANCH   5  19
ATOM     19  C   UNL d   1     -41.767-122.784 -50.214  0.00  0.00     0.068 A 
ATOM     20  C   UNL d   1     -42.476-122.707 -49.790  0.00  0.00     0.020 A 
ATOM     21  C   UNL d   1     -42.558-123.049 -49.042  0.00  0.00     0.031 A 
ATOM     22  C   UNL d   1     -41.935-123.473 -48.708  0.00  0.00     0.140 A 
ATOM     23  C   UNL d   1     -41.219-123.555 -49.128  0.00  0.00     0.031 A 
ATOM     24  F   UNL d   1     -42.015-123.817 -47.958  0.00  0.00    -0.204 F 
ATOM     25  C   UNL d   1     -41.140-123.208 -49.882  0.00  0.00     0.020 A 
ENDBRANCH   5  19
TORSDOF 1
ENDMDL
MODEL 2
REMARK VINA RESULT:      -0.6      1.844      4.247
REMARK  1 active torsions:
REMARK  status: ('A' for Active; 'I' for Inactive)
REMARK    1  A    between atoms: C_11  and  N_5 
ROOT
ATOM      1  C   UNL d   1     -41.792-122.472 -51.868  0.00  0.00     0.130 A 
ATOM      2  C   UNL d   1     -41.513-121.771 -51.533  0.00  0.00     0.157 A 
ATOM      3  N   UNL d   1     -41.349-121.125 -52.007  0.00  0.00    -0.210 NA
ATOM      4  C   UNL d   1     -41.907-122.526 -52.683  0.00  0.00     0.272 A 
ATOM      5  N   UNL d   1     -41.743-121.878 -53.162  0.00  0.00    -0.259 N 
ATOM      6  C   UNL d   1     -41.956-123.121 -51.386  0.00  0.00     0.204 A 
ATOM      7  N   UNL d   1     -41.401-121.724 -50.722  0.00  0.00    -0.289 N 
ATOM      8  C   UNL d   1     -41.464-121.175 -52.829  0.00  0.00     0.152 A 
ATOM      9  C   UNL d   1     -41.844-123.070 -50.583  0.00  0.00     0.055 A 
ATOM     10  C   UNL d   1     -41.567-122.375 -50.245  0.00  0.00     0.069 A 
ATOM     11  O   UNL d   1     -42.185-123.224 -53.013  0.00  0.00    -0.266 OA
ATOM     12  O   UNL d   1     -42.234-123.817 -51.724  0.00  0.00    -0.286 OA
ATOM     13  C   UNL d   1     -41.124-121.028 -50.384  0.00  0.00     0.101 C 
ATOM     14  C   UNL d   1     -41.299-120.525 -53.306  0.00  0.00     0.041 C 
ATOM     15  C   UNL d   1     -42.009-123.723 -50.102  0.00  0.00     0.005 A 
ATOM     16  C   UNL d   1     -41.452-122.325 -49.423  0.00  0.00     0.018 A 
ATOM     17  C   UNL d   1     -41.894-123.669 -49.288  0.00  0.00     0.000 A 
ATOM     18  C   UNL d   1     -41.617-122.974 -48.951  0.00  0.00     0.002 A 
ENDROOT
BRANCH   5  19
ATOM     19  C   UNL d   1     -41.859-121.935 -53.977  0.00  0.00     0.068 A 
ATOM     20  C   UNL d   1     -42.562-121.660 -54.323  0.00  0.00     0.020 A 
ATOM     21  C   UNL d   1     -42.678-121.717 -55.139  0.00  0.00     0.031 A 
ATOM     22  C   UNL d   1     -42.096-122.049 -55.620  0.00  0.00     0.140 A 
ATOM     23  C   UNL d   1     -41.388-122.328 -55.280  0.00  0.00     0.031 A 
ATOM     24  F   UNL d   1     -42.211-122.107 -56.439  0.00  0.00    -0.204 F 
ATOM     25  C   UNL d   1     -41.275-122.268 -54.456  0.00  0.00     0.020 A 
ENDBRANCH   5  19
TORSDOF 1
ENDMDL
MODEL 3
REMARK VINA RESULT:      -0.3      2.219      4.635
REMARK  1 active torsions:
REMARK  status: ('A' for Active; 'I' for Inactive)
REMARK    1  A    between atoms: C_11  and  N_5 
ROOT
ATOM      1  C   UNL d   1     -41.614-122.055 -52.375  0.00  0.00     0.130 A 
ATOM      2  C   UNL d   1     -41.446-122.840 -52.177  0.00  0.00     0.157 A 
ATOM      3  N   UNL d   1     -41.437-123.417 -52.756  0.00  0.00    -0.210 NA
ATOM      4  C   UNL d   1     -41.772-121.850 -53.158  0.00  0.00     0.272 A 
ATOM      5  N   UNL d   1     -41.763-122.429 -53.741  0.00  0.00    -0.259 N 
ATOM      6  C   UNL d   1     -41.622-121.477 -51.787  0.00  0.00     0.204 A 
ATOM      7  N   UNL d   1     -41.290-123.038 -51.396  0.00  0.00    -0.289 N 
ATOM      8  C   UNL d   1     -41.596-123.214 -53.546  0.00  0.00     0.152 A 
ATOM      9  C   UNL d   1     -41.466-121.677 -51.015  0.00  0.00     0.055 A 
ATOM     10  C   UNL d   1     -41.299-122.455 -50.814  0.00  0.00     0.069 A 
ATOM     11  O   UNL d   1     -41.938-121.070 -53.352  0.00  0.00    -0.266 OA
ATOM     12  O   UNL d   1     -41.789-120.698 -51.989  0.00  0.00    -0.286 OA
ATOM     13  C   UNL d   1     -41.123-123.817 -51.194  0.00  0.00     0.101 C 
ATOM     14  C   UNL d   1     -41.586-123.795 -54.129  0.00  0.00     0.041 C 
ATOM     15  C   UNL d   1     -41.476-121.093 -50.429  0.00  0.00     0.005 A 
ATOM     16  C   UNL d   1     -41.140-122.658 -50.024  0.00  0.00     0.018 A 
ATOM     17  C   UNL d   1     -41.317-121.299 -49.647  0.00  0.00     0.000 A 
ATOM     18  C   UNL d   1     -41.151-122.077 -49.446  0.00  0.00     0.002 A 
ENDROOT
BRANCH   5  19
ATOM     19  C   UNL d   1     -41.922-122.219 -54.524  0.00  0.00     0.068 A 
ATOM     20  C   UNL d   1     -41.302-122.101 -55.063  0.00  0.00     0.020 A 
ATOM     21  C   UNL d   1     -41.462-121.892 -55.846  0.00  0.00     0.031 A 
ATOM     22  C   UNL d   1     -42.240-121.797 -56.102  0.00  0.00     0.140 A 
ATOM     23  C   UNL d   1     -42.868-121.914 -55.566  0.00  0.00     0.031 A 
ATOM     24  F   UNL d   1     -42.401-121.587 -56.887  0.00  0.00    -0.204 F 
ATOM     25  C   UNL d   1     -42.703-122.126 -54.777  0.00  0.00     0.020 A 
ENDBRANCH   5  19
TORSDOF 1
ENDMDL
MODEL 4
REMARK VINA RESULT:       0.8      1.297      1.869
REMARK  1 active torsions:
REMARK  status: ('A' for Active; 'I' for Inactive)
REMARK    1  A    between atoms: C_11  and  N_5 
ROOT
ATOM      1  C   UNL d   1     -41.790-122.111 -53.209  0.00  0.00     0.130 A 
ATOM      2  C   UNL d   1     -41.537-122.868 -53.421  0.00  0.00     0.157 A 
ATOM      3  N   UNL d   1     -41.364-123.421 -52.844  0.00  0.00    -0.210 NA
ATOM      4  C   UNL d   1     -41.870-121.908 -52.414  0.00  0.00     0.272 A 
ATOM      5  N   UNL d   1     -41.696-122.462 -51.832  0.00  0.00    -0.259 N 
ATOM      6  C   UNL d   1     -41.963-121.557 -53.795  0.00  0.00     0.204 A 
ATOM      7  N   UNL d   1     -41.459-123.064 -54.214  0.00  0.00    -0.289 N 
ATOM      8  C   UNL d   1     -41.443-123.220 -52.041  0.00  0.00     0.152 A 
ATOM      9  C   UNL d   1     -41.885-121.755 -54.579  0.00  0.00     0.055 A 
ATOM     10  C   UNL d   1     -41.634-122.506 -54.795  0.00  0.00     0.069 A 
ATOM     11  O   UNL d   1     -42.121-121.155 -52.206  0.00  0.00    -0.266 OA
ATOM     12  O   UNL d   1     -42.214-120.805 -53.579  0.00  0.00    -0.286 OA
ATOM     13  C   UNL d   1     -41.208-123.816 -54.430  0.00  0.00     0.101 C 
ATOM     14  C   UNL d   1     -41.269-123.777 -51.460  0.00  0.00     0.041 C 
ATOM     15  C   UNL d   1     -42.059-121.197 -55.164  0.00  0.00     0.005 A 
ATOM     16  C   UNL d   1     -41.554-122.707 -55.598  0.00  0.00     0.018 A 
ATOM     17  C   UNL d   1     -41.980-121.400 -55.958  0.00  0.00     0.000 A 
ATOM     18  C   UNL d   1     -41.728-122.151 -56.174  0.00  0.00     0.002 A 
ENDROOT
BRANCH   5  19
ATOM     19  C   UNL d   1     -41.778-122.256 -51.037  0.00  0.00     0.068 A 
ATOM     20  C   UNL d   1     -42.473-122.438 -50.622  0.00  0.00     0.020 A 
ATOM     21  C   UNL d   1     -42.554-122.231 -49.826  0.00  0.00     0.031 A 
ATOM     22  C   UNL d   1     -41.944-121.840 -49.434  0.00  0.00     0.140 A 
ATOM     23  C   UNL d   1     -41.242-121.653 -49.844  0.00  0.00     0.031 A 
ATOM     24  F   UNL d   1     -42.023-121.631 -48.635  0.00  0.00    -0.204 F 
ATOM     25  C   UNL d   1     -41.164-121.864 -50.646  0.00  0.00     0.020 A 
ENDBRANCH   5  19
TORSDOF 1
ENDMDL
