MODEL 1
REMARK VINA RESULT:      16.2      0.000      0.000
REMARK  2 active torsions:
REMARK  status: ('A' for Active; 'I' for Inactive)
REMARK    1  A    between atoms: C_7  and  C_2 
REMARK    2  A    between atoms: C_6  and  N_3 
ROOT
ATOM      1  C   UNL d   1      45.803 -16.867  44.306  0.00  0.00     0.085 A 
ATOM      2  C   UNL d   1      45.899 -17.138  43.546  0.00  0.00     0.019 A 
ATOM      3  C   UNL d   1      46.150 -17.911  43.407  0.00  0.00     0.002 A 
ATOM      4  C   UNL d   1      45.965 -17.389  44.955  0.00  0.00     0.019 A 
ATOM      5  C   UNL d   1      46.308 -18.420  44.039  0.00  0.00     0.000 A 
ATOM      6  C   UNL d   1      46.217 -18.166  44.822  0.00  0.00     0.002 A 
ATOM      7  C   UNL d   1      46.238 -18.157  42.640  0.00  0.00     0.000 A 
ATOM      8  C   UNL d   1      46.556 -19.185  43.916  0.00  0.00     0.000 A 
ATOM      9  C   UNL d   1      46.485 -18.916  42.485  0.00  0.00     0.000 A 
ATOM     10  C   UNL d   1      46.647 -19.438  43.134  0.00  0.00     0.000 A 
ENDROOT
BRANCH   1  11
ATOM     11  N   UNL d   1      45.553 -16.099  44.469  0.00  0.00    -0.210 N 
ATOM     12  C   UNL d   1      45.887 -15.378  44.279  0.00  0.00     0.191 A 
ATOM     13  C   UNL d   1      45.413 -14.804  44.574  0.00  0.00     0.118 A 
ATOM     14  N   UNL d   1      46.584 -15.275  43.860  0.00  0.00    -0.127 N 
ATOM     15  C   UNL d   1      44.772 -15.155  44.955  0.00  0.00     0.129 A 
ATOM     16  N   UNL d   1      44.863 -15.943  44.888  0.00  0.00    -0.162 NA
BRANCH  13  17
ATOM     17  C   UNL d   1      45.554 -13.992  44.501  0.00  0.00     0.301 C 
ATOM     18  O   UNL d   1      45.086 -13.577  44.006  0.00  0.00    -0.263 OA
ATOM     19  N   UNL d   1      46.140 -13.643  44.916  0.00  0.00    -0.102 N 
ENDBRANCH  13  17
ENDBRANCH   1  11
TORSDOF 2
ENDMDL
MODEL 2
REMARK VINA RESULT:      17.3      1.748      3.976
REMARK  2 active torsions:
REMARK  status: ('A' for Active; 'I' for Inactive)
REMARK    1  A    between atoms: C_7  and  C_2 
REMARK    2  A    between atoms: C_6  and  N_3 
ROOT
ATOM      1  C   UNL d   1      45.688 -16.340  44.506  0.00  0.00     0.085 A 
ATOM      2  C   UNL d   1      46.161 -15.694  44.364  0.00  0.00     0.019 A 
ATOM      3  C   UNL d   1      45.881 -14.932  44.511  0.00  0.00     0.002 A 
ATOM      4  C   UNL d   1      44.904 -16.220  44.806  0.00  0.00     0.019 A 
ATOM      5  C   UNL d   1      45.118 -14.815  44.803  0.00  0.00     0.000 A 
ATOM      6  C   UNL d   1      44.618 -15.458  44.955  0.00  0.00     0.002 A 
ATOM      7  C   UNL d   1      46.372 -14.305  44.362  0.00  0.00     0.000 A 
ATOM      8  C   UNL d   1      44.829 -14.069  44.953  0.00  0.00     0.000 A 
ATOM      9  C   UNL d   1      46.113 -13.547  44.501  0.00  0.00     0.000 A 
ATOM     10  C   UNL d   1      45.329 -13.427  44.801  0.00  0.00     0.000 A 
ENDROOT
BRANCH   1  11
ATOM     11  N   UNL d   1      45.945 -17.109  44.367  0.00  0.00    -0.210 N 
ATOM     12  C   UNL d   1      45.926 -17.564  43.688  0.00  0.00     0.191 A 
ATOM     13  C   UNL d   1      46.250 -18.275  43.861  0.00  0.00     0.118 A 
ATOM     14  N   UNL d   1      45.625 -17.322  42.965  0.00  0.00    -0.127 N 
ATOM     15  C   UNL d   1      46.480 -18.280  44.653  0.00  0.00     0.129 A 
ATOM     16  N   UNL d   1      46.291 -17.568  44.955  0.00  0.00    -0.162 NA
BRANCH  13  17
ATOM     17  C   UNL d   1      46.337 -18.898  43.323  0.00  0.00     0.301 C 
ATOM     18  O   UNL d   1      46.647 -18.730  42.607  0.00  0.00    -0.263 OA
ATOM     19  N   UNL d   1      46.116 -19.639  43.520  0.00  0.00    -0.102 N 
ENDBRANCH  13  17
ENDBRANCH   1  11
TORSDOF 2
ENDMDL
