MODEL 1
REMARK VINA RESULT:      18.2      0.000      0.000
REMARK  1 active torsions:
REMARK  status: ('A' for Active; 'I' for Inactive)
REMARK       I    between atoms: C_8  and  N_9 
REMARK    1  A    between atoms: N_9  and  C_10 
ROOT
ATOM      1  C   UNL d   1     -51.858  25.704  33.307  0.00  0.00     0.102 A 
ATOM      2  O   UNL d   1     -52.683  25.645  33.308  0.00  0.00    -0.307 OA
ATOM      3  C   UNL d   1     -51.536  24.947  33.307  0.00  0.00     0.025 A 
ATOM      4  C   UNL d   1     -52.167  24.410  33.308  0.00  0.00     0.025 A 
ATOM      5  C   UNL d   1     -52.868  24.838  33.308  0.00  0.00     0.100 A 
ATOM      6  C   UNL d   1     -51.363  26.361  33.307  0.00  0.00     0.044 A 
ATOM      7  C   UNL d   1     -50.723  24.842  33.307  0.00  0.00     0.004 A 
ATOM      8  C   UNL d   1     -50.546  26.264  33.306  0.00  0.00     0.087 A 
ATOM      9  C   UNL d   1     -50.224  25.499  33.307  0.00  0.00     0.019 A 
ATOM     10  C   UNL d   1     -52.187  23.578  33.308  0.00  0.00     0.002 A 
ATOM     11  C   UNL d   1     -53.594  24.444  33.308  0.00  0.00     0.025 A 
ATOM     12  C   UNL d   1     -52.910  23.188  33.308  0.00  0.00     0.000 A 
ATOM     13  C   UNL d   1     -53.615  23.621  33.308  0.00  0.00     0.002 A 
ENDROOT
BRANCH   8  14
ATOM     14  N   UNL d   1     -50.047  26.921  33.306  0.00  0.00    -0.208 NA
ATOM     15  C   UNL d   1     -50.365  27.682  33.324  0.00  0.00     0.279 C 
ATOM     16  O   UNL d   1     -51.186  27.783  33.342  0.00  0.00    -0.265 OA
ATOM     17  C   UNL d   1     -49.865  28.343  33.324  0.00  0.00     0.068 C 
ENDBRANCH   8  14
TORSDOF 1
ENDMDL
