MODEL 1
REMARK VINA RESULT:      21.4      0.000      0.000
REMARK  0 active torsions:
REMARK  status: ('A' for Active; 'I' for Inactive)
ROOT
ATOM      1  C   UNL d   1      58.604  49.706  50.918  0.00  0.00     0.106 A 
ATOM      2  O   UNL d   1      58.010  49.705  51.482  0.00  0.00    -0.273 OA
ATOM      3  C   UNL d   1      57.217  49.705  51.242  0.00  0.00     0.300 A 
ATOM      4  C   UNL d   1      57.630  49.707  49.876  0.00  0.00     0.007 A 
ATOM      5  C   UNL d   1      58.413  49.706  50.110  0.00  0.00     0.023 A 
ATOM      6  C   UNL d   1      57.026  49.706  50.439  0.00  0.00     0.064 A 
ATOM      7  C   UNL d   1      59.393  49.705  51.154  0.00  0.00     0.062 A 
ATOM      8  C   UNL d   1      59.012  49.707  49.549  0.00  0.00     0.005 A 
ATOM      9  C   UNL d   1      59.995  49.706  50.584  0.00  0.00     0.198 A 
ATOM     10  O   UNL d   1      56.607  49.704  51.814  0.00  0.00    -0.259 OA
ATOM     11  C   UNL d   1      59.804  49.707  49.780  0.00  0.00     0.042 A 
ATOM     12  C   UNL d   1      57.439  49.708  49.070  0.00  0.00     0.000 A 
ATOM     13  C   UNL d   1      56.239  49.706  50.206  0.00  0.00     0.005 A 
ATOM     14  O   UNL d   1      60.792  49.706  50.822  0.00  0.00    -0.286 OA
ATOM     15  C   UNL d   1      59.580  49.704  51.941  0.00  0.00     0.005 C 
ATOM     16  C   UNL d   1      56.649  49.708  48.832  0.00  0.00     0.000 A 
ATOM     17  C   UNL d   1      56.035  49.707  49.402  0.00  0.00     0.000 A 
ENDROOT
TORSDOF 0
ENDMDL
MODEL 2
REMARK VINA RESULT:      23.6      0.945      3.405
REMARK  0 active torsions:
REMARK  status: ('A' for Active; 'I' for Inactive)
ROOT
ATOM      1  C   UNL d   1      58.346  49.687  49.968  0.00  0.00     0.106 A 
ATOM      2  O   UNL d   1      58.946  49.695  49.411  0.00  0.00    -0.273 OA
ATOM      3  C   UNL d   1      59.737  49.693  49.660  0.00  0.00     0.300 A 
ATOM      4  C   UNL d   1      59.308  49.675  51.021  0.00  0.00     0.007 A 
ATOM      5  C   UNL d   1      58.528  49.677  50.778  0.00  0.00     0.023 A 
ATOM      6  C   UNL d   1      59.918  49.683  50.466  0.00  0.00     0.064 A 
ATOM      7  C   UNL d   1      57.560  49.689  49.723  0.00  0.00     0.062 A 
ATOM      8  C   UNL d   1      57.922  49.670  51.333  0.00  0.00     0.005 A 
ATOM      9  C   UNL d   1      56.952  49.682  50.286  0.00  0.00     0.198 A 
ATOM     10  O   UNL d   1      60.353  49.700  49.095  0.00  0.00    -0.259 OA
ATOM     11  C   UNL d   1      57.133  49.672  51.092  0.00  0.00     0.042 A 
ATOM     12  C   UNL d   1      59.490  49.666  51.830  0.00  0.00     0.000 A 
ATOM     13  C   UNL d   1      60.702  49.681  50.708  0.00  0.00     0.005 A 
ATOM     14  O   UNL d   1      56.157  49.684  50.038  0.00  0.00    -0.286 OA
ATOM     15  C   UNL d   1      57.382  49.699  48.934  0.00  0.00     0.005 C 
ATOM     16  C   UNL d   1      60.276  49.664  52.076  0.00  0.00     0.000 A 
ATOM     17  C   UNL d   1      60.897  49.671  51.514  0.00  0.00     0.000 A 
ENDROOT
TORSDOF 0
ENDMDL
