MODEL 1
REMARK VINA RESULT:      62.6      0.000      0.000
REMARK  4 active torsions:
REMARK  status: ('A' for Active; 'I' for Inactive)
REMARK    1  A    between atoms: S_11  and  C_4 
REMARK       I    between atoms: N_8  and  C_10 
REMARK    2  A    between atoms: C_20  and  N_9 
REMARK    3  A    between atoms: C_10  and  C_15 
REMARK    4  A    between atoms: C_15  and  S_11 
ROOT
ATOM      1  N   UNL d   1     -55.589-102.095 -39.891  0.00  0.00    -0.269 N 
ATOM      2  N   UNL d   1     -55.258-102.107 -38.279  0.00  0.00    -0.301 N 
ATOM      3  C   UNL d   1     -55.755-102.088 -40.699  0.00  0.00     0.272 C 
ATOM      4  C   UNL d   1     -54.967-101.640 -39.594  0.00  0.00     0.102 A 
ATOM      5  C   UNL d   1     -56.044-102.555 -39.380  0.00  0.00     0.102 A 
ATOM      6  C   UNL d   1     -55.879-102.562 -38.576  0.00  0.00     0.100 A 
ATOM      7  C   UNL d   1     -54.802-101.646 -38.790  0.00  0.00     0.100 A 
ATOM      8  O   UNL d   1     -56.376-102.543 -40.996  0.00  0.00    -0.266 OA
ENDROOT
BRANCH   3   9
ATOM      9  C   UNL d   1     -55.299-101.627 -41.210  0.00  0.00     0.099 C 
BRANCH   9  10
ATOM     10  S   UNL d   1     -54.798-101.991 -41.758  0.00  0.00    -0.044 SA
BRANCH  10  11
ATOM     11  C   UNL d   1     -54.805-101.738 -42.552  0.00  0.00     0.182 A 
ATOM     12  N   UNL d   1     -54.813-102.301 -43.167  0.00  0.00    -0.222 NA
ATOM     13  C   UNL d   1     -54.820-102.054 -43.943  0.00  0.00     0.095 A 
ATOM     14  C   UNL d   1     -54.818-101.249 -44.125  0.00  0.00     0.104 A 
ATOM     15  C   UNL d   1     -54.829-102.478 -44.649  0.00  0.00     0.026 A 
ATOM     16  C   UNL d   1     -54.810-100.692 -43.532  0.00  0.00     0.274 A 
ATOM     17  S   UNL d   1     -54.826-101.177 -44.945  0.00  0.00    -0.081 SA
ATOM     18  N   UNL d   1     -54.804-100.934 -42.735  0.00  0.00    -0.251 N 
ATOM     19  O   UNL d   1     -54.809 -99.888 -43.715  0.00  0.00    -0.266 OA
ATOM     20  C   UNL d   1     -54.795-100.368 -42.126  0.00  0.00     0.104 C 
ATOM     21  C   UNL d   1     -54.833-101.941 -45.265  0.00  0.00     0.031 A 
ATOM     22  C   UNL d   1     -54.841-102.137 -46.067  0.00  0.00     0.007 C 
ENDBRANCH  10  11
ENDBRANCH   9  10
ENDBRANCH   3   9
BRANCH   2  23
ATOM     23  C   UNL d   1     -55.092-102.114 -37.471  0.00  0.00     0.064 A 
ATOM     24  C   UNL d   1     -55.092-102.827 -37.055  0.00  0.00     0.018 A 
ATOM     25  C   UNL d   1     -54.926-102.833 -36.247  0.00  0.00     0.002 A 
ATOM     26  C   UNL d   1     -54.760-102.126 -35.855  0.00  0.00     0.000 A 
ATOM     27  C   UNL d   1     -54.759-101.413 -36.270  0.00  0.00     0.002 A 
ATOM     28  C   UNL d   1     -54.925-101.407 -37.078  0.00  0.00     0.018 A 
ENDBRANCH   2  23
TORSDOF 4
ENDMDL
