MODEL 1
REMARK VINA RESULT:      40.8      0.000      0.000
REMARK  5 active torsions:
REMARK  status: ('A' for Active; 'I' for Inactive)
REMARK    1  A    between atoms: C_3  and  S_1 
REMARK    2  A    between atoms: N_2  and  C_4 
REMARK    3  A    between atoms: N_5  and  C_16 
REMARK    4  A    between atoms: C_11  and  N_5 
REMARK    5  A    between atoms: C_17  and  C_11 
ROOT
ATOM      1  N   UNL d   1     -50.162  26.074  33.406  0.00  0.00    -0.244 NA
ENDROOT
BRANCH   1   2
ATOM      2  C   UNL d   1     -50.763  25.502  33.386  0.00  0.00     0.082 A 
ATOM      3  C   UNL d   1     -51.543  25.723  33.328  0.00  0.00     0.020 A 
ATOM      4  C   UNL d   1     -52.142  25.155  33.308  0.00  0.00     0.015 A 
ATOM      5  C   UNL d   1     -51.930  24.360  33.349  0.00  0.00     0.107 A 
ATOM      6  C   UNL d   1     -51.150  24.139  33.407  0.00  0.00     0.015 A 
ATOM      7  C   UNL d   1     -50.550  24.706  33.427  0.00  0.00     0.020 A 
BRANCH   5   8
ATOM      8  S   UNL d   1     -52.532  23.782  33.329  0.00  0.00     0.302 S 
ATOM      9  O   UNL d   1     -53.104  24.382  33.353  0.00  0.00    -0.197 OA
ATOM     10  O   UNL d   1     -53.137  23.217  33.310  0.00  0.00    -0.197 OA
ATOM     11  N   UNL d   1     -51.963  23.189  33.306  0.00  0.00    -0.043 N 
ENDBRANCH   5   8
ENDBRANCH   1   2
BRANCH   1  12
ATOM     12  C   UNL d   1     -50.341  26.861  33.509  0.00  0.00     0.099 C 
BRANCH  12  13
ATOM     13  C   UNL d   1     -49.806  27.378  33.870  0.00  0.00     0.019 A 
ATOM     14  C   UNL d   1     -49.250  27.058  34.407  0.00  0.00     0.003 A 
ATOM     15  C   UNL d   1     -48.715  27.575  34.769  0.00  0.00     0.024 A 
ATOM     16  C   UNL d   1     -48.727  28.399  34.604  0.00  0.00     0.127 A 
ATOM     17  C   UNL d   1     -49.275  28.689  34.079  0.00  0.00     0.024 A 
ATOM     18  C   UNL d   1     -49.819  28.201  33.705  0.00  0.00     0.003 A 
BRANCH  16  19
ATOM     19  N   UNL d   1     -48.201  28.926  34.956  0.00  0.00    -0.114 N 
ATOM     20  O   UNL d   1     -48.460  29.696  35.152  0.00  0.00    -0.532 OA
ATOM     21  O   UNL d   1     -47.422  28.687  35.111  0.00  0.00    -0.532 OA
ENDBRANCH  16  19
ENDBRANCH  12  13
ENDBRANCH   1  12
TORSDOF 5
ENDMDL
