MODEL 1
REMARK VINA RESULT:      71.5      0.000      0.000
REMARK  4 active torsions:
REMARK  status: ('A' for Active; 'I' for Inactive)
REMARK    1  A    between atoms: N_11  and  C_4 
REMARK    2  A    between atoms: C_22  and  N_15 
REMARK    3  A    between atoms: O_29  and  C_17 
REMARK    4  A    between atoms: C_21  and  C_22 
ROOT
ATOM      1  N   UNL d   1      13.708  13.858  -3.514  0.00  0.00    -0.195 N 
ATOM      2  C   UNL d   1      13.779  13.181  -3.082  0.00  0.00     0.168 A 
ATOM      3  C   UNL d   1      14.154  13.185  -2.382  0.00  0.00     0.073 A 
ATOM      4  C   UNL d   1      13.330  13.835  -4.211  0.00  0.00     0.153 A 
ATOM      5  N   UNL d   1      14.387  14.546  -2.547  0.00  0.00    -0.143 NA
ATOM      6  C   UNL d   1      14.458  13.869  -2.115  0.00  0.00     0.185 A 
ATOM      7  N   UNL d   1      13.470  12.500  -3.359  0.00  0.00    -0.227 NA
ATOM      8  C   UNL d   1      14.224  12.515  -1.955  0.00  0.00     0.007 A 
ATOM      9  N   UNL d   1      14.840  13.889  -1.408  0.00  0.00    -0.225 NA
ATOM     10  C   UNL d   1      13.023  13.164  -4.489  0.00  0.00     0.057 A 
ATOM     11  C   UNL d   1      14.599  12.520  -1.254  0.00  0.00     0.019 A 
ATOM     12  C   UNL d   1      13.094  12.487  -4.057  0.00  0.00     0.086 A 
ATOM     13  C   UNL d   1      14.911  13.212  -0.976  0.00  0.00     0.083 A 
ATOM     14  C   UNL d   1      13.914  11.832  -2.234  0.00  0.00     0.000 C 
ATOM     15  C   UNL d   1      12.771  11.780  -4.348  0.00  0.00     0.021 C 
ATOM     16  C   UNL d   1      15.286  13.223  -0.280  0.00  0.00     0.021 C 
ENDROOT
BRANCH   4  17
ATOM     17  N   UNL d   1      13.261  14.537  -4.650  0.00  0.00    -0.286 N 
ATOM     18  C   UNL d   1      12.770  15.205  -4.725  0.00  0.00     0.101 A 
ATOM     19  C   UNL d   1      12.941  15.794  -5.277  0.00  0.00     0.100 A 
ATOM     20  N   UNL d   1      13.614  15.713  -5.760  0.00  0.00    -0.300 N 
ATOM     21  C   UNL d   1      14.102  15.060  -5.693  0.00  0.00     0.100 A 
ATOM     22  C   UNL d   1      13.932  14.464  -5.137  0.00  0.00     0.101 A 
BRANCH  20  23
ATOM     23  C   UNL d   1      13.785  16.294  -6.307  0.00  0.00     0.080 C 
BRANCH  23  24
ATOM     24  C   UNL d   1      13.944  17.080  -6.064  0.00  0.00     0.020 A 
ATOM     25  C   UNL d   1      13.495  17.712  -6.346  0.00  0.00     0.033 A 
ATOM     26  C   UNL d   1      13.654  18.494  -6.102  0.00  0.00     0.162 A 
ATOM     27  F   UNL d   1      13.202  19.125  -6.387  0.00  0.00    -0.202 F 
ATOM     28  C   UNL d   1      14.277  18.633  -5.566  0.00  0.00     0.121 A 
ATOM     29  C   UNL d   1      14.735  18.005  -5.275  0.00  0.00     0.027 A 
ATOM     30  C   UNL d   1      14.574  17.228  -5.519  0.00  0.00     0.004 A 
BRANCH  28  31
ATOM     31  O   UNL d   1      14.438  19.408  -5.321  0.00  0.00    -0.326 OA
ATOM     32  C   UNL d   1      14.774  19.952  -5.843  0.00  0.00     0.181 C 
ENDBRANCH  28  31
ENDBRANCH  23  24
ENDBRANCH  20  23
ENDBRANCH   4  17
TORSDOF 4
ENDMDL
MODEL 2
REMARK VINA RESULT:      73.2      1.495      2.460
REMARK  4 active torsions:
REMARK  status: ('A' for Active; 'I' for Inactive)
REMARK    1  A    between atoms: N_11  and  C_4 
REMARK    2  A    between atoms: C_22  and  N_15 
REMARK    3  A    between atoms: O_29  and  C_17 
REMARK    4  A    between atoms: C_21  and  C_22 
ROOT
ATOM      1  N   UNL d   1      14.642  14.938  -2.319  0.00  0.00    -0.195 N 
ATOM      2  C   UNL d   1      14.813  14.781  -1.547  0.00  0.00     0.168 A 
ATOM      3  C   UNL d   1      14.784  14.038  -1.269  0.00  0.00     0.073 A 
ATOM      4  C   UNL d   1      14.676  15.686  -2.580  0.00  0.00     0.153 A 
ATOM      5  N   UNL d   1      14.412  13.608  -2.538  0.00  0.00    -0.143 NA
ATOM      6  C   UNL d   1      14.583  13.451  -1.766  0.00  0.00     0.185 A 
ATOM      7  N   UNL d   1      15.014  15.377  -1.057  0.00  0.00    -0.227 NA
ATOM      8  C   UNL d   1      14.953  13.883  -0.505  0.00  0.00     0.007 A 
ATOM      9  N   UNL d   1      14.549  12.694  -1.499  0.00  0.00    -0.225 NA
ATOM     10  C   UNL d   1      14.874  16.279  -2.099  0.00  0.00     0.057 A 
ATOM     11  C   UNL d   1      14.924  13.139  -0.227  0.00  0.00     0.019 A 
ATOM     12  C   UNL d   1      15.045  16.122  -1.327  0.00  0.00     0.086 A 
ATOM     13  C   UNL d   1      14.720  12.537  -0.727  0.00  0.00     0.083 A 
ATOM     14  C   UNL d   1      15.155  14.482  -0.014  0.00  0.00     0.000 C 
ATOM     15  C   UNL d   1      15.254  16.745  -0.819  0.00  0.00     0.021 C 
ATOM     16  C   UNL d   1      14.690  11.795  -0.456  0.00  0.00     0.021 C 
ENDROOT
BRANCH   4  17
ATOM     17  N   UNL d   1      14.498  15.839  -3.377  0.00  0.00    -0.286 N 
ATOM     18  C   UNL d   1      13.961  15.615  -3.972  0.00  0.00     0.101 A 
ATOM     19  C   UNL d   1      14.010  15.941  -4.728  0.00  0.00     0.100 A 
ATOM     20  N   UNL d   1      14.604  16.500  -4.890  0.00  0.00    -0.300 N 
ATOM     21  C   UNL d   1      15.136  16.726  -4.312  0.00  0.00     0.100 A 
ATOM     22  C   UNL d   1      15.090  16.399  -3.548  0.00  0.00     0.101 A 
BRANCH  20  23
ATOM     23  C   UNL d   1      14.654  16.825  -5.638  0.00  0.00     0.080 C 
BRANCH  23  24
ATOM     24  C   UNL d   1      14.387  17.605  -5.787  0.00  0.00     0.020 A 
ATOM     25  C   UNL d   1      14.800  18.259  -5.499  0.00  0.00     0.033 A 
ATOM     26  C   UNL d   1      14.531  19.035  -5.648  0.00  0.00     0.162 A 
ATOM     27  F   UNL d   1      14.947  19.688  -5.358  0.00  0.00    -0.202 F 
ATOM     28  C   UNL d   1      13.836  19.145  -6.095  0.00  0.00     0.121 A 
ATOM     29  C   UNL d   1      13.413  18.495  -6.389  0.00  0.00     0.027 A 
ATOM     30  C   UNL d   1      13.682  17.724  -6.239  0.00  0.00     0.004 A 
BRANCH  28  31
ATOM     31  O   UNL d   1      13.566  19.914  -6.245  0.00  0.00    -0.326 OA
ATOM     32  C   UNL d   1      12.769  20.104  -6.155  0.00  0.00     0.181 C 
ENDBRANCH  28  31
ENDBRANCH  23  24
ENDBRANCH  20  23
ENDBRANCH   4  17
TORSDOF 4
ENDMDL
