MODEL 1
REMARK VINA RESULT:      27.9      0.000      0.000
REMARK  8 active torsions:
REMARK  status: ('A' for Active; 'I' for Inactive)
REMARK       I    between atoms: C_2  and  N_1 
REMARK    1  A    between atoms: C_3  and  N_1 
REMARK    2  A    between atoms: C_4  and  N_1 
REMARK    3  A    between atoms: C_6  and  C_2 
REMARK    4  A    between atoms: C_5  and  C_4 
REMARK    5  A    between atoms: C_7  and  C_5 
REMARK    6  A    between atoms: O_19  and  C_7 
REMARK    7  A    between atoms: C_9  and  O_11 
REMARK    8  A    between atoms: O_11  and  C_16 
ROOT
ATOM      1  N   UNL d   1      45.565 -14.506  44.092  0.00  0.00    -0.258 N 
ATOM      2  C   UNL d   1      46.133 -14.960  43.704  0.00  0.00     0.266 C 
ATOM      3  O   UNL d   1      46.642 -14.608  43.160  0.00  0.00    -0.267 OA
ENDROOT
BRANCH   1   4
ATOM      4  C   UNL d   1      45.507 -13.693  43.933  0.00  0.00     0.150 A 
ATOM      5  N   UNL d   1      45.884 -13.147  44.422  0.00  0.00    -0.227 NA
ATOM      6  C   UNL d   1      45.824 -12.343  44.261  0.00  0.00     0.101 A 
ATOM      7  C   UNL d   1      45.386 -12.081  43.607  0.00  0.00     0.021 A 
ATOM      8  C   UNL d   1      45.011 -12.625  43.118  0.00  0.00     0.005 A 
ATOM      9  C   UNL d   1      45.069 -13.431  43.279  0.00  0.00     0.037 A 
ENDBRANCH   1   4
BRANCH   1  10
ATOM     10  C   UNL d   1      45.056 -14.849  44.633  0.00  0.00     0.090 C 
BRANCH  10  11
ATOM     11  C   UNL d   1      44.415 -14.410  44.936  0.00  0.00     0.087 C 
BRANCH  11  12
ATOM     12  C   UNL d   1      43.641 -14.654  44.798  0.00  0.00     0.297 C 
ATOM     13  O   UNL d   1      43.482 -15.447  44.628  0.00  0.00    -0.259 OA
BRANCH  12  14
ATOM     14  O   UNL d   1      43.026 -14.108  44.829  0.00  0.00    -0.296 OA
ATOM     15  C   UNL d   1      42.333 -14.560  44.749  0.00  0.00     0.185 C 
ENDBRANCH  12  14
ENDBRANCH  11  12
ENDBRANCH  10  11
ENDBRANCH   1  10
BRANCH   2  16
ATOM     16  C   UNL d   1      46.189 -15.768  43.862  0.00  0.00     0.057 A 
ATOM     17  C   UNL d   1      46.422 -16.020  44.611  0.00  0.00     0.007 A 
ATOM     18  C   UNL d   1      46.477 -16.828  44.764  0.00  0.00     0.025 A 
ATOM     19  C   UNL d   1      46.300 -17.377  44.174  0.00  0.00     0.103 A 
ATOM     20  C   UNL d   1      46.069 -17.115  43.429  0.00  0.00     0.025 A 
ATOM     21  C   UNL d   1      46.010 -16.304  43.261  0.00  0.00     0.007 A 
BRANCH  19  22
ATOM     22  O   UNL d   1      46.355 -18.184  44.328  0.00  0.00    -0.273 OA
BRANCH  22  23
ATOM     23  C   UNL d   1      46.056 -18.729  43.785  0.00  0.00     0.300 C 
ATOM     24  O   UNL d   1      45.459 -19.250  44.010  0.00  0.00    -0.259 OA
ATOM     25  C   UNL d   1      46.359 -18.750  43.012  0.00  0.00     0.074 C 
ENDBRANCH  22  23
ENDBRANCH  19  22
ENDBRANCH   2  16
TORSDOF 8
ENDMDL
