MODEL 1
REMARK VINA RESULT:      47.5      0.000      0.000
REMARK  3 active torsions:
REMARK  status: ('A' for Active; 'I' for Inactive)
REMARK    1  A    between atoms: C_5  and  C_4 
REMARK    2  A    between atoms: C_6  and  C_5 
REMARK       I    between atoms: N_9  and  C_6 
REMARK    3  A    between atoms: C_12  and  N_9 
ROOT
ATOM      1  N   UNL d   1     -52.003  25.543  33.342  0.00  0.00    -0.205 NA
ATOM      2  C   UNL d   1     -51.505  26.202  33.327  0.00  0.00     0.297 A 
ATOM      3  N   UNL d   1     -50.337  25.361  33.331  0.00  0.00    -0.239 NA
ATOM      4  C   UNL d   1     -50.686  26.112  33.321  0.00  0.00     0.144 A 
ATOM      5  C   UNL d   1     -51.660  24.788  33.351  0.00  0.00     0.102 A 
ATOM      6  C   UNL d   1     -50.841  24.698  33.346  0.00  0.00     0.099 A 
ATOM      7  O   UNL d   1     -51.849  26.953  33.318  0.00  0.00    -0.264 OA
ATOM      8  C   UNL d   1     -52.159  24.118  33.366  0.00  0.00     0.021 A 
ATOM      9  C   UNL d   1     -50.493  23.936  33.355  0.00  0.00     0.021 A 
ATOM     10  C   UNL d   1     -51.816  23.367  33.376  0.00  0.00     0.002 A 
ATOM     11  C   UNL d   1     -50.997  23.278  33.370  0.00  0.00     0.002 A 
ENDROOT
BRANCH   4  12
ATOM     12  C   UNL d   1     -50.183  26.770  33.306  0.00  0.00     0.086 C 
BRANCH  12  13
ATOM     13  C   UNL d   1     -49.922  27.097  34.020  0.00  0.00     0.281 C 
ATOM     14  N   UNL d   1     -49.262  27.554  34.016  0.00  0.00    -0.208 NA
ATOM     15  O   UNL d   1     -50.322  26.961  34.715  0.00  0.00    -0.265 OA
BRANCH  14  16
ATOM     16  C   UNL d   1     -48.981  27.896  34.731  0.00  0.00     0.085 A 
ATOM     17  C   UNL d   1     -49.306  27.695  35.438  0.00  0.00     0.019 A 
ATOM     18  C   UNL d   1     -49.025  28.036  36.141  0.00  0.00     0.002 A 
ATOM     19  C   UNL d   1     -48.415  28.573  36.094  0.00  0.00     0.000 A 
ATOM     20  C   UNL d   1     -48.085  28.778  35.392  0.00  0.00     0.002 A 
ATOM     21  C   UNL d   1     -48.367  28.439  34.710  0.00  0.00     0.019 A 
ENDBRANCH  14  16
ENDBRANCH  12  13
ENDBRANCH   4  12
TORSDOF 3
ENDMDL
