MODEL 1
REMARK VINA RESULT:      58.6      0.000      0.000
REMARK  3 active torsions:
REMARK  status: ('A' for Active; 'I' for Inactive)
REMARK    1  A    between atoms: N_6  and  C_1 
REMARK    2  A    between atoms: C_14  and  N_4 
REMARK    3  A    between atoms: C_9  and  N_6 
ROOT
ATOM      1  C   UNL d   1     -56.171 -99.465 -44.283  0.00  0.00     0.157 A 
ATOM      2  C   UNL d   1     -56.010 -99.978 -43.659  0.00  0.00     0.298 A 
ATOM      3  N   UNL d   1     -55.464-100.473 -44.775  0.00  0.00    -0.238 N 
ATOM      4  N   UNL d   1     -55.567-100.609 -43.969  0.00  0.00    -0.209 N 
ATOM      5  C   UNL d   1     -55.841 -99.758 -44.973  0.00  0.00     0.104 A 
ATOM      6  O   UNL d   1     -56.240 -99.892 -42.872  0.00  0.00    -0.263 OA
ATOM      7  C   UNL d   1     -55.052-100.968 -45.297  0.00  0.00     0.120 C 
ATOM      8  C   UNL d   1     -55.873 -99.415 -45.716  0.00  0.00     0.022 C 
ENDROOT
BRANCH   1   9
ATOM      9  N   UNL d   1     -56.604 -98.756 -44.219  0.00  0.00    -0.239 NA
BRANCH   9  10
ATOM     10  C   UNL d   1     -57.431 -98.769 -44.262  0.00  0.00     0.082 A 
ATOM     11  C   UNL d   1     -57.811 -98.756 -45.004  0.00  0.00     0.022 A 
ATOM     12  C   UNL d   1     -58.624 -98.770 -45.042  0.00  0.00     0.041 A 
ATOM     13  C   UNL d   1     -59.004 -98.756 -45.780  0.00  0.00     0.003 C 
ATOM     14  C   UNL d   1     -59.084 -98.797 -44.348  0.00  0.00     0.196 A 
ATOM     15  C   UNL d   1     -58.704 -98.811 -43.615  0.00  0.00     0.041 A 
ATOM     16  O   UNL d   1     -59.911 -98.811 -44.391  0.00  0.00    -0.287 OA
ATOM     17  C   UNL d   1     -57.881 -98.797 -43.576  0.00  0.00     0.022 A 
ATOM     18  C   UNL d   1     -59.162 -98.838 -42.934  0.00  0.00     0.003 C 
ENDBRANCH   9  10
ENDBRANCH   1   9
BRANCH   4  19
ATOM     19  C   UNL d   1     -55.283-101.256 -43.544  0.00  0.00     0.085 A 
ATOM     20  C   UNL d   1     -55.102-101.180 -42.748  0.00  0.00     0.019 A 
ATOM     21  C   UNL d   1     -54.816-101.827 -42.317  0.00  0.00     0.002 A 
ATOM     22  C   UNL d   1     -54.712-102.555 -42.694  0.00  0.00     0.000 A 
ATOM     23  C   UNL d   1     -54.893-102.633 -43.491  0.00  0.00     0.002 A 
ATOM     24  C   UNL d   1     -55.180-101.983 -43.925  0.00  0.00     0.019 A 
ENDBRANCH   4  19
TORSDOF 3
ENDMDL
