MODEL 1
REMARK VINA RESULT:      55.6      0.000      0.000
REMARK  4 active torsions:
REMARK  status: ('A' for Active; 'I' for Inactive)
REMARK    1  A    between atoms: C_5  and  C_1 
REMARK    2  A    between atoms: C_4  and  C_2 
REMARK    3  A    between atoms: C_12  and  C_4 
REMARK    4  A    between atoms: C_13  and  C_5 
ROOT
ATOM      1  C   UNL d   1      59.835  49.467  50.548  0.00  0.00     0.039 A 
ATOM      2  C   UNL d   1      61.126  48.740  50.758  0.00  0.00     0.039 A 
ATOM      3  C   UNL d   1      60.479  48.989  50.235  0.00  0.00     0.196 A 
ATOM      4  C   UNL d   1      59.830  49.700  51.383  0.00  0.00     0.003 A 
ATOM      5  C   UNL d   1      61.120  48.973  51.594  0.00  0.00     0.003 A 
ATOM      6  O   UNL d   1      60.484  48.767  49.440  0.00  0.00    -0.287 OA
ATOM      7  C   UNL d   1      60.469  49.455  51.905  0.00  0.00     0.000 A 
ATOM      8  C   UNL d   1      60.464  49.677  52.700  0.00  0.00     0.000 C 
ENDROOT
BRANCH   1   9
ATOM      9  C   UNL d   1      59.216  49.707  50.054  0.00  0.00     0.005 C 
BRANCH   9  10
ATOM     10  C   UNL d   1      58.441  49.700  50.323  0.00  0.00     0.019 A 
ATOM     11  C   UNL d   1      58.292  49.707  51.132  0.00  0.00     0.099 A 
ATOM     12  N   UNL d   1      57.516  49.700  51.404  0.00  0.00    -0.242 NA
ATOM     13  C   UNL d   1      56.884  49.687  50.868  0.00  0.00     0.099 A 
ATOM     14  C   UNL d   1      57.038  49.680  50.055  0.00  0.00     0.021 A 
ATOM     15  C   UNL d   1      57.815  49.686  49.787  0.00  0.00     0.003 A 
ENDBRANCH   9  10
ENDBRANCH   1   9
BRANCH   2  16
ATOM     16  C   UNL d   1      61.747  48.283  50.467  0.00  0.00     0.005 C 
BRANCH  16  17
ATOM     17  C   UNL d   1      61.659  47.469  50.369  0.00  0.00     0.019 A 
ATOM     18  C   UNL d   1      61.948  47.106  49.689  0.00  0.00     0.099 A 
ATOM     19  N   UNL d   1      61.865  46.297  49.585  0.00  0.00    -0.242 NA
ATOM     20  C   UNL d   1      61.487  45.840  50.167  0.00  0.00     0.099 A 
ATOM     21  C   UNL d   1      61.199  46.208  50.847  0.00  0.00     0.021 A 
ATOM     22  C   UNL d   1      61.287  47.021  50.944  0.00  0.00     0.003 A 
ENDBRANCH  16  17
ENDBRANCH   2  16
TORSDOF 4
ENDMDL
MODEL 2
REMARK VINA RESULT:      57.7      0.499      3.850
REMARK  4 active torsions:
REMARK  status: ('A' for Active; 'I' for Inactive)
REMARK    1  A    between atoms: C_5  and  C_1 
REMARK    2  A    between atoms: C_4  and  C_2 
REMARK    3  A    between atoms: C_12  and  C_4 
REMARK    4  A    between atoms: C_13  and  C_5 
ROOT
ATOM      1  C   UNL d   1      61.054  48.597  50.988  0.00  0.00     0.039 A 
ATOM      2  C   UNL d   1      59.841  49.429  50.713  0.00  0.00     0.039 A 
ATOM      3  C   UNL d   1      60.448  48.871  50.442  0.00  0.00     0.196 A 
ATOM      4  C   UNL d   1      61.059  48.876  51.809  0.00  0.00     0.003 A 
ATOM      5  C   UNL d   1      59.846  49.708  51.534  0.00  0.00     0.003 A 
ATOM      6  O   UNL d   1      60.444  48.605  49.659  0.00  0.00    -0.287 OA
ATOM      7  C   UNL d   1      60.458  49.429  52.082  0.00  0.00     0.000 A 
ATOM      8  C   UNL d   1      60.463  49.695  52.864  0.00  0.00     0.000 C 
ENDROOT
BRANCH   1   9
ATOM      9  C   UNL d   1      61.635  48.066  50.736  0.00  0.00     0.005 C 
BRANCH   9  10
ATOM     10  C   UNL d   1      61.470  47.265  50.673  0.00  0.00     0.019 A 
ATOM     11  C   UNL d   1      61.104  46.875  51.299  0.00  0.00     0.099 A 
ATOM     12  N   UNL d   1      60.937  46.072  51.239  0.00  0.00    -0.242 NA
ATOM     13  C   UNL d   1      61.136  45.654  50.552  0.00  0.00     0.099 A 
ATOM     14  C   UNL d   1      61.504  46.048  49.924  0.00  0.00     0.021 A 
ATOM     15  C   UNL d   1      61.669  46.851  49.988  0.00  0.00     0.003 A 
ENDBRANCH   9  10
ENDBRANCH   1   9
BRANCH   2  16
ATOM     16  C   UNL d   1      59.258  49.696  50.196  0.00  0.00     0.005 C 
BRANCH  16  17
ATOM     17  C   UNL d   1      58.459  49.619  50.386  0.00  0.00     0.019 A 
ATOM     18  C   UNL d   1      58.220  49.669  51.172  0.00  0.00     0.099 A 
ATOM     19  N   UNL d   1      57.427  49.593  51.368  0.00  0.00    -0.242 NA
ATOM     20  C   UNL d   1      56.862  49.466  50.772  0.00  0.00     0.099 A 
ATOM     21  C   UNL d   1      57.107  49.417  49.986  0.00  0.00     0.021 A 
ATOM     22  C   UNL d   1      57.905  49.494  49.797  0.00  0.00     0.003 A 
ENDBRANCH  16  17
ENDBRANCH   2  16
TORSDOF 4
ENDMDL
