MODEL 1
REMARK VINA RESULT:      10.4      0.000      0.000
REMARK  7 active torsions:
REMARK  status: ('A' for Active; 'I' for Inactive)
REMARK       I    between atoms: C_5  and  N_1 
REMARK    1  A    between atoms: C_11  and  C_3 
REMARK    2  A    between atoms: C_12  and  C_5 
REMARK    3  A    between atoms: N_7  and  C_12 
REMARK    4  A    between atoms: C_13  and  C_8 
REMARK    5  A    between atoms: C_29  and  N_10 
REMARK    6  A    between atoms: O_28  and  C_16 
REMARK    7  A    between atoms: O_30  and  C_23 
ROOT
ATOM      1  N   UNL d   1      57.810   0.356  32.298  0.00  0.00    -0.193 N 
ATOM      2  N   UNL d   1      58.593   0.488  32.486  0.00  0.00    -0.162 NA
ATOM      3  C   UNL d   1      58.685   0.436  33.301  0.00  0.00     0.109 A 
ATOM      4  C   UNL d   1      57.476   0.358  31.544  0.00  0.00     0.298 C 
ATOM      5  C   UNL d   1      57.397   0.218  33.000  0.00  0.00     0.088 A 
ATOM      6  C   UNL d   1      57.944   0.268  33.620  0.00  0.00     0.041 A 
ATOM      7  O   UNL d   1      56.675   0.214  31.456  0.00  0.00    -0.264 OA
ENDROOT
BRANCH   4   8
ATOM      8  C   UNL d   1      57.945   0.502  30.896  0.00  0.00     0.146 C 
BRANCH   8   9
ATOM      9  N   UNL d   1      58.111  -0.105  30.369  0.00  0.00    -0.262 N 
ATOM     10  C   UNL d   1      58.731  -0.032  29.838  0.00  0.00     0.322 A 
ATOM     11  C   UNL d   1      58.897  -0.643  29.309  0.00  0.00     0.322 A 
ATOM     12  O   UNL d   1      59.190   0.654  29.834  0.00  0.00    -0.261 OA
ATOM     13  O   UNL d   1      59.524  -0.567  28.775  0.00  0.00    -0.261 OA
ATOM     14  N   UNL d   1      58.444  -1.326  29.309  0.00  0.00    -0.267 N 
ATOM     15  C   UNL d   1      57.820  -1.400  29.842  0.00  0.00     0.102 A 
ATOM     16  C   UNL d   1      57.653  -0.790  30.372  0.00  0.00     0.102 A 
BRANCH  14  17
ATOM     17  C   UNL d   1      58.611  -1.936  28.780  0.00  0.00     0.083 C 
ATOM     18  C   UNL d   1      58.057  -2.538  28.658  0.00  0.00     0.021 C 
ENDBRANCH  14  17
ENDBRANCH   8   9
ENDBRANCH   4   8
BRANCH   5  19
ATOM     19  C   UNL d   1      56.602   0.061  33.077  0.00  0.00     0.020 A 
ATOM     20  C   UNL d   1      56.339  -0.715  33.111  0.00  0.00     0.028 A 
ATOM     21  C   UNL d   1      55.527  -0.867  33.191  0.00  0.00     0.116 A 
ATOM     22  C   UNL d   1      54.995  -0.249  33.234  0.00  0.00     0.116 A 
ATOM     23  C   UNL d   1      55.265   0.531  33.199  0.00  0.00     0.026 A 
ATOM     24  C   UNL d   1      56.074   0.682  33.120  0.00  0.00     0.004 A 
BRANCH  21  25
ATOM     25  O   UNL d   1      55.267  -1.642  33.224  0.00  0.00    -0.326 OA
ATOM     26  C   UNL d   1      55.521  -2.142  33.817  0.00  0.00     0.181 C 
ENDBRANCH  21  25
BRANCH  22  27
ATOM     27  O   UNL d   1      54.201  -0.399  33.311  0.00  0.00    -0.326 OA
ATOM     28  C   UNL d   1      53.753   0.023  33.850  0.00  0.00     0.181 C 
ENDBRANCH  22  27
ENDBRANCH   5  19
BRANCH   3  29
ATOM     29  C   UNL d   1      59.388   0.533  33.720  0.00  0.00     0.049 A 
ATOM     30  S   UNL d   1      59.467   0.589  34.527  0.00  0.00    -0.085 SA
ATOM     31  C   UNL d   1      60.262   0.681  34.715  0.00  0.00     0.035 A 
ATOM     32  C   UNL d   1      60.682   0.682  33.999  0.00  0.00     0.007 A 
ATOM     33  C   UNL d   1      60.141   0.590  33.378  0.00  0.00     0.009 A 
ENDBRANCH   3  29
TORSDOF 7
ENDMDL
MODEL 2
REMARK VINA RESULT:      11.7      2.576      3.864
REMARK  7 active torsions:
REMARK  status: ('A' for Active; 'I' for Inactive)
REMARK       I    between atoms: C_5  and  N_1 
REMARK    1  A    between atoms: C_11  and  C_3 
REMARK    2  A    between atoms: C_12  and  C_5 
REMARK    3  A    between atoms: N_7  and  C_12 
REMARK    4  A    between atoms: C_13  and  C_8 
REMARK    5  A    between atoms: C_29  and  N_10 
REMARK    6  A    between atoms: O_28  and  C_16 
REMARK    7  A    between atoms: O_30  and  C_23 
ROOT
ATOM      1  N   UNL d   1      58.510  -1.551  29.374  0.00  0.00    -0.193 N 
ATOM      2  N   UNL d   1      59.163  -1.242  28.996  0.00  0.00    -0.162 NA
ATOM      3  C   UNL d   1      59.416  -0.574  29.402  0.00  0.00     0.109 A 
ATOM      4  C   UNL d   1      58.081  -2.220  29.152  0.00  0.00     0.298 C 
ATOM      5  C   UNL d   1      58.344  -1.077  30.029  0.00  0.00     0.088 A 
ATOM      6  C   UNL d   1      58.909  -0.472  30.043  0.00  0.00     0.041 A 
ATOM      7  O   UNL d   1      57.436  -2.454  29.598  0.00  0.00    -0.264 OA
ENDROOT
BRANCH   4   8
ATOM      8  C   UNL d   1      58.303  -2.641  28.492  0.00  0.00     0.146 C 
BRANCH   8   9
ATOM      9  N   UNL d   1      58.278  -3.461  28.504  0.00  0.00    -0.262 N 
ATOM     10  C   UNL d   1      58.973  -3.895  28.486  0.00  0.00     0.322 A 
ATOM     11  C   UNL d   1      58.948  -4.719  28.498  0.00  0.00     0.322 A 
ATOM     12  O   UNL d   1      59.700  -3.505  28.456  0.00  0.00    -0.261 OA
ATOM     13  O   UNL d   1      59.650  -5.154  28.480  0.00  0.00    -0.261 OA
ATOM     14  N   UNL d   1      58.228  -5.110  28.528  0.00  0.00    -0.267 N 
ATOM     15  C   UNL d   1      57.528  -4.676  28.546  0.00  0.00     0.102 A 
ATOM     16  C   UNL d   1      57.553  -3.851  28.534  0.00  0.00     0.102 A 
BRANCH  14  17
ATOM     17  C   UNL d   1      58.203  -5.935  28.540  0.00  0.00     0.083 C 
ATOM     18  C   UNL d   1      57.545  -6.323  28.857  0.00  0.00     0.021 C 
ENDBRANCH  14  17
ENDBRANCH   8   9
ENDBRANCH   4   8
BRANCH   5  19
ATOM     19  C   UNL d   1      57.740  -1.178  30.566  0.00  0.00     0.020 A 
ATOM     20  C   UNL d   1      57.188  -0.583  30.679  0.00  0.00     0.028 A 
ATOM     21  C   UNL d   1      56.576  -0.692  31.228  0.00  0.00     0.116 A 
ATOM     22  C   UNL d   1      56.524  -1.389  31.653  0.00  0.00     0.116 A 
ATOM     23  C   UNL d   1      57.083  -1.985  31.536  0.00  0.00     0.026 A 
ATOM     24  C   UNL d   1      57.693  -1.875  30.989  0.00  0.00     0.004 A 
BRANCH  21  25
ATOM     25  O   UNL d   1      56.026  -0.097  31.339  0.00  0.00    -0.326 OA
ATOM     26  C   UNL d   1      56.262   0.655  31.550  0.00  0.00     0.181 C 
ENDBRANCH  21  25
BRANCH  22  27
ATOM     27  O   UNL d   1      55.925  -1.494  32.190  0.00  0.00    -0.326 OA
ATOM     28  C   UNL d   1      56.080  -1.830  32.919  0.00  0.00     0.181 C 
ENDBRANCH  22  27
ENDBRANCH   5  19
BRANCH   3  29
ATOM     29  C   UNL d   1      60.059  -0.097  29.204  0.00  0.00     0.049 A 
ATOM     30  S   UNL d   1      60.295   0.110  28.456  0.00  0.00    -0.085 SA
ATOM     31  C   UNL d   1      60.959   0.592  28.505  0.00  0.00     0.035 A 
ATOM     32  C   UNL d   1      61.133   0.682  29.311  0.00  0.00     0.007 A 
ATOM     33  C   UNL d   1      60.574   0.254  29.750  0.00  0.00     0.009 A 
ENDBRANCH   3  29
TORSDOF 7
ENDMDL
