MODEL 1
REMARK VINA RESULT:      -3.3      0.000      0.000
REMARK  4 active torsions:
REMARK  status: ('A' for Active; 'I' for Inactive)
REMARK    1  A    between atoms: N_2  and  C_1 
REMARK       I    between atoms: C_5  and  N_2 
REMARK    2  A    between atoms: C_8  and  C_5 
REMARK    3  A    between atoms: O_16  and  C_10 
REMARK    4  A    between atoms: O_17  and  C_12 
ROOT
ATOM      1  N   UNL d   1      57.348  -0.404  30.784  0.00  0.00    -0.184 NA
ATOM      2  C   UNL d   1      57.412  -0.010  31.507  0.00  0.00     0.281 C 
ATOM      3  O   UNL d   1      58.109   0.398  31.670  0.00  0.00    -0.265 OA
ENDROOT
BRANCH   2   4
ATOM      4  C   UNL d   1      56.823  -0.008  32.060  0.00  0.00     0.060 A 
ATOM      5  C   UNL d   1      56.693  -0.672  32.510  0.00  0.00     0.031 A 
ATOM      6  C   UNL d   1      56.091  -0.665  33.072  0.00  0.00     0.116 A 
ATOM      7  C   UNL d   1      55.631  -0.001  33.175  0.00  0.00     0.116 A 
ATOM      8  C   UNL d   1      55.761   0.663  32.725  0.00  0.00     0.026 A 
ATOM      9  C   UNL d   1      56.370   0.682  32.144  0.00  0.00     0.007 A 
BRANCH   6  10
ATOM     10  O   UNL d   1      55.955  -1.354  33.541  0.00  0.00    -0.326 OA
ATOM     11  C   UNL d   1      55.773  -2.092  32.982  0.00  0.00     0.181 C 
ENDBRANCH   6  10
BRANCH   7  12
ATOM     12  O   UNL d   1      55.027  -0.003  33.743  0.00  0.00    -0.326 OA
ATOM     13  C   UNL d   1      54.532   0.682  33.983  0.00  0.00     0.181 C 
ENDBRANCH   7  12
ENDBRANCH   2   4
BRANCH   1  14
ATOM     14  C   UNL d   1      57.982  -0.375  30.253  0.00  0.00     0.182 A 
ATOM     15  N   UNL d   1      58.356  -1.009  29.849  0.00  0.00    -0.283 N 
ATOM     16  C   UNL d   1      58.969  -0.645  29.382  0.00  0.00     0.072 A 
ATOM     17  C   UNL d   1      58.169  -1.778  29.901  0.00  0.00     0.101 C 
ATOM     18  C   UNL d   1      59.542  -0.963  28.855  0.00  0.00     0.018 A 
ATOM     19  C   UNL d   1      58.935   0.138  29.519  0.00  0.00     0.048 A 
ATOM     20  C   UNL d   1      60.084  -0.441  28.469  0.00  0.00     0.002 A 
ATOM     21  C   UNL d   1      60.041   0.352  28.615  0.00  0.00     0.001 A 
ATOM     22  C   UNL d   1      59.473   0.670  29.138  0.00  0.00     0.008 A 
ATOM     23  S   UNL d   1      58.352   0.316  30.036  0.00  0.00    -0.048 SA
ENDBRANCH   1  14
TORSDOF 4
ENDMDL
MODEL 2
REMARK VINA RESULT:      -1.6      1.677      5.066
REMARK  4 active torsions:
REMARK  status: ('A' for Active; 'I' for Inactive)
REMARK    1  A    between atoms: N_2  and  C_1 
REMARK       I    between atoms: C_5  and  N_2 
REMARK    2  A    between atoms: C_8  and  C_5 
REMARK    3  A    between atoms: O_16  and  C_10 
REMARK    4  A    between atoms: O_17  and  C_12 
ROOT
ATOM      1  N   UNL d   1      57.062   0.417  32.481  0.00  0.00    -0.184 NA
ATOM      2  C   UNL d   1      56.936  -0.187  31.932  0.00  0.00     0.281 C 
ATOM      3  O   UNL d   1      56.316  -0.714  32.064  0.00  0.00    -0.265 OA
ENDROOT
BRANCH   2   4
ATOM      4  C   UNL d   1      57.393  -0.283  31.273  0.00  0.00     0.060 A 
ATOM      5  C   UNL d   1      58.014   0.224  31.139  0.00  0.00     0.031 A 
ATOM      6  C   UNL d   1      58.478   0.123  30.466  0.00  0.00     0.116 A 
ATOM      7  C   UNL d   1      58.315  -0.478  29.941  0.00  0.00     0.116 A 
ATOM      8  C   UNL d   1      57.694  -0.985  30.075  0.00  0.00     0.026 A 
ATOM      9  C   UNL d   1      57.205  -0.903  30.755  0.00  0.00     0.007 A 
BRANCH   6  10
ATOM     10  O   UNL d   1      59.123   0.647  30.325  0.00  0.00    -0.326 OA
ATOM     11  C   UNL d   1      59.920   0.276  30.667  0.00  0.00     0.181 C 
ENDBRANCH   6  10
BRANCH   7  12
ATOM     12  O   UNL d   1      58.787  -0.573  29.265  0.00  0.00    -0.326 OA
ATOM     13  C   UNL d   1      58.953  -1.326  28.845  0.00  0.00     0.181 C 
ENDBRANCH   7  12
ENDBRANCH   2   4
BRANCH   1  14
ATOM     14  C   UNL d   1      56.564   0.471  33.140  0.00  0.00     0.182 A 
ATOM     15  N   UNL d   1      56.773   0.565  33.948  0.00  0.00    -0.283 N 
ATOM     16  C   UNL d   1      56.032   0.585  34.370  0.00  0.00     0.072 A 
ATOM     17  C   UNL d   1      57.508   0.622  34.242  0.00  0.00     0.101 C 
ATOM     18  C   UNL d   1      55.849   0.667  35.186  0.00  0.00     0.018 A 
ATOM     19  C   UNL d   1      55.453   0.508  33.830  0.00  0.00     0.048 A 
ATOM     20  C   UNL d   1      55.039   0.666  35.430  0.00  0.00     0.002 A 
ATOM     21  C   UNL d   1      54.459   0.586  34.874  0.00  0.00     0.001 A 
ATOM     22  C   UNL d   1      54.638   0.505  34.063  0.00  0.00     0.008 A 
ATOM     23  S   UNL d   1      55.753   0.438  33.092  0.00  0.00    -0.048 SA
ENDBRANCH   1  14
TORSDOF 4
ENDMDL
MODEL 3
REMARK VINA RESULT:      -1.0      1.193      1.776
REMARK  4 active torsions:
REMARK  status: ('A' for Active; 'I' for Inactive)
REMARK    1  A    between atoms: N_2  and  C_1 
REMARK       I    between atoms: C_5  and  N_2 
REMARK    2  A    between atoms: C_8  and  C_5 
REMARK    3  A    between atoms: O_16  and  C_10 
REMARK    4  A    between atoms: O_17  and  C_12 
ROOT
ATOM      1  N   UNL d   1      56.430  -0.144  32.022  0.00  0.00    -0.184 NA
ATOM      2  C   UNL d   1      56.562   0.309  32.701  0.00  0.00     0.281 C 
ATOM      3  O   UNL d   1      57.291   0.682  32.787  0.00  0.00    -0.265 OA
ENDROOT
BRANCH   2   4
ATOM      4  C   UNL d   1      56.007   0.401  33.281  0.00  0.00     0.060 A 
ATOM      5  C   UNL d   1      56.227   0.325  34.060  0.00  0.00     0.031 A 
ATOM      6  C   UNL d   1      55.659   0.420  34.649  0.00  0.00     0.116 A 
ATOM      7  C   UNL d   1      54.886   0.587  34.452  0.00  0.00     0.116 A 
ATOM      8  C   UNL d   1      54.667   0.662  33.673  0.00  0.00     0.026 A 
ATOM      9  C   UNL d   1      55.229   0.570  33.053  0.00  0.00     0.007 A 
BRANCH   6  10
ATOM     10  O   UNL d   1      55.884   0.342  35.458  0.00  0.00    -0.326 OA
ATOM     11  C   UNL d   1      56.813   0.482  35.548  0.00  0.00     0.181 C 
ENDBRANCH   6  10
BRANCH   7  12
ATOM     12  O   UNL d   1      54.320   0.681  35.051  0.00  0.00    -0.326 OA
ATOM     13  C   UNL d   1      53.450   0.591  34.968  0.00  0.00     0.181 C 
ENDBRANCH   7  12
ENDBRANCH   2   4
BRANCH   1  14
ATOM     14  C   UNL d   1      57.032  -0.206  31.457  0.00  0.00     0.182 A 
ATOM     15  N   UNL d   1      57.309  -0.893  31.060  0.00  0.00    -0.283 N 
ATOM     16  C   UNL d   1      57.931  -0.617  30.547  0.00  0.00     0.072 A 
ATOM     17  C   UNL d   1      57.039  -1.633  31.153  0.00  0.00     0.101 C 
ATOM     18  C   UNL d   1      58.433  -1.017  30.004  0.00  0.00     0.018 A 
ATOM     19  C   UNL d   1      57.994   0.169  30.654  0.00  0.00     0.048 A 
ATOM     20  C   UNL d   1      59.007  -0.573  29.569  0.00  0.00     0.002 A 
ATOM     21  C   UNL d   1      59.063   0.224  29.685  0.00  0.00     0.001 A 
ATOM     22  C   UNL d   1      58.566   0.623  30.224  0.00  0.00     0.008 A 
ATOM     23  S   UNL d   1      57.464   0.430  31.194  0.00  0.00    -0.048 SA
ENDBRANCH   1  14
TORSDOF 4
ENDMDL
MODEL 4
REMARK VINA RESULT:      -1.0      1.865      5.167
REMARK  4 active torsions:
REMARK  status: ('A' for Active; 'I' for Inactive)
REMARK    1  A    between atoms: N_2  and  C_1 
REMARK       I    between atoms: C_5  and  N_2 
REMARK    2  A    between atoms: C_8  and  C_5 
REMARK    3  A    between atoms: O_16  and  C_10 
REMARK    4  A    between atoms: O_17  and  C_12 
ROOT
ATOM      1  N   UNL d   1      56.864   0.430  33.179  0.00  0.00    -0.184 NA
ATOM      2  C   UNL d   1      56.729   0.294  32.376  0.00  0.00     0.281 C 
ATOM      3  O   UNL d   1      55.951   0.221  32.115  0.00  0.00    -0.265 OA
ENDROOT
BRANCH   2   4
ATOM      4  C   UNL d   1      57.327   0.228  31.836  0.00  0.00     0.060 A 
ATOM      5  C   UNL d   1      57.241  -0.271  31.201  0.00  0.00     0.031 A 
ATOM      6  C   UNL d   1      57.853  -0.335  30.654  0.00  0.00     0.116 A 
ATOM      7  C   UNL d   1      58.536   0.098  30.747  0.00  0.00     0.116 A 
ATOM      8  C   UNL d   1      58.622   0.598  31.382  0.00  0.00     0.026 A 
ATOM      9  C   UNL d   1      58.012   0.681  31.956  0.00  0.00     0.007 A 
BRANCH   6  10
ATOM     10  O   UNL d   1      57.766  -0.853  29.994  0.00  0.00    -0.326 OA
ATOM     11  C   UNL d   1      57.847  -1.750  30.276  0.00  0.00     0.181 C 
ENDBRANCH   6  10
BRANCH   7  12
ATOM     12  O   UNL d   1      59.147   0.029  30.191  0.00  0.00    -0.326 OA
ATOM     13  C   UNL d   1      59.688   0.667  29.925  0.00  0.00     0.181 C 
ENDBRANCH   7  12
ENDBRANCH   2   4
BRANCH   1  14
ATOM     14  C   UNL d   1      56.215   0.488  33.690  0.00  0.00     0.182 A 
ATOM     15  N   UNL d   1      56.211   0.520  34.530  0.00  0.00    -0.283 N 
ATOM     16  C   UNL d   1      55.389   0.578  34.747  0.00  0.00     0.072 A 
ATOM     17  C   UNL d   1      56.845   0.499  35.006  0.00  0.00     0.101 C 
ATOM     18  C   UNL d   1      55.004   0.629  35.493  0.00  0.00     0.018 A 
ATOM     19  C   UNL d   1      54.967   0.579  34.072  0.00  0.00     0.048 A 
ATOM     20  C   UNL d   1      54.160   0.682  35.519  0.00  0.00     0.002 A 
ATOM     21  C   UNL d   1      53.742   0.682  34.829  0.00  0.00     0.001 A 
ATOM     22  C   UNL d   1      54.122   0.631  34.087  0.00  0.00     0.008 A 
ATOM     23  S   UNL d   1      55.445   0.526  33.433  0.00  0.00    -0.048 SA
ENDBRANCH   1  14
TORSDOF 4
ENDMDL
