MODEL 1
REMARK VINA RESULT:      16.1      0.000      0.000
REMARK  2 active torsions:
REMARK  status: ('A' for Active; 'I' for Inactive)
REMARK    1  A    between atoms: C_7  and  C_1 
REMARK    2  A    between atoms: C_8  and  C_7 
ROOT
ATOM      1  C   UNL d   1      13.629  11.886  -3.135  0.00  0.00     0.033 A 
ATOM      2  C   UNL d   1      13.531  11.814  -1.812  0.00  0.00     0.100 A 
ATOM      3  C   UNL d   1      14.065  11.878  -2.435  0.00  0.00     0.025 A 
ATOM      4  O   UNL d   1      12.769  11.783  -2.126  0.00  0.00    -0.305 OA
ATOM      5  C   UNL d   1      12.834  11.828  -2.945  0.00  0.00     0.123 A 
ATOM      6  C   UNL d   1      14.867  11.919  -2.281  0.00  0.00     0.002 A 
ATOM      7  C   UNL d   1      13.798  11.792  -1.025  0.00  0.00     0.025 A 
ATOM      8  C   UNL d   1      15.145  11.898  -1.503  0.00  0.00     0.000 A 
ATOM      9  C   UNL d   1      14.608  11.834  -0.873  0.00  0.00     0.002 A 
ATOM     10  C   UNL d   1      15.407  11.983  -2.911  0.00  0.00     0.000 C 
ATOM     11  C   UNL d   1      14.886  11.812  -0.095  0.00  0.00     0.000 C 
ENDROOT
BRANCH   1  12
ATOM     12  C   UNL d   1      13.946  11.943  -3.894  0.00  0.00     0.072 C 
BRANCH  12  13
ATOM     13  C   UNL d   1      13.490  12.252  -4.511  0.00  0.00     0.211 C 
ATOM     14  O   UNL d   1      13.160  13.012  -4.443  0.00  0.00    -0.644 OA
ATOM     15  O   UNL d   1      13.363  11.807  -5.194  0.00  0.00    -0.644 OA
ENDBRANCH  12  13
ENDBRANCH   1  12
TORSDOF 2
ENDMDL
MODEL 2
REMARK VINA RESULT:      16.6      1.929      3.259
REMARK  2 active torsions:
REMARK  status: ('A' for Active; 'I' for Inactive)
REMARK    1  A    between atoms: C_7  and  C_1 
REMARK    2  A    between atoms: C_8  and  C_7 
ROOT
ATOM      1  C   UNL d   1      14.569  13.043  -1.396  0.00  0.00     0.033 A 
ATOM      2  C   UNL d   1      13.921  12.109  -2.084  0.00  0.00     0.100 A 
ATOM      3  C   UNL d   1      14.188  12.887  -2.110  0.00  0.00     0.025 A 
ATOM      4  O   UNL d   1      14.135  11.786  -1.355  0.00  0.00    -0.305 OA
ATOM      5  C   UNL d   1      14.536  12.368  -0.932  0.00  0.00     0.123 A 
ATOM      6  C   UNL d   1      14.051  13.342  -2.776  0.00  0.00     0.002 A 
ATOM      7  C   UNL d   1      13.510  11.779  -2.727  0.00  0.00     0.025 A 
ATOM      8  C   UNL d   1      13.644  13.025  -3.422  0.00  0.00     0.000 A 
ATOM      9  C   UNL d   1      13.373  12.242  -3.397  0.00  0.00     0.002 A 
ATOM     10  C   UNL d   1      14.321  14.128  -2.803  0.00  0.00     0.000 C 
ATOM     11  C   UNL d   1      12.967  11.925  -4.042  0.00  0.00     0.000 C 
ENDROOT
BRANCH   1  12
ATOM     12  C   UNL d   1      14.920  13.759  -1.189  0.00  0.00     0.072 C 
BRANCH  12  13
ATOM     13  C   UNL d   1      15.162  13.892  -0.408  0.00  0.00     0.211 C 
ATOM     14  O   UNL d   1      15.624  13.325  -0.014  0.00  0.00    -0.644 OA
ATOM     15  O   UNL d   1      14.942  14.587  -0.021  0.00  0.00    -0.644 OA
ENDBRANCH  12  13
ENDBRANCH   1  12
TORSDOF 2
ENDMDL
