MODEL 1
REMARK VINA RESULT:      -7.5      0.000      0.000
REMARK  2 active torsions:
REMARK  status: ('A' for Active; 'I' for Inactive)
REMARK    1  A    between atoms: C_7  and  C_1 
REMARK    2  A    between atoms: C_8  and  C_7 
ROOT
ATOM      1  C   UNL d   1     -46.747  12.996  23.296  0.00  0.00     0.116 A 
ATOM      2  N   UNL d   1     -45.865  13.796  22.487  0.00  0.00    -0.152 NA
ATOM      3  N   UNL d   1     -45.487  12.462  22.898  0.00  0.00    -0.152 NA
ATOM      4  C   UNL d   1     -46.573  13.716  22.883  0.00  0.00     0.288 A 
ATOM      5  C   UNL d   1     -46.208  12.379  23.301  0.00  0.00     0.288 A 
ATOM      6  C   UNL d   1     -45.313  13.182  22.485  0.00  0.00     0.374 A 
ATOM      7  O   UNL d   1     -47.119  14.328  22.884  0.00  0.00    -0.265 OA
ATOM      8  O   UNL d   1     -46.375  11.690  23.697  0.00  0.00    -0.265 OA
ATOM      9  O   UNL d   1     -44.580  13.268  22.074  0.00  0.00    -0.242 OA
ENDROOT
BRANCH   1  10
ATOM     10  C   UNL d   1     -47.463  12.911  23.698  0.00  0.00     0.016 C 
BRANCH  10  11
ATOM     11  C   UNL d   1     -48.412  12.541  23.132  0.00  0.00     0.030 A 
ATOM     12  S   UNL d   1     -49.102  12.976  22.986  0.00  0.00    -0.080 SA
ATOM     13  C   UNL d   1     -49.626  12.488  22.566  0.00  0.00     0.064 A 
ATOM     14 BR   UNL d   1     -50.388  12.715  22.310  0.00  0.00    -0.042 Br
ATOM     15  C   UNL d   1     -49.277  11.766  22.451  0.00  0.00     0.014 A 
ATOM     16  C   UNL d   1     -48.512  11.793  22.805  0.00  0.00     0.007 A 
ENDBRANCH  10  11
ENDBRANCH   1  10
TORSDOF 2
ENDMDL
MODEL 2
REMARK VINA RESULT:      -7.3      1.320      1.925
REMARK  2 active torsions:
REMARK  status: ('A' for Active; 'I' for Inactive)
REMARK    1  A    between atoms: C_7  and  C_1 
REMARK    2  A    between atoms: C_8  and  C_7 
ROOT
ATOM      1  C   UNL d   1     -47.346  12.265  23.695  0.00  0.00     0.116 A 
ATOM      2  N   UNL d   1     -46.781  10.940  23.696  0.00  0.00    -0.152 NA
ATOM      3  N   UNL d   1     -45.930  12.110  23.694  0.00  0.00    -0.152 NA
ATOM      4  C   UNL d   1     -47.439  11.422  23.696  0.00  0.00     0.288 A 
ATOM      5  C   UNL d   1     -46.599  12.600  23.694  0.00  0.00     0.288 A 
ATOM      6  C   UNL d   1     -46.022  11.267  23.695  0.00  0.00     0.374 A 
ATOM      7  O   UNL d   1     -48.192  11.095  23.697  0.00  0.00    -0.265 OA
ATOM      8  O   UNL d   1     -46.511  13.408  23.692  0.00  0.00    -0.265 OA
ATOM      9  O   UNL d   1     -45.342  10.766  23.695  0.00  0.00    -0.242 OA
ENDROOT
BRANCH   1  10
ATOM     10  C   UNL d   1     -48.010  12.755  23.694  0.00  0.00     0.016 C 
BRANCH  10  11
ATOM     11  C   UNL d   1     -48.575  12.977  22.699  0.00  0.00     0.030 A 
ATOM     12  S   UNL d   1     -49.390  12.911  22.569  0.00  0.00    -0.080 SA
ATOM     13  C   UNL d   1     -49.539  13.125  21.780  0.00  0.00     0.064 A 
ATOM     14 BR   UNL d   1     -50.294  13.134  21.423  0.00  0.00    -0.042 Br
ATOM     15  C   UNL d   1     -48.838  13.319  21.425  0.00  0.00     0.014 A 
ATOM     16  C   UNL d   1     -48.227  13.228  21.999  0.00  0.00     0.007 A 
ENDBRANCH  10  11
ENDBRANCH   1  10
TORSDOF 2
ENDMDL
MODEL 3
REMARK VINA RESULT:      -7.3      1.805      2.266
REMARK  2 active torsions:
REMARK  status: ('A' for Active; 'I' for Inactive)
REMARK    1  A    between atoms: C_7  and  C_1 
REMARK    2  A    between atoms: C_8  and  C_7 
ROOT
ATOM      1  C   UNL d   1     -47.459  13.702  22.511  0.00  0.00     0.116 A 
ATOM      2  N   UNL d   1     -46.931  12.387  22.764  0.00  0.00    -0.152 NA
ATOM      3  N   UNL d   1     -46.216  13.567  23.195  0.00  0.00    -0.152 NA
ATOM      4  C   UNL d   1     -47.518  12.858  22.453  0.00  0.00     0.288 A 
ATOM      5  C   UNL d   1     -46.814  14.049  22.879  0.00  0.00     0.288 A 
ATOM      6  C   UNL d   1     -46.275  12.724  23.137  0.00  0.00     0.374 A 
ATOM      7  O   UNL d   1     -48.169  12.521  22.083  0.00  0.00    -0.265 OA
ATOM      8  O   UNL d   1     -46.757  14.857  22.935  0.00  0.00    -0.265 OA
ATOM      9  O   UNL d   1     -45.668  12.233  23.458  0.00  0.00    -0.242 OA
ENDROOT
BRANCH   1  10
ATOM     10  C   UNL d   1     -48.052  14.183  22.198  0.00  0.00     0.016 C 
BRANCH  10  11
ATOM     11  C   UNL d   1     -48.964  14.493  22.855  0.00  0.00     0.030 A 
ATOM     12  S   UNL d   1     -49.275  15.256  22.938  0.00  0.00    -0.080 SA
ATOM     13  C   UNL d   1     -49.920  15.211  23.459  0.00  0.00     0.064 A 
ATOM     14 BR   UNL d   1     -50.390  15.860  23.693  0.00  0.00    -0.042 Br
ATOM     15  C   UNL d   1     -50.012  14.442  23.696  0.00  0.00     0.014 A 
ATOM     16  C   UNL d   1     -49.412  13.985  23.319  0.00  0.00     0.007 A 
ENDBRANCH  10  11
ENDBRANCH   1  10
TORSDOF 2
ENDMDL
MODEL 4
REMARK VINA RESULT:      -6.8      2.687      3.953
REMARK  2 active torsions:
REMARK  status: ('A' for Active; 'I' for Inactive)
REMARK    1  A    between atoms: C_7  and  C_1 
REMARK    2  A    between atoms: C_8  and  C_7 
ROOT
ATOM      1  C   UNL d   1     -49.212  12.608  22.222  0.00  0.00     0.116 A 
ATOM      2  N   UNL d   1     -49.817  11.554  22.994  0.00  0.00    -0.152 NA
ATOM      3  N   UNL d   1     -50.435  12.859  22.908  0.00  0.00    -0.152 NA
ATOM      4  C   UNL d   1     -49.211  11.811  22.514  0.00  0.00     0.288 A 
ATOM      5  C   UNL d   1     -49.818  13.122  22.419  0.00  0.00     0.288 A 
ATOM      6  C   UNL d   1     -50.435  12.063  23.200  0.00  0.00     0.374 A 
ATOM      7  O   UNL d   1     -48.599  11.304  22.311  0.00  0.00    -0.265 OA
ATOM      8  O   UNL d   1     -49.818  13.884  22.139  0.00  0.00    -0.265 OA
ATOM      9  O   UNL d   1     -51.062  11.793  23.697  0.00  0.00    -0.242 OA
ENDROOT
BRANCH   1  10
ATOM     10  C   UNL d   1     -48.600  12.871  21.736  0.00  0.00     0.016 C 
BRANCH  10  11
ATOM     11  C   UNL d   1     -47.618  13.292  22.205  0.00  0.00     0.030 A 
ATOM     12  S   UNL d   1     -46.863  12.957  22.152  0.00  0.00    -0.080 SA
ATOM     13  C   UNL d   1     -46.338  13.447  22.569  0.00  0.00     0.064 A 
ATOM     14 BR   UNL d   1     -45.520  13.307  22.653  0.00  0.00    -0.042 Br
ATOM     15  C   UNL d   1     -46.752  14.073  22.875  0.00  0.00     0.014 A 
ATOM     16  C   UNL d   1     -47.559  13.981  22.648  0.00  0.00     0.007 A 
ENDBRANCH  10  11
ENDBRANCH   1  10
TORSDOF 2
ENDMDL
MODEL 5
REMARK VINA RESULT:      -5.9      8.072      8.923
REMARK  2 active torsions:
REMARK  status: ('A' for Active; 'I' for Inactive)
REMARK    1  A    between atoms: C_7  and  C_1 
REMARK    2  A    between atoms: C_8  and  C_7 
ROOT
ATOM      1  C   UNL d   1     -40.049  14.800  18.159  0.00  0.00     0.116 A 
ATOM      2  N   UNL d   1     -40.229  15.914  17.265  0.00  0.00    -0.152 NA
ATOM      3  N   UNL d   1     -41.142  14.792  17.244  0.00  0.00    -0.152 NA
ATOM      4  C   UNL d   1     -39.805  15.555  17.861  0.00  0.00     0.288 A 
ATOM      5  C   UNL d   1     -40.710  14.426  17.851  0.00  0.00     0.288 A 
ATOM      6  C   UNL d   1     -40.897  15.548  16.946  0.00  0.00     0.374 A 
ATOM      7  O   UNL d   1     -39.141  15.922  18.176  0.00  0.00    -0.265 OA
ATOM      8  O   UNL d   1     -40.943  13.703  18.136  0.00  0.00    -0.265 OA
ATOM      9  O   UNL d   1     -41.335  15.922  16.329  0.00  0.00    -0.242 OA
ENDROOT
BRANCH   1  10
ATOM     10  C   UNL d   1     -39.622  14.434  18.762  0.00  0.00     0.016 C 
BRANCH  10  11
ATOM     11  C   UNL d   1     -39.854  14.679  19.878  0.00  0.00     0.030 A 
ATOM     12  S   UNL d   1     -39.362  15.082  20.408  0.00  0.00    -0.080 SA
ATOM     13  C   UNL d   1     -39.757  15.127  21.137  0.00  0.00     0.064 A 
ATOM     14 BR   UNL d   1     -39.451  15.491  21.823  0.00  0.00    -0.042 Br
ATOM     15  C   UNL d   1     -40.477  14.763  21.067  0.00  0.00     0.014 A 
ATOM     16  C   UNL d   1     -40.544  14.479  20.276  0.00  0.00     0.007 A 
ENDBRANCH  10  11
ENDBRANCH   1  10
TORSDOF 2
ENDMDL
MODEL 6
REMARK VINA RESULT:      -5.5      1.535      1.768
REMARK  2 active torsions:
REMARK  status: ('A' for Active; 'I' for Inactive)
REMARK    1  A    between atoms: C_7  and  C_1 
REMARK    2  A    between atoms: C_8  and  C_7 
ROOT
ATOM      1  C   UNL d   1     -47.669  12.900  22.409  0.00  0.00     0.116 A 
ATOM      2  N   UNL d   1     -46.347  13.296  21.998  0.00  0.00    -0.152 NA
ATOM      3  N   UNL d   1     -46.579  12.739  23.312  0.00  0.00    -0.152 NA
ATOM      4  C   UNL d   1     -47.140  13.222  21.829  0.00  0.00     0.288 A 
ATOM      5  C   UNL d   1     -47.388  12.663  23.140  0.00  0.00     0.288 A 
ATOM      6  C   UNL d   1     -46.050  13.060  22.732  0.00  0.00     0.374 A 
ATOM      7  O   UNL d   1     -47.432  13.456  21.098  0.00  0.00    -0.265 OA
ATOM      8  O   UNL d   1     -47.894  12.356  23.696  0.00  0.00    -0.265 OA
ATOM      9  O   UNL d   1     -45.228  13.138  22.905  0.00  0.00    -0.242 OA
ENDROOT
BRANCH   1  10
ATOM     10  C   UNL d   1     -48.473  12.824  22.240  0.00  0.00     0.016 C 
BRANCH  10  11
ATOM     11  C   UNL d   1     -49.196  13.722  22.413  0.00  0.00     0.030 A 
ATOM     12  S   UNL d   1     -49.944  13.693  22.768  0.00  0.00    -0.080 SA
ATOM     13  C   UNL d   1     -50.254  14.464  22.771  0.00  0.00     0.064 A 
ATOM     14 BR   UNL d   1     -50.999  14.676  23.080  0.00  0.00    -0.042 Br
ATOM     15  C   UNL d   1     -49.716  14.963  22.428  0.00  0.00     0.014 A 
ATOM     16  C   UNL d   1     -49.048  14.502  22.200  0.00  0.00     0.007 A 
ENDBRANCH  10  11
ENDBRANCH   1  10
TORSDOF 2
ENDMDL
