MODEL 1
REMARK VINA RESULT:      11.5      0.000      0.000
REMARK  2 active torsions:
REMARK  status: ('A' for Active; 'I' for Inactive)
REMARK       I    between atoms: C_2  and  N_4 
REMARK       I    between atoms: N_7  and  C_2 
REMARK    1  A    between atoms: N_4  and  C_8 
REMARK    2  A    between atoms: C_12  and  N_7 
ROOT
ATOM      1  C   UNL d   1      13.615  12.187  -2.706  0.00  0.00     0.369 C 
ATOM      2  N   UNL d   1      13.788  11.779  -2.016  0.00  0.00    -0.190 NA
ATOM      3  N   UNL d   1      13.487  11.781  -3.409  0.00  0.00    -0.191 NA
ATOM      4  O   UNL d   1      13.571  13.011  -2.689  0.00  0.00    -0.242 OA
ENDROOT
BRANCH   2   5
ATOM      5  C   UNL d   1      13.916  12.180  -1.316  0.00  0.00     0.098 A 
ATOM      6  C   UNL d   1      14.709  11.941  -1.356  0.00  0.00     0.118 A 
ATOM      7  S   UNL d   1      15.101  12.246  -0.696  0.00  0.00     0.213 S 
ATOM      8  O   UNL d   1      15.570  11.803  -1.203  0.00  0.00    -0.217 OA
ATOM      9  O   UNL d   1      15.421  12.582  -0.016  0.00  0.00    -0.217 OA
ATOM     10  C   UNL d   1      14.557  12.673  -0.247  0.00  0.00     0.100 A 
ATOM     11  C   UNL d   1      13.822  12.634  -0.628  0.00  0.00     0.032 A 
ENDBRANCH   2   5
BRANCH   3  12
ATOM     12  C   UNL d   1      13.314  12.195  -4.098  0.00  0.00     0.086 A 
ATOM     13  C   UNL d   1      13.154  11.783  -4.794  0.00  0.00     0.019 A 
ATOM     14  C   UNL d   1      12.983  12.190  -5.477  0.00  0.00     0.002 A 
ATOM     15  C   UNL d   1      12.968  13.014  -5.477  0.00  0.00     0.000 A 
ATOM     16  C   UNL d   1      13.127  13.427  -4.781  0.00  0.00     0.002 A 
ATOM     17  C   UNL d   1      13.300  13.014  -4.093  0.00  0.00     0.019 A 
ENDBRANCH   3  12
TORSDOF 2
ENDMDL
MODEL 2
REMARK VINA RESULT:      12.1      1.652      4.056
REMARK  2 active torsions:
REMARK  status: ('A' for Active; 'I' for Inactive)
REMARK       I    between atoms: C_2  and  N_4 
REMARK       I    between atoms: N_7  and  C_2 
REMARK    1  A    between atoms: N_4  and  C_8 
REMARK    2  A    between atoms: C_12  and  N_7 
ROOT
ATOM      1  C   UNL d   1      13.876  12.438  -2.598  0.00  0.00     0.369 C 
ATOM      2  N   UNL d   1      13.421  12.289  -3.263  0.00  0.00    -0.190 NA
ATOM      3  N   UNL d   1      13.964  11.863  -2.017  0.00  0.00    -0.191 NA
ATOM      4  O   UNL d   1      14.246  13.170  -2.515  0.00  0.00    -0.242 OA
ENDROOT
BRANCH   2   5
ATOM      5  C   UNL d   1      13.332  12.859  -3.842  0.00  0.00     0.098 A 
ATOM      6  C   UNL d   1      13.110  12.255  -4.365  0.00  0.00     0.118 A 
ATOM      7  S   UNL d   1      12.950  12.598  -5.099  0.00  0.00     0.213 S 
ATOM      8  O   UNL d   1      12.855  11.783  -5.069  0.00  0.00    -0.217 OA
ATOM      9  O   UNL d   1      12.808  13.010  -5.797  0.00  0.00    -0.217 OA
ATOM     10  C   UNL d   1      13.070  13.411  -5.036  0.00  0.00     0.100 A 
ATOM     11  C   UNL d   1      13.307  13.576  -4.259  0.00  0.00     0.032 A 
ENDBRANCH   2   5
BRANCH   3  12
ATOM     12  C   UNL d   1      14.421  12.016  -1.351  0.00  0.00     0.086 A 
ATOM     13  C   UNL d   1      15.226  11.839  -1.357  0.00  0.00     0.019 A 
ATOM     14  C   UNL d   1      15.680  11.990  -0.700  0.00  0.00     0.002 A 
ATOM     15  C   UNL d   1      15.339  12.319  -0.025  0.00  0.00     0.000 A 
ATOM     16  C   UNL d   1      14.534  12.497  -0.018  0.00  0.00     0.002 A 
ATOM     17  C   UNL d   1      14.077  12.344  -0.684  0.00  0.00     0.019 A 
ENDBRANCH   3  12
TORSDOF 2
ENDMDL
