MODEL 1
REMARK VINA RESULT:      -8.8      0.000      0.000
REMARK  7 active torsions:
REMARK  status: ('A' for Active; 'I' for Inactive)
REMARK    1  A    between atoms: C_10  and  N_1 
REMARK    2  A    between atoms: S_12  and  C_2 
REMARK    3  A    between atoms: S_3  and  N_11 
REMARK    4  A    between atoms: C_7  and  S_3 
REMARK    5  A    between atoms: N_11  and  C_15 
REMARK    6  A    between atoms: C_19  and  S_12 
REMARK    7  A    between atoms: C_15  and  C_19 
ROOT
ATOM      1  C   UNL d   1      51.967  32.910  52.690  0.00  0.00     0.060 C 
ENDROOT
BRANCH   1   2
ATOM      2  C   UNL d   1      51.439  33.494  52.883  0.00  0.00     0.119 C 
BRANCH   2   3
ATOM      3  N   UNL d   1      51.234  34.083  52.333  0.00  0.00    -0.156 NA
BRANCH   3   4
ATOM      4  S   UNL d   1      50.480  34.416  52.346  0.00  0.00     0.285 S 
ATOM      5  O   UNL d   1      50.370  34.220  51.521  0.00  0.00    -0.198 OA
ATOM      6  O   UNL d   1      50.563  34.617  53.150  0.00  0.00    -0.198 OA
BRANCH   4   7
ATOM      7  C   UNL d   1      49.706  34.752  52.342  0.00  0.00     0.105 A 
ATOM      8  C   UNL d   1      49.258  34.680  51.665  0.00  0.00     0.013 A 
ATOM      9  C   UNL d   1      48.510  35.000  51.648  0.00  0.00     0.001 A 
ATOM     10  C   UNL d   1      48.207  35.396  52.314  0.00  0.00     0.000 A 
ATOM     11  C   UNL d   1      48.667  35.458  52.979  0.00  0.00     0.001 A 
ATOM     12  C   UNL d   1      47.434  35.724  52.292  0.00  0.00     0.000 C 
ATOM     13  C   UNL d   1      49.403  35.148  53.008  0.00  0.00     0.013 A 
ENDBRANCH   4   7
ENDBRANCH   3   4
ENDBRANCH   2   3
ENDBRANCH   1   2
BRANCH   1  14
ATOM     14  S   UNL d   1      52.564  32.711  53.183  0.00  0.00    -0.045 SA
BRANCH  14  15
ATOM     15  C   UNL d   1      52.882  31.954  53.178  0.00  0.00     0.219 A 
ATOM     16  N   UNL d   1      53.555  31.802  53.596  0.00  0.00    -0.186 N 
ATOM     17  N   UNL d   1      53.750  31.005  53.495  0.00  0.00    -0.038 NA
ATOM     18  N   UNL d   1      53.181  30.686  53.010  0.00  0.00    -0.022 NA
ATOM     19  N   UNL d   1      52.655  31.249  52.815  0.00  0.00    -0.101 NA
BRANCH  16  20
ATOM     20  C   UNL d   1      53.973  32.352  54.045  0.00  0.00     0.087 A 
ATOM     21  C   UNL d   1      53.802  32.467  54.839  0.00  0.00     0.019 A 
ATOM     22  C   UNL d   1      54.227  33.024  55.289  0.00  0.00     0.002 A 
ATOM     23  C   UNL d   1      54.828  33.469  54.941  0.00  0.00     0.000 A 
ATOM     24  C   UNL d   1      54.996  33.349  54.138  0.00  0.00     0.002 A 
ATOM     25  C   UNL d   1      54.572  32.793  53.690  0.00  0.00     0.019 A 
ENDBRANCH  16  20
ENDBRANCH  14  15
ENDBRANCH   1  14
TORSDOF 7
ENDMDL
MODEL 2
REMARK VINA RESULT:      -7.5      2.370      5.010
REMARK  7 active torsions:
REMARK  status: ('A' for Active; 'I' for Inactive)
REMARK    1  A    between atoms: C_10  and  N_1 
REMARK    2  A    between atoms: S_12  and  C_2 
REMARK    3  A    between atoms: S_3  and  N_11 
REMARK    4  A    between atoms: C_7  and  S_3 
REMARK    5  A    between atoms: N_11  and  C_15 
REMARK    6  A    between atoms: C_19  and  S_12 
REMARK    7  A    between atoms: C_15  and  C_19 
ROOT
ATOM      1  C   UNL d   1      53.862  33.654  54.686  0.00  0.00     0.060 C 
ENDROOT
BRANCH   1   2
ATOM      2  C   UNL d   1      53.871  32.851  54.798  0.00  0.00     0.119 C 
BRANCH   2   3
ATOM      3  N   UNL d   1      54.248  32.350  54.252  0.00  0.00    -0.156 NA
BRANCH   3   4
ATOM      4  S   UNL d   1      53.889  31.643  54.024  0.00  0.00     0.285 S 
ATOM      5  O   UNL d   1      54.124  31.776  53.213  0.00  0.00    -0.198 OA
ATOM      6  O   UNL d   1      53.648  31.491  54.806  0.00  0.00    -0.198 OA
BRANCH   4   7
ATOM      7  C   UNL d   1      53.526  30.923  53.772  0.00  0.00     0.105 A 
ATOM      8  C   UNL d   1      53.075  30.936  53.094  0.00  0.00     0.013 A 
ATOM      9  C   UNL d   1      52.719  30.249  52.841  0.00  0.00     0.001 A 
ATOM     10  C   UNL d   1      52.817  29.543  53.269  0.00  0.00     0.000 A 
ATOM     11  C   UNL d   1      53.270  29.549  53.943  0.00  0.00     0.001 A 
ATOM     12  C   UNL d   1      52.449  28.836  53.004  0.00  0.00     0.000 C 
ATOM     13  C   UNL d   1      53.624  30.218  54.201  0.00  0.00     0.013 A 
ENDBRANCH   4   7
ENDBRANCH   3   4
ENDBRANCH   2   3
ENDBRANCH   1   2
BRANCH   1  14
ATOM     14  S   UNL d   1      53.250  34.013  54.317  0.00  0.00    -0.045 SA
BRANCH  14  15
ATOM     15  C   UNL d   1      53.112  34.817  54.412  0.00  0.00     0.219 A 
ATOM     16  N   UNL d   1      52.546  35.180  53.967  0.00  0.00    -0.186 N 
ATOM     17  N   UNL d   1      52.525  35.981  54.174  0.00  0.00    -0.038 NA
ATOM     18  N   UNL d   1      53.088  36.086  54.751  0.00  0.00    -0.022 NA
ATOM     19  N   UNL d   1      53.446  35.393  54.900  0.00  0.00    -0.101 NA
BRANCH  16  20
ATOM     20  C   UNL d   1      52.073  34.811  53.402  0.00  0.00     0.087 A 
ATOM     21  C   UNL d   1      51.335  34.514  53.599  0.00  0.00     0.019 A 
ATOM     22  C   UNL d   1      50.859  34.141  53.025  0.00  0.00     0.002 A 
ATOM     23  C   UNL d   1      51.127  34.066  52.249  0.00  0.00     0.000 A 
ATOM     24  C   UNL d   1      51.875  34.368  52.055  0.00  0.00     0.002 A 
ATOM     25  C   UNL d   1      52.348  34.740  52.628  0.00  0.00     0.019 A 
ENDBRANCH  16  20
ENDBRANCH  14  15
ENDBRANCH   1  14
TORSDOF 7
ENDMDL
MODEL 3
REMARK VINA RESULT:      -7.4      1.534      2.028
REMARK  7 active torsions:
REMARK  status: ('A' for Active; 'I' for Inactive)
REMARK    1  A    between atoms: C_10  and  N_1 
REMARK    2  A    between atoms: S_12  and  C_2 
REMARK    3  A    between atoms: S_3  and  N_11 
REMARK    4  A    between atoms: C_7  and  S_3 
REMARK    5  A    between atoms: N_11  and  C_15 
REMARK    6  A    between atoms: C_19  and  S_12 
REMARK    7  A    between atoms: C_15  and  C_19 
ROOT
ATOM      1  C   UNL d   1      51.920  34.563  53.139  0.00  0.00     0.060 C 
ENDROOT
BRANCH   1   2
ATOM      2  C   UNL d   1      51.135  34.370  53.085  0.00  0.00     0.119 C 
BRANCH   2   3
ATOM      3  N   UNL d   1      50.782  34.225  52.346  0.00  0.00    -0.156 NA
BRANCH   3   4
ATOM      4  S   UNL d   1      50.022  34.505  52.189  0.00  0.00     0.285 S 
ATOM      5  O   UNL d   1      50.171  34.464  51.348  0.00  0.00    -0.198 OA
ATOM      6  O   UNL d   1      49.852  34.554  53.002  0.00  0.00    -0.198 OA
BRANCH   4   7
ATOM      7  C   UNL d   1      49.248  34.790  52.010  0.00  0.00     0.105 A 
ATOM      8  C   UNL d   1      48.911  34.571  51.302  0.00  0.00     0.013 A 
ATOM      9  C   UNL d   1      48.165  34.839  51.117  0.00  0.00     0.001 A 
ATOM     10  C   UNL d   1      47.753  35.331  51.646  0.00  0.00     0.000 A 
ATOM     11  C   UNL d   1      48.104  35.539  52.348  0.00  0.00     0.001 A 
ATOM     12  C   UNL d   1      46.983  35.605  51.452  0.00  0.00     0.000 C 
ATOM     13  C   UNL d   1      48.836  35.282  52.539  0.00  0.00     0.013 A 
ENDBRANCH   4   7
ENDBRANCH   3   4
ENDBRANCH   2   3
ENDBRANCH   1   2
BRANCH   1  14
ATOM     14  S   UNL d   1      52.414  34.156  53.618  0.00  0.00    -0.045 SA
BRANCH  14  15
ATOM     15  C   UNL d   1      52.942  34.547  54.110  0.00  0.00     0.219 A 
ATOM     16  N   UNL d   1      53.588  34.155  54.394  0.00  0.00    -0.186 N 
ATOM     17  N   UNL d   1      54.020  34.675  54.870  0.00  0.00    -0.038 NA
ATOM     18  N   UNL d   1      53.620  35.383  54.864  0.00  0.00    -0.022 NA
ATOM     19  N   UNL d   1      52.972  35.316  54.410  0.00  0.00    -0.101 NA
BRANCH  16  20
ATOM     20  C   UNL d   1      53.778  33.369  54.233  0.00  0.00     0.087 A 
ATOM     21  C   UNL d   1      54.183  33.164  53.551  0.00  0.00     0.019 A 
ATOM     22  C   UNL d   1      54.373  32.368  53.392  0.00  0.00     0.002 A 
ATOM     23  C   UNL d   1      54.155  31.775  53.922  0.00  0.00     0.000 A 
ATOM     24  C   UNL d   1      53.746  31.989  54.611  0.00  0.00     0.002 A 
ATOM     25  C   UNL d   1      53.557  32.782  54.768  0.00  0.00     0.019 A 
ENDBRANCH  16  20
ENDBRANCH  14  15
ENDBRANCH   1  14
TORSDOF 7
ENDMDL
MODEL 4
REMARK VINA RESULT:      -7.0      2.690      4.635
REMARK  7 active torsions:
REMARK  status: ('A' for Active; 'I' for Inactive)
REMARK    1  A    between atoms: C_10  and  N_1 
REMARK    2  A    between atoms: S_12  and  C_2 
REMARK    3  A    between atoms: S_3  and  N_11 
REMARK    4  A    between atoms: C_7  and  S_3 
REMARK    5  A    between atoms: N_11  and  C_15 
REMARK    6  A    between atoms: C_19  and  S_12 
REMARK    7  A    between atoms: C_15  and  C_19 
ROOT
ATOM      1  C   UNL d   1      52.335  33.400  52.938  0.00  0.00     0.060 C 
ENDROOT
BRANCH   1   2
ATOM      2  C   UNL d   1      52.110  32.623  52.985  0.00  0.00     0.119 C 
BRANCH   2   3
ATOM      3  N   UNL d   1      52.528  32.033  52.573  0.00  0.00    -0.156 NA
BRANCH   3   4
ATOM      4  S   UNL d   1      52.698  31.315  52.941  0.00  0.00     0.285 S 
ATOM      5  O   UNL d   1      53.502  31.348  52.651  0.00  0.00    -0.198 OA
ATOM      6  O   UNL d   1      51.922  31.260  53.236  0.00  0.00    -0.198 OA
BRANCH   4   7
ATOM      7  C   UNL d   1      52.890  30.581  53.311  0.00  0.00     0.105 A 
ATOM      8  C   UNL d   1      53.583  30.534  53.737  0.00  0.00     0.013 A 
ATOM      9  C   UNL d   1      53.781  29.832  54.099  0.00  0.00     0.001 A 
ATOM     10  C   UNL d   1      53.280  29.172  54.034  0.00  0.00     0.000 A 
ATOM     11  C   UNL d   1      52.594  29.236  53.606  0.00  0.00     0.001 A 
ATOM     12  C   UNL d   1      53.488  28.449  54.409  0.00  0.00     0.000 C 
ATOM     13  C   UNL d   1      52.390  29.920  53.247  0.00  0.00     0.013 A 
ENDBRANCH   4   7
ENDBRANCH   3   4
ENDBRANCH   2   3
ENDBRANCH   1   2
BRANCH   1  14
ATOM     14  S   UNL d   1      52.849  33.714  53.464  0.00  0.00    -0.045 SA
BRANCH  14  15
ATOM     15  C   UNL d   1      52.760  34.484  53.734  0.00  0.00     0.219 A 
ATOM     16  N   UNL d   1      53.259  34.768  54.301  0.00  0.00    -0.186 N 
ATOM     17  N   UNL d   1      53.046  35.550  54.468  0.00  0.00    -0.038 NA
ATOM     18  N   UNL d   1      52.412  35.725  53.990  0.00  0.00    -0.022 NA
ATOM     19  N   UNL d   1      52.233  35.091  53.546  0.00  0.00    -0.101 NA
BRANCH  16  20
ATOM     20  C   UNL d   1      53.874  34.346  54.651  0.00  0.00     0.087 A 
ATOM     21  C   UNL d   1      54.615  34.315  54.303  0.00  0.00     0.019 A 
ATOM     22  C   UNL d   1      55.235  33.887  54.660  0.00  0.00     0.002 A 
ATOM     23  C   UNL d   1      55.109  33.488  55.371  0.00  0.00     0.000 A 
ATOM     24  C   UNL d   1      54.357  33.523  55.718  0.00  0.00     0.002 A 
ATOM     25  C   UNL d   1      53.740  33.950  55.361  0.00  0.00     0.019 A 
ENDBRANCH  16  20
ENDBRANCH  14  15
ENDBRANCH   1  14
TORSDOF 7
ENDMDL
