MODEL 1
REMARK VINA RESULT:      -5.7      0.000      0.000
REMARK  7 active torsions:
REMARK  status: ('A' for Active; 'I' for Inactive)
REMARK    1  A    between atoms: N_6  and  C_1 
REMARK    2  A    between atoms: S_9  and  C_3 
REMARK       I    between atoms: C_7  and  N_6 
REMARK    3  A    between atoms: C_14  and  C_7 
REMARK    4  A    between atoms: C_8  and  C_13 
REMARK       I    between atoms: N_10  and  C_8 
REMARK    5  A    between atoms: C_13  and  S_9 
REMARK    6  A    between atoms: C_15  and  N_10 
REMARK    7  A    between atoms: C_22  and  C_14 
ROOT
ATOM      1  C   UNL d   1     -42.021-122.709 -50.225  0.00  0.00     0.219 A 
ATOM      2  S   UNL d   1     -41.479-122.740 -50.836  0.00  0.00    -0.019 SA
ATOM      3  C   UNL d   1     -41.737-122.282 -51.420  0.00  0.00     0.165 A 
ATOM      4  N   UNL d   1     -42.627-122.199 -50.479  0.00  0.00    -0.120 NA
ATOM      5  N   UNL d   1     -42.456-121.943 -51.198  0.00  0.00    -0.133 NA
ENDROOT
BRANCH   3   6
ATOM      6  S   UNL d   1     -41.284-122.207 -52.130  0.00  0.00    -0.054 SA
BRANCH   6   7
ATOM      7  C   UNL d   1     -41.599-122.465 -52.850  0.00  0.00     0.100 C 
BRANCH   7   8
ATOM      8  C   UNL d   1     -41.400-123.206 -53.153  0.00  0.00     0.286 C 
ATOM      9  N   UNL d   1     -41.466-123.354 -53.942  0.00  0.00    -0.208 NA
ATOM     10  O   UNL d   1     -41.125-123.817 -52.634  0.00  0.00    -0.265 OA
BRANCH   9  11
ATOM     11  C   UNL d   1     -41.743-122.735 -54.461  0.00  0.00     0.085 A 
ATOM     12  C   UNL d   1     -41.223-122.463 -55.030  0.00  0.00     0.021 A 
ATOM     13  C   UNL d   1     -41.478-121.865 -55.537  0.00  0.00     0.031 A 
ATOM     14  C   UNL d   1     -42.222-121.550 -55.482  0.00  0.00     0.140 A 
ATOM     15  C   UNL d   1     -42.754-121.834 -54.895  0.00  0.00     0.031 A 
ATOM     16  F   UNL d   1     -42.452-121.003 -55.950  0.00  0.00    -0.204 F 
ATOM     17  C   UNL d   1     -42.507-122.434 -54.380  0.00  0.00     0.021 A 
ENDBRANCH   9  11
ENDBRANCH   7   8
ENDBRANCH   6   7
ENDBRANCH   3   6
BRANCH   1  18
ATOM     18  N   UNL d   1     -42.009-123.092 -49.484  0.00  0.00    -0.181 NA
ATOM     19  C   UNL d   1     -42.342-123.128 -48.705  0.00  0.00     0.281 C 
ATOM     20  O   UNL d   1     -42.939-122.599 -48.502  0.00  0.00    -0.265 OA
BRANCH  19  21
ATOM     21  C   UNL d   1     -42.152-123.638 -48.086  0.00  0.00     0.063 C 
BRANCH  21  22
ATOM     22  C   UNL d   1     -42.112-123.287 -47.257  0.00  0.00     0.005 C 
ATOM     23  C   UNL d   1     -41.405-122.884 -47.063  0.00  0.00     0.000 C 
ATOM     24  C   UNL d   1     -42.574-123.297 -46.750  0.00  0.00     0.000 C 
ENDBRANCH  21  22
ENDBRANCH  19  21
ENDBRANCH   1  18
TORSDOF 7
ENDMDL
MODEL 2
REMARK VINA RESULT:      -5.5      2.221      5.884
REMARK  7 active torsions:
REMARK  status: ('A' for Active; 'I' for Inactive)
REMARK    1  A    between atoms: N_6  and  C_1 
REMARK    2  A    between atoms: S_9  and  C_3 
REMARK       I    between atoms: C_7  and  N_6 
REMARK    3  A    between atoms: C_14  and  C_7 
REMARK    4  A    between atoms: C_8  and  C_13 
REMARK       I    between atoms: N_10  and  C_8 
REMARK    5  A    between atoms: C_13  and  S_9 
REMARK    6  A    between atoms: C_15  and  N_10 
REMARK    7  A    between atoms: C_22  and  C_14 
ROOT
ATOM      1  C   UNL d   1     -41.237-122.018 -52.626  0.00  0.00     0.219 A 
ATOM      2  S   UNL d   1     -41.290-122.696 -52.173  0.00  0.00    -0.019 SA
ATOM      3  C   UNL d   1     -41.235-122.493 -51.415  0.00  0.00     0.165 A 
ATOM      4  N   UNL d   1     -41.145-121.388 -52.091  0.00  0.00    -0.120 NA
ATOM      5  N   UNL d   1     -41.144-121.674 -51.363  0.00  0.00    -0.133 NA
ENDROOT
BRANCH   3   6
ATOM      6  S   UNL d   1     -41.272-123.086 -50.815  0.00  0.00    -0.054 SA
BRANCH   6   7
ATOM      7  C   UNL d   1     -41.782-122.990 -50.171  0.00  0.00     0.100 C 
BRANCH   7   8
ATOM      8  C   UNL d   1     -42.432-123.489 -50.073  0.00  0.00     0.286 C 
ATOM      9  N   UNL d   1     -42.702-123.666 -49.336  0.00  0.00    -0.208 NA
ATOM     10  O   UNL d   1     -42.820-123.817 -50.751  0.00  0.00    -0.265 OA
BRANCH   9  11
ATOM     11  C   UNL d   1     -42.307-123.333 -48.655  0.00  0.00     0.085 A 
ATOM     12  C   UNL d   1     -42.779-123.065 -48.044  0.00  0.00     0.021 A 
ATOM     13  C   UNL d   1     -42.410-122.740 -47.382  0.00  0.00     0.031 A 
ATOM     14  C   UNL d   1     -41.604-122.685 -47.328  0.00  0.00     0.140 A 
ATOM     15  C   UNL d   1     -41.123-122.962 -47.960  0.00  0.00     0.031 A 
ATOM     16  F   UNL d   1     -41.270-122.387 -46.719  0.00  0.00    -0.204 F 
ATOM     17  C   UNL d   1     -41.483-123.290 -48.631  0.00  0.00     0.021 A 
ENDBRANCH   9  11
ENDBRANCH   7   8
ENDBRANCH   6   7
ENDBRANCH   3   6
BRANCH   1  18
ATOM     18  N   UNL d   1     -41.264-121.930 -53.456  0.00  0.00    -0.181 NA
ATOM     19  C   UNL d   1     -41.760-121.858 -54.139  0.00  0.00     0.281 C 
ATOM     20  O   UNL d   1     -42.577-121.869 -54.042  0.00  0.00    -0.265 OA
BRANCH  19  21
ATOM     21  C   UNL d   1     -41.540-121.774 -54.930  0.00  0.00     0.063 C 
BRANCH  21  22
ATOM     22  C   UNL d   1     -42.172-121.922 -55.554  0.00  0.00     0.005 C 
ATOM     23  C   UNL d   1     -42.262-121.327 -56.135  0.00  0.00     0.000 C 
ATOM     24  C   UNL d   1     -42.600-122.453 -55.632  0.00  0.00     0.000 C 
ENDBRANCH  21  22
ENDBRANCH  19  21
ENDBRANCH   1  18
TORSDOF 7
ENDMDL
