MODEL 1
REMARK VINA RESULT:      -5.2      0.000      0.000
REMARK  1 active torsions:
REMARK  status: ('A' for Active; 'I' for Inactive)
REMARK    1  A    between atoms: C_6  and  N_1 
ROOT
ATOM      1  C   UNL d   1     -41.493-122.644 -53.391  0.00  0.00     0.086 A 
ATOM      2  C   UNL d   1     -41.485-122.180 -52.716  0.00  0.00     0.023 A 
ATOM      3  C   UNL d   1     -41.377-123.459 -53.336  0.00  0.00     0.023 A 
ATOM      4  C   UNL d   1     -41.247-123.335 -51.919  0.00  0.00     0.196 A 
ATOM      5  C   UNL d   1     -41.254-123.806 -52.597  0.00  0.00     0.044 A 
ATOM      6  C   UNL d   1     -41.362-122.526 -51.978  0.00  0.00     0.044 A 
ATOM      7  O   UNL d   1     -41.123-123.680 -51.184  0.00  0.00    -0.287 OA
ENDROOT
BRANCH   1   8
ATOM      8  N   UNL d   1     -41.616-122.296 -54.120  0.00  0.00    -0.189 N 
ATOM      9  N   UNL d   1     -41.124-122.360 -54.780  0.00  0.00    -0.038 NA
ATOM     10  N   UNL d   1     -41.463-121.921 -55.391  0.00  0.00    -0.022 NA
ATOM     11  N   UNL d   1     -42.153-121.592 -55.114  0.00  0.00    -0.104 NA
ATOM     12  C   UNL d   1     -42.253-121.821 -54.326  0.00  0.00     0.226 A 
ENDBRANCH   1   8
TORSDOF 1
ENDMDL
MODEL 2
REMARK VINA RESULT:      -4.3      2.148      2.817
REMARK  1 active torsions:
REMARK  status: ('A' for Active; 'I' for Inactive)
REMARK    1  A    between atoms: C_6  and  N_1 
ROOT
ATOM      1  C   UNL d   1     -41.696-122.747 -50.711  0.00  0.00     0.086 A 
ATOM      2  C   UNL d   1     -42.401-122.515 -50.365  0.00  0.00     0.023 A 
ATOM      3  C   UNL d   1     -41.133-123.160 -50.270  0.00  0.00     0.023 A 
ATOM      4  C   UNL d   1     -41.996-123.103 -49.133  0.00  0.00     0.196 A 
ATOM      5  C   UNL d   1     -41.283-123.339 -49.479  0.00  0.00     0.044 A 
ATOM      6  C   UNL d   1     -42.552-122.693 -49.573  0.00  0.00     0.044 A 
ATOM      7  O   UNL d   1     -42.145-123.281 -48.346  0.00  0.00    -0.287 OA
ENDROOT
BRANCH   1   8
ATOM      8  N   UNL d   1     -41.551-122.568 -51.495  0.00  0.00    -0.189 N 
ATOM      9  N   UNL d   1     -41.794-123.008 -52.149  0.00  0.00    -0.038 NA
ATOM     10  N   UNL d   1     -41.526-122.623 -52.827  0.00  0.00    -0.022 NA
ATOM     11  N   UNL d   1     -41.124-121.955 -52.596  0.00  0.00    -0.104 NA
ATOM     12  C   UNL d   1     -41.136-121.915 -51.771  0.00  0.00     0.226 A 
ENDBRANCH   1   8
TORSDOF 1
ENDMDL
MODEL 3
REMARK VINA RESULT:      -3.9      3.048      3.872
REMARK  1 active torsions:
REMARK  status: ('A' for Active; 'I' for Inactive)
REMARK    1  A    between atoms: C_6  and  N_1 
ROOT
ATOM      1  C   UNL d   1     -41.554-122.872 -50.866  0.00  0.00     0.086 A 
ATOM      2  C   UNL d   1     -41.640-122.092 -51.100  0.00  0.00     0.023 A 
ATOM      3  C   UNL d   1     -41.324-123.447 -51.413  0.00  0.00     0.023 A 
ATOM      4  C   UNL d   1     -41.270-122.445 -52.429  0.00  0.00     0.196 A 
ATOM      5  C   UNL d   1     -41.182-123.232 -52.197  0.00  0.00     0.044 A 
ATOM      6  C   UNL d   1     -41.498-121.878 -51.884  0.00  0.00     0.044 A 
ATOM      7  O   UNL d   1     -41.128-122.232 -53.209  0.00  0.00    -0.287 OA
ENDROOT
BRANCH   1   8
ATOM      8  N   UNL d   1     -41.696-123.080 -50.089  0.00  0.00    -0.189 N 
ATOM      9  N   UNL d   1     -42.436-123.160 -49.732  0.00  0.00    -0.038 NA
ATOM     10  N   UNL d   1     -42.315-123.377 -48.945  0.00  0.00    -0.022 NA
ATOM     11  N   UNL d   1     -41.514-123.431 -48.818  0.00  0.00    -0.104 NA
ATOM     12  C   UNL d   1     -41.124-123.248 -49.523  0.00  0.00     0.226 A 
ENDBRANCH   1   8
TORSDOF 1
ENDMDL
MODEL 4
REMARK VINA RESULT:      -3.3      2.071      3.058
REMARK  1 active torsions:
REMARK  status: ('A' for Active; 'I' for Inactive)
REMARK    1  A    between atoms: C_6  and  N_1 
ROOT
ATOM      1  C   UNL d   1     -41.729-122.581 -53.865  0.00  0.00     0.086 A 
ATOM      2  C   UNL d   1     -41.373-122.873 -54.543  0.00  0.00     0.023 A 
ATOM      3  C   UNL d   1     -42.262-121.953 -53.914  0.00  0.00     0.023 A 
ATOM      4  C   UNL d   1     -42.075-121.916 -55.329  0.00  0.00     0.196 A 
ATOM      5  C   UNL d   1     -42.436-121.619 -54.648  0.00  0.00     0.044 A 
ATOM      6  C   UNL d   1     -41.547-122.539 -55.277  0.00  0.00     0.044 A 
ATOM      7  O   UNL d   1     -42.248-121.584 -56.060  0.00  0.00    -0.287 OA
ENDROOT
BRANCH   1   8
ATOM      8  N   UNL d   1     -41.554-122.914 -53.140  0.00  0.00    -0.189 N 
ATOM      9  N   UNL d   1     -41.711-123.691 -52.909  0.00  0.00    -0.038 NA
ATOM     10  N   UNL d   1     -41.441-123.784 -52.135  0.00  0.00    -0.022 NA
ATOM     11  N   UNL d   1     -41.122-123.077 -51.891  0.00  0.00    -0.104 NA
ATOM     12  C   UNL d   1     -41.189-122.533 -52.510  0.00  0.00     0.226 A 
ENDBRANCH   1   8
TORSDOF 1
ENDMDL
MODEL 5
REMARK VINA RESULT:      -3.1      4.628      5.528
REMARK  1 active torsions:
REMARK  status: ('A' for Active; 'I' for Inactive)
REMARK    1  A    between atoms: C_6  and  N_1 
ROOT
ATOM      1  C   UNL d   1     -41.957-123.080 -48.781  0.00  0.00     0.086 A 
ATOM      2  C   UNL d   1     -42.615-122.796 -49.178  0.00  0.00     0.023 A 
ATOM      3  C   UNL d   1     -41.268-123.265 -49.197  0.00  0.00     0.023 A 
ATOM      4  C   UNL d   1     -41.910-122.876 -50.412  0.00  0.00     0.196 A 
ATOM      5  C   UNL d   1     -41.245-123.163 -50.016  0.00  0.00     0.044 A 
ATOM      6  C   UNL d   1     -42.591-122.694 -49.996  0.00  0.00     0.044 A 
ATOM      7  O   UNL d   1     -41.886-122.774 -51.227  0.00  0.00    -0.287 OA
ENDROOT
BRANCH   1   8
ATOM      8  N   UNL d   1     -41.985-123.181 -47.971  0.00  0.00    -0.189 N 
ATOM      9  N   UNL d   1     -42.363-122.685 -47.430  0.00  0.00    -0.038 NA
ATOM     10  N   UNL d   1     -42.248-122.999 -46.676  0.00  0.00    -0.022 NA
ATOM     11  N   UNL d   1     -41.805-123.677 -46.748  0.00  0.00    -0.104 NA
ATOM     12  C   UNL d   1     -41.639-123.795 -47.549  0.00  0.00     0.226 A 
ENDBRANCH   1   8
TORSDOF 1
ENDMDL
