MODEL 1
REMARK VINA RESULT:      25.3      0.000      0.000
REMARK  7 active torsions:
REMARK  status: ('A' for Active; 'I' for Inactive)
REMARK    1  A    between atoms: C_7  and  C_1 
REMARK    2  A    between atoms: N_5  and  C_2 
REMARK       I    between atoms: C_8  and  N_5 
REMARK    3  A    between atoms: N_9  and  C_7 
REMARK    4  A    between atoms: C_12  and  C_7 
REMARK    5  A    between atoms: C_10  and  C_8 
REMARK    6  A    between atoms: C_26  and  N_11 
REMARK    7  A    between atoms: C_30  and  C_26 
ROOT
ATOM      1  C   UNL d   1     -42.447-122.237 -50.951  0.00  0.00     0.068 C 
ENDROOT
BRANCH   1   2
ATOM      2  C   UNL d   1     -41.954-122.372 -51.637  0.00  0.00     0.041 A 
ATOM      3  C   UNL d   1     -41.444-121.901 -52.056  0.00  0.00     0.115 A 
ATOM      4  S   UNL d   1     -41.133-122.365 -52.666  0.00  0.00    -0.068 SA
ATOM      5  C   UNL d   1     -41.434-123.123 -52.646  0.00  0.00     0.031 A 
ATOM      6  C   UNL d   1     -41.969-123.145 -51.983  0.00  0.00     0.009 A 
ATOM      7  C   UNL d   1     -41.257-123.737 -53.161  0.00  0.00     0.007 C 
ATOM      8  C   UNL d   1     -42.405-123.798 -51.742  0.00  0.00     0.001 C 
BRANCH   3   9
ATOM      9  N   UNL d   1     -41.262-121.116 -51.913  0.00  0.00    -0.200 NA
ATOM     10  C   UNL d   1     -41.574-120.537 -52.414  0.00  0.00     0.302 C 
ATOM     11  O   UNL d   1     -42.059-120.755 -53.045  0.00  0.00    -0.263 OA
BRANCH  10  12
ATOM     12  C   UNL d   1     -41.408-119.738 -52.294  0.00  0.00     0.158 A 
ATOM     13  O   UNL d   1     -41.266-119.323 -51.579  0.00  0.00    -0.300 OA
ATOM     14  C   UNL d   1     -41.129-118.533 -51.785  0.00  0.00     0.123 A 
ATOM     15  C   UNL d   1     -41.188-118.481 -52.598  0.00  0.00     0.029 A 
ATOM     16  C   UNL d   1     -41.359-119.213 -52.930  0.00  0.00     0.032 A 
ENDBRANCH  10  12
ENDBRANCH   3   9
ENDBRANCH   1   2
BRANCH   1  17
ATOM     17  N   UNL d   1     -42.107-122.381 -50.179  0.00  0.00    -0.301 N 
ATOM     18  C   UNL d   1     -42.172-123.139 -49.864  0.00  0.00     0.100 A 
ATOM     19  C   UNL d   1     -41.845-123.278 -49.122  0.00  0.00     0.100 A 
ATOM     20  N   UNL d   1     -41.454-122.663 -48.697  0.00  0.00    -0.297 N 
ATOM     21  C   UNL d   1     -41.404-121.930 -49.028  0.00  0.00     0.100 A 
ATOM     22  C   UNL d   1     -41.716-121.766 -49.753  0.00  0.00     0.100 A 
BRANCH  20  23
ATOM     23  C   UNL d   1     -41.124-122.824 -47.937  0.00  0.00     0.126 C 
BRANCH  23  24
ATOM     24  C   UNL d   1     -41.544-122.614 -47.235  0.00  0.00     0.253 C 
ATOM     25  O   UNL d   1     -41.301-121.952 -46.778  0.00  0.00    -0.281 OA
ENDBRANCH  23  24
ENDBRANCH  20  23
ENDBRANCH   1  17
BRANCH   1  26
ATOM     26  C   UNL d   1     -43.239-121.972 -51.032  0.00  0.00     0.035 A 
ATOM     27  C   UNL d   1     -43.724-122.330 -51.611  0.00  0.00     0.100 A 
ATOM     28  N   UNL d   1     -44.520-122.064 -51.693  0.00  0.00    -0.242 NA
ATOM     29  C   UNL d   1     -44.783-121.456 -51.191  0.00  0.00     0.099 A 
ATOM     30  C   UNL d   1     -44.311-121.114 -50.633  0.00  0.00     0.021 A 
ATOM     31  C   UNL d   1     -43.516-121.381 -50.552  0.00  0.00     0.005 A 
ENDBRANCH   1  26
TORSDOF 7
ENDMDL
