MODEL 1
REMARK VINA RESULT:      37.9      0.000      0.000
REMARK  2 active torsions:
REMARK  status: ('A' for Active; 'I' for Inactive)
REMARK    1  A    between atoms: C_2  and  N_1 
REMARK    2  A    between atoms: N_8  and  C_3 
REMARK       I    between atoms: C_12  and  N_8 
ROOT
ATOM      1  N   UNL d   1      13.476  12.412  -3.409  0.00  0.00    -0.189 N 
ATOM      2  C   UNL d   1      13.444  13.135  -3.810  0.00  0.00     0.171 A 
ATOM      3  N   UNL d   1      13.240  11.812  -3.930  0.00  0.00    -0.162 NA
ATOM      4  C   UNL d   1      13.187  12.979  -4.581  0.00  0.00     0.060 A 
ATOM      5  C   UNL d   1      13.062  12.169  -4.655  0.00  0.00     0.105 A 
ATOM      6  C   UNL d   1      12.802  11.779  -5.338  0.00  0.00     0.023 C 
ENDROOT
BRANCH   1   7
ATOM      7  C   UNL d   1      13.695  12.271  -2.639  0.00  0.00     0.197 A 
ATOM      8  N   UNL d   1      14.491  12.316  -2.424  0.00  0.00    -0.221 NA
ATOM      9  C   UNL d   1      14.540  12.146  -1.606  0.00  0.00     0.090 A 
ATOM     10  C   UNL d   1      15.161  12.105  -1.086  0.00  0.00     0.020 A 
ATOM     11  C   UNL d   1      13.767  12.002  -1.349  0.00  0.00     0.050 A 
ATOM     12  C   UNL d   1      15.035  11.920  -0.289  0.00  0.00     0.002 A 
ATOM     13  C   UNL d   1      14.273  11.779  -0.038  0.00  0.00     0.001 A 
ATOM     14  C   UNL d   1      13.635  11.818  -0.560  0.00  0.00     0.008 A 
ATOM     15  S   UNL d   1      13.258  12.082  -1.988  0.00  0.00    -0.047 SA
ENDBRANCH   1   7
BRANCH   2  16
ATOM     16  N   UNL d   1      13.633  13.880  -3.502  0.00  0.00    -0.189 NA
ATOM     17  C   UNL d   1      13.342  14.541  -3.868  0.00  0.00     0.281 C 
ATOM     18  O   UNL d   1      13.529  15.288  -3.563  0.00  0.00    -0.265 OA
ATOM     19  C   UNL d   1      12.866  14.494  -4.533  0.00  0.00     0.068 C 
ENDBRANCH   2  16
TORSDOF 2
ENDMDL
