MODEL 1
REMARK VINA RESULT:      87.0      0.000      0.000
REMARK  4 active torsions:
REMARK  status: ('A' for Active; 'I' for Inactive)
REMARK    1  A    between atoms: C_7  and  C_1 
REMARK    2  A    between atoms: C_13  and  N_2 
REMARK    3  A    between atoms: C_8  and  C_7 
REMARK    4  A    between atoms: N_9  and  C_14 
ROOT
ATOM      1  N   UNL d   1      61.144  47.666  50.589  0.00  0.00    -0.242 N 
ATOM      2  C   UNL d   1      61.700  48.055  50.107  0.00  0.00     0.267 A 
ATOM      3  C   UNL d   1      60.628  48.239  50.886  0.00  0.00     0.267 A 
ATOM      4  C   UNL d   1      60.859  48.975  50.593  0.00  0.00     0.062 A 
ATOM      5  C   UNL d   1      61.520  48.862  50.112  0.00  0.00     0.066 A 
ATOM      6  O   UNL d   1      62.315  47.694  49.702  0.00  0.00    -0.267 OA
ATOM      7  O   UNL d   1      59.990  48.093  51.391  0.00  0.00    -0.267 OA
ENDROOT
BRANCH   4   8
ATOM      8  C   UNL d   1      60.493  49.696  50.752  0.00  0.00     0.018 C 
BRANCH   8   9
ATOM      9  C   UNL d   1      59.692  49.694  50.590  0.00  0.00     0.045 A 
ATOM     10  N   UNL d   1      59.348  49.696  49.845  0.00  0.00    -0.308 N 
ATOM     11  C   UNL d   1      58.536  49.693  49.930  0.00  0.00     0.060 A 
ATOM     12  C   UNL d   1      59.758  49.700  49.128  0.00  0.00     0.099 C 
ATOM     13  C   UNL d   1      57.927  49.694  49.386  0.00  0.00     0.017 A 
ATOM     14  C   UNL d   1      58.368  49.690  50.734  0.00  0.00    -0.002 A 
ATOM     15  C   UNL d   1      57.138  49.690  49.644  0.00  0.00     0.002 A 
ATOM     16  C   UNL d   1      56.980  49.687  50.455  0.00  0.00    -0.000 A 
ATOM     17  C   UNL d   1      57.588  49.686  50.994  0.00  0.00    -0.003 A 
ATOM     18  C   UNL d   1      59.085  49.690  51.144  0.00  0.00     0.054 A 
ATOM     19  C   UNL d   1      59.126  49.687  51.971  0.00  0.00     0.010 C 
ATOM     20  C   UNL d   1      58.388  49.686  51.592  0.00  0.00     0.010 C 
ENDBRANCH   8   9
ENDBRANCH   4   8
BRANCH   1  21
ATOM     21  C   UNL d   1      61.113  46.864  50.743  0.00  0.00     0.070 A 
ATOM     22  C   UNL d   1      61.205  46.315  50.129  0.00  0.00     0.019 A 
ATOM     23  C   UNL d   1      61.172  45.510  50.291  0.00  0.00     0.025 A 
ATOM     24  C   UNL d   1      61.049  45.249  51.058  0.00  0.00     0.127 A 
ATOM     25  C   UNL d   1      60.957  45.798  51.673  0.00  0.00     0.025 A 
ATOM     26  C   UNL d   1      60.989  46.604  51.516  0.00  0.00     0.019 A 
BRANCH  24  27
ATOM     27  N   UNL d   1      61.016  44.443  51.222  0.00  0.00    -0.114 N 
ATOM     28  O   UNL d   1      60.291  44.056  51.261  0.00  0.00    -0.532 OA
ATOM     29  O   UNL d   1      61.709  44.024  51.346  0.00  0.00    -0.532 OA
ENDBRANCH  24  27
ENDBRANCH   1  21
TORSDOF 4
ENDMDL
