MODEL 1
REMARK VINA RESULT:      -5.0      0.000      0.000
REMARK  5 active torsions:
REMARK  status: ('A' for Active; 'I' for Inactive)
REMARK    1  A    between atoms: N_2  and  S_1 
REMARK    2  A    between atoms: C_5  and  S_1 
REMARK    3  A    between atoms: S_8  and  C_3 
REMARK    4  A    between atoms: C_13  and  S_8 
REMARK    5  A    between atoms: C_15  and  C_13 
ROOT
ATOM      1  N   UNL d   1      58.949   0.078  29.669  0.00  0.00    -0.208 N 
ATOM      2  C   UNL d   1      58.706   0.258  30.444  0.00  0.00     0.189 A 
ATOM      3  N   UNL d   1      59.347   0.598  30.843  0.00  0.00    -0.219 NA
ATOM      4  C   UNL d   1      59.745   0.308  29.592  0.00  0.00     0.114 A 
ATOM      5  C   UNL d   1      59.985   0.627  30.315  0.00  0.00     0.121 A 
ENDROOT
BRANCH   1   6
ATOM      6  S   UNL d   1      58.478  -0.270  29.082  0.00  0.00     0.273 S 
ATOM      7  O   UNL d   1      57.865  -0.414  28.545  0.00  0.00    -0.200 OA
ATOM      8  O   UNL d   1      57.958   0.355  29.180  0.00  0.00    -0.200 OA
BRANCH   6   9
ATOM      9  C   UNL d   1      58.991  -0.908  28.969  0.00  0.00     0.104 A 
ATOM     10  C   UNL d   1      59.712  -0.784  28.600  0.00  0.00     0.015 A 
ATOM     11  C   UNL d   1      60.222  -1.421  28.489  0.00  0.00     0.030 A 
ATOM     12  C   UNL d   1      60.004  -2.175  28.748  0.00  0.00     0.140 A 
ATOM     13  C   UNL d   1      59.280  -2.296  29.118  0.00  0.00     0.030 A 
ATOM     14  F   UNL d   1      60.517  -2.814  28.636  0.00  0.00    -0.204 F 
ATOM     15  C   UNL d   1      58.769  -1.655  29.229  0.00  0.00     0.015 A 
ENDBRANCH   6   9
ENDBRANCH   1   6
BRANCH   2  16
ATOM     16  S   UNL d   1      57.948   0.121  30.762  0.00  0.00    -0.049 SA
BRANCH  16  17
ATOM     17  C   UNL d   1      57.739   0.462  31.484  0.00  0.00     0.038 C 
BRANCH  17  18
ATOM     18  C   UNL d   1      57.094   0.157  31.912  0.00  0.00     0.007 A 
ATOM     19  C   UNL d   1      57.048  -0.655  32.082  0.00  0.00     0.001 A 
ATOM     20  C   UNL d   1      56.414  -0.960  32.504  0.00  0.00     0.000 A 
ATOM     21  C   UNL d   1      55.816  -0.454  32.760  0.00  0.00     0.000 A 
ATOM     22  C   UNL d   1      55.859   0.357  32.592  0.00  0.00     0.000 A 
ATOM     23  C   UNL d   1      55.176  -0.753  33.184  0.00  0.00     0.000 C 
ATOM     24  C   UNL d   1      56.496   0.659  32.169  0.00  0.00     0.001 A 
ENDBRANCH  17  18
ENDBRANCH  16  17
ENDBRANCH   2  16
TORSDOF 5
ENDMDL
MODEL 2
REMARK VINA RESULT:      -3.0      2.807      5.290
REMARK  5 active torsions:
REMARK  status: ('A' for Active; 'I' for Inactive)
REMARK    1  A    between atoms: N_2  and  S_1 
REMARK    2  A    between atoms: C_5  and  S_1 
REMARK    3  A    between atoms: S_8  and  C_3 
REMARK    4  A    between atoms: C_13  and  S_8 
REMARK    5  A    between atoms: C_15  and  C_13 
ROOT
ATOM      1  N   UNL d   1      56.515  -0.552  32.936  0.00  0.00    -0.208 N 
ATOM      2  C   UNL d   1      56.712  -0.687  32.140  0.00  0.00     0.189 A 
ATOM      3  N   UNL d   1      56.349  -1.391  31.900  0.00  0.00    -0.219 NA
ATOM      4  C   UNL d   1      56.028  -1.177  33.188  0.00  0.00     0.114 A 
ATOM      5  C   UNL d   1      55.929  -1.690  32.549  0.00  0.00     0.121 A 
ENDROOT
BRANCH   1   6
ATOM      6  S   UNL d   1      56.763   0.093  33.394  0.00  0.00     0.273 S 
ATOM      7  O   UNL d   1      57.233   0.676  33.747  0.00  0.00    -0.200 OA
ATOM      8  O   UNL d   1      57.518  -0.035  33.103  0.00  0.00    -0.200 OA
BRANCH   6   9
ATOM      9  C   UNL d   1      56.008   0.239  33.699  0.00  0.00     0.104 A 
ATOM     10  C   UNL d   1      55.426   0.538  33.206  0.00  0.00     0.015 A 
ATOM     11  C   UNL d   1      54.676   0.682  33.512  0.00  0.00     0.030 A 
ATOM     12  C   UNL d   1      54.516   0.525  34.308  0.00  0.00     0.140 A 
ATOM     13  C   UNL d   1      55.102   0.225  34.800  0.00  0.00     0.030 A 
ATOM     14  F   UNL d   1      53.762   0.670  34.614  0.00  0.00    -0.204 F 
ATOM     15  C   UNL d   1      55.856   0.081  34.491  0.00  0.00     0.015 A 
ENDBRANCH   6   9
ENDBRANCH   1   6
BRANCH   2  16
ATOM     16  S   UNL d   1      57.192  -0.198  31.666  0.00  0.00    -0.049 SA
BRANCH  16  17
ATOM     17  C   UNL d   1      57.211  -0.310  30.848  0.00  0.00     0.038 C 
BRANCH  17  18
ATOM     18  C   UNL d   1      57.923  -0.197  30.434  0.00  0.00     0.007 A 
ATOM     19  C   UNL d   1      58.252   0.563  30.361  0.00  0.00     0.001 A 
ATOM     20  C   UNL d   1      58.954   0.679  29.953  0.00  0.00     0.000 A 
ATOM     21  C   UNL d   1      59.336   0.034  29.612  0.00  0.00     0.000 A 
ATOM     22  C   UNL d   1      59.011  -0.726  29.682  0.00  0.00     0.000 A 
ATOM     23  C   UNL d   1      60.042   0.142  29.201  0.00  0.00     0.000 C 
ATOM     24  C   UNL d   1      58.307  -0.838  30.092  0.00  0.00     0.001 A 
ENDBRANCH  17  18
ENDBRANCH  16  17
ENDBRANCH   2  16
TORSDOF 5
ENDMDL
