MODEL 1
REMARK VINA RESULT:      92.3      0.000      0.000
REMARK  9 active torsions:
REMARK  status: ('A' for Active; 'I' for Inactive)
REMARK    1  A    between atoms: N_8  and  C_1 
REMARK    2  A    between atoms: S_2  and  C_13 
REMARK    3  A    between atoms: N_7  and  S_2 
REMARK    4  A    between atoms: C_12  and  C_3 
REMARK       I    between atoms: C_10  and  N_8 
REMARK       I    between atoms: C_11  and  N_9 
REMARK    5  A    between atoms: C_21  and  C_10 
REMARK    6  A    between atoms: O_33  and  C_11 
REMARK    7  A    between atoms: C_34  and  N_14 
REMARK    8  A    between atoms: C_35  and  O_33 
REMARK    9  A    between atoms: C_36  and  C_34 
ROOT
ATOM      1  C   UNL d   1     -50.705  26.854  34.013  0.00  0.00     0.104 A 
ATOM      2  C   UNL d   1     -49.725  28.180  34.014  0.00  0.00     0.056 A 
ATOM      3  C   UNL d   1     -50.306  27.081  34.704  0.00  0.00     0.013 A 
ATOM      4  C   UNL d   1     -50.610  27.297  33.317  0.00  0.00     0.013 A 
ATOM      5  C   UNL d   1     -49.817  27.741  34.708  0.00  0.00     0.005 A 
ATOM      6  C   UNL d   1     -50.116  27.964  33.323  0.00  0.00     0.005 A 
ENDROOT
BRANCH   2   7
ATOM      7  C   UNL d   1     -49.233  28.847  34.011  0.00  0.00     0.258 C 
ATOM      8  N   UNL d   1     -49.070  29.245  34.724  0.00  0.00    -0.316 N 
ATOM      9  H   UNL d   1     -49.453  28.780  34.948  0.00  0.00     0.169 HD
ATOM     10  O   UNL d   1     -48.901  29.122  33.306  0.00  0.00    -0.267 OA
BRANCH   8  11
ATOM     11  C   UNL d   1     -48.579  29.911  34.722  0.00  0.00     0.094 A 
ATOM     12  C   UNL d   1     -47.956  30.055  35.240  0.00  0.00     0.082 A 
ATOM     13  C   UNL d   1     -47.610  30.779  35.049  0.00  0.00     0.016 A 
ATOM     14  C   UNL d   1     -46.975  31.197  35.375  0.00  0.00     0.020 A 
ATOM     15  C   UNL d   1     -48.016  31.095  34.406  0.00  0.00     0.049 A 
ATOM     16  C   UNL d   1     -46.754  31.923  35.057  0.00  0.00     0.080 A 
ATOM     17  N   UNL d   1     -47.156  32.242  34.416  0.00  0.00    -0.302 N 
ATOM     18  C   UNL d   1     -47.792  31.828  34.086  0.00  0.00     0.087 A 
ATOM     19  S   UNL d   1     -48.619  30.564  34.196  0.00  0.00    -0.068 SA
BRANCH  12  20
ATOM     20  C   UNL d   1     -47.710  29.565  35.852  0.00  0.00     0.299 C 
ATOM     21  O   UNL d   1     -47.354  29.882  36.511  0.00  0.00    -0.264 OA
ATOM     22  N   UNL d   1     -47.825  28.756  35.793  0.00  0.00    -0.102 N 
ENDBRANCH  12  20
BRANCH  17  23
ATOM     23  C   UNL d   1     -46.931  32.968  34.102  0.00  0.00     0.080 C 
BRANCH  23  24
ATOM     24  C   UNL d   1     -47.300  33.266  33.425  0.00  0.00     0.019 C 
ATOM     25  C   UNL d   1     -48.111  33.383  33.421  0.00  0.00     0.002 C 
ENDBRANCH  23  24
ENDBRANCH  17  23
ENDBRANCH   8  11
ENDBRANCH   2   7
BRANCH   1  26
ATOM     26  S   UNL d   1     -51.198  26.187  34.012  0.00  0.00     0.271 S 
ATOM     27  O   UNL d   1     -51.812  26.685  34.270  0.00  0.00    -0.200 OA
ATOM     28  O   UNL d   1     -50.588  25.695  33.756  0.00  0.00    -0.200 OA
BRANCH  26  29
ATOM     29  N   UNL d   1     -51.690  25.526  34.011  0.00  0.00    -0.226 N 
ATOM     30  C   UNL d   1     -51.910  25.170  33.306  0.00  0.00     0.111 A 
ATOM     31  C   UNL d   1     -52.405  24.506  33.321  0.00  0.00     0.105 A 
ATOM     32  N   UNL d   1     -52.678  24.202  34.040  0.00  0.00    -0.248 N 
ATOM     33  C   UNL d   1     -52.455  24.562  34.744  0.00  0.00     0.105 A 
ATOM     34  C   UNL d   1     -53.167  23.546  34.051  0.00  0.00     0.378 C 
ATOM     35  C   UNL d   1     -51.964  25.220  34.726  0.00  0.00     0.111 A 
ATOM     36  O   UNL d   1     -53.387  23.189  33.345  0.00  0.00    -0.237 OA
BRANCH  34  37
ATOM     37  O   UNL d   1     -53.434  23.250  34.764  0.00  0.00    -0.257 OA
BRANCH  37  38
ATOM     38  C   UNL d   1     -53.346  23.689  35.447  0.00  0.00     0.128 C 
ATOM     39  C   UNL d   1     -53.298  23.311  36.184  0.00  0.00     0.029 C 
ENDBRANCH  37  38
ENDBRANCH  34  37
ENDBRANCH  26  29
ENDBRANCH   1  26
TORSDOF 9
ENDMDL
