MODEL 1
REMARK VINA RESULT:      59.1      0.000      0.000
REMARK  2 active torsions:
REMARK  status: ('A' for Active; 'I' for Inactive)
REMARK    1  A    between atoms: C_2  and  C_1 
REMARK    2  A    between atoms: C_14  and  C_8 
ROOT
ATOM      1  C   UNL d   1      14.438  13.762  -1.520  0.00  0.00     0.106 A 
ATOM      2  C   UNL d   1      14.465  13.021  -1.176  0.00  0.00     0.304 A 
ATOM      3  C   UNL d   1      14.105  13.849  -2.272  0.00  0.00     0.011 A 
ATOM      4  C   UNL d   1      13.804  13.204  -2.674  0.00  0.00     0.023 A 
ATOM      5  O   UNL d   1      14.160  12.338  -1.572  0.00  0.00    -0.273 OA
ATOM      6  C   UNL d   1      13.831  12.463  -2.331  0.00  0.00     0.103 A 
ATOM      7  C   UNL d   1      13.471  13.290  -3.427  0.00  0.00     0.002 A 
ATOM      8  O   UNL d   1      14.810  12.936  -0.398  0.00  0.00    -0.259 OA
ATOM      9  C   UNL d   1      13.525  11.780  -2.726  0.00  0.00     0.025 A 
ATOM     10  C   UNL d   1      13.167  12.643  -3.833  0.00  0.00     0.000 A 
ATOM     11  C   UNL d   1      13.194  11.902  -3.490  0.00  0.00     0.002 A 
ATOM     12  C   UNL d   1      13.444  14.045  -3.777  0.00  0.00     0.000 A 
ATOM     13  C   UNL d   1      12.835  12.730  -4.586  0.00  0.00     0.000 A 
ATOM     14  C   UNL d   1      13.114  14.139  -4.527  0.00  0.00     0.000 A 
ATOM     15  C   UNL d   1      12.800  13.479  -4.949  0.00  0.00     0.000 A 
ENDROOT
BRANCH   1  16
ATOM     16  C   UNL d   1      14.745  14.412  -1.109  0.00  0.00     0.210 A 
ATOM     17  O   UNL d   1      14.900  15.175  -1.384  0.00  0.00    -0.268 OA
ATOM     18  C   UNL d   1      15.199  15.603  -0.751  0.00  0.00     0.204 A 
ATOM     19  N   UNL d   1      15.231  15.118  -0.095  0.00  0.00    -0.121 NA
ATOM     20  N   UNL d   1      14.951  14.377  -0.307  0.00  0.00    -0.121 NA
BRANCH  18  21
ATOM     21  C   UNL d   1      15.446  16.381  -0.705  0.00  0.00     0.043 A 
ATOM     22  C   UNL d   1      15.036  16.964  -1.096  0.00  0.00     0.004 A 
ATOM     23  C   UNL d   1      15.282  17.754  -1.052  0.00  0.00     0.000 A 
ATOM     24  C   UNL d   1      15.937  17.948  -0.614  0.00  0.00     0.000 A 
ATOM     25  C   UNL d   1      16.348  17.353  -0.221  0.00  0.00     0.000 A 
ATOM     26  C   UNL d   1      16.106  16.573  -0.264  0.00  0.00     0.004 A 
ENDBRANCH  18  21
ENDBRANCH   1  16
TORSDOF 2
ENDMDL
MODEL 2
REMARK VINA RESULT:      60.5      2.344      3.800
REMARK  2 active torsions:
REMARK  status: ('A' for Active; 'I' for Inactive)
REMARK    1  A    between atoms: C_2  and  C_1 
REMARK    2  A    between atoms: C_14  and  C_8 
ROOT
ATOM      1  C   UNL d   1      13.694  13.608  -3.419  0.00  0.00     0.106 A 
ATOM      2  C   UNL d   1      13.285  12.915  -3.557  0.00  0.00     0.304 A 
ATOM      3  C   UNL d   1      14.114  13.698  -2.711  0.00  0.00     0.011 A 
ATOM      4  C   UNL d   1      14.123  13.103  -2.150  0.00  0.00     0.023 A 
ATOM      5  O   UNL d   1      13.279  12.284  -2.992  0.00  0.00    -0.273 OA
ATOM      6  C   UNL d   1      13.713  12.410  -2.288  0.00  0.00     0.103 A 
ATOM      7  C   UNL d   1      14.542  13.193  -1.443  0.00  0.00     0.002 A 
ATOM      8  O   UNL d   1      12.853  12.825  -4.289  0.00  0.00    -0.259 OA
ATOM      9  C   UNL d   1      13.707  11.779  -1.724  0.00  0.00     0.025 A 
ATOM     10  C   UNL d   1      14.552  12.597  -0.877  0.00  0.00     0.000 A 
ATOM     11  C   UNL d   1      14.143  11.903  -1.015  0.00  0.00     0.002 A 
ATOM     12  C   UNL d   1      14.959  13.900  -1.302  0.00  0.00     0.000 A 
ATOM     13  C   UNL d   1      14.971  12.687  -0.170  0.00  0.00     0.000 A 
ATOM     14  C   UNL d   1      15.379  13.997  -0.599  0.00  0.00     0.000 A 
ATOM     15  C   UNL d   1      15.394  13.388  -0.015  0.00  0.00     0.000 A 
ENDROOT
BRANCH   1  16
ATOM     16  C   UNL d   1      13.682  14.207  -3.990  0.00  0.00     0.210 A 
ATOM     17  O   UNL d   1      14.109  14.914  -4.011  0.00  0.00    -0.268 OA
ATOM     18  C   UNL d   1      13.891  15.307  -4.697  0.00  0.00     0.204 A 
ATOM     19  N   UNL d   1      13.339  14.856  -5.095  0.00  0.00    -0.121 NA
ATOM     20  N   UNL d   1      13.203  14.173  -4.665  0.00  0.00    -0.121 NA
BRANCH  18  21
ATOM     21  C   UNL d   1      14.136  16.027  -4.999  0.00  0.00     0.043 A 
ATOM     22  C   UNL d   1      14.695  16.466  -4.605  0.00  0.00     0.004 A 
ATOM     23  C   UNL d   1      14.947  17.195  -4.907  0.00  0.00     0.000 A 
ATOM     24  C   UNL d   1      14.632  17.474  -5.601  0.00  0.00     0.000 A 
ATOM     25  C   UNL d   1      14.066  17.025  -5.995  0.00  0.00     0.000 A 
ATOM     26  C   UNL d   1      13.817  16.305  -5.698  0.00  0.00     0.004 A 
ENDBRANCH  18  21
ENDBRANCH   1  16
TORSDOF 2
ENDMDL
