MODEL 1
REMARK VINA RESULT:      66.9      0.000      0.000
REMARK  6 active torsions:
REMARK  status: ('A' for Active; 'I' for Inactive)
REMARK    1  A    between atoms: C_5  and  C_1 
REMARK    2  A    between atoms: O_8  and  C_5 
REMARK    3  A    between atoms: C_9  and  O_8 
REMARK    4  A    between atoms: C_14  and  C_10 
REMARK    5  A    between atoms: O_20  and  C_11 
REMARK    6  A    between atoms: O_21  and  C_16 
ROOT
ATOM      1  C   UNL d   1     -49.602  28.627  33.796  0.00  0.00     0.305 C 
ATOM      2  O   UNL d   1     -50.040  29.268  33.512  0.00  0.00    -0.259 OA
ENDROOT
BRANCH   1   3
ATOM      3  C   UNL d   1     -49.891  27.853  33.696  0.00  0.00     0.127 A 
ATOM      4  C   UNL d   1     -49.353  27.214  33.696  0.00  0.00     0.305 A 
ATOM      5  O   UNL d   1     -49.636  26.445  33.597  0.00  0.00    -0.271 OA
ATOM      6  O   UNL d   1     -48.550  27.352  33.792  0.00  0.00    -0.259 OA
ATOM      7  C   UNL d   1     -50.445  26.314  33.501  0.00  0.00     0.125 A 
ATOM      8  C   UNL d   1     -50.977  26.947  33.501  0.00  0.00     0.025 A 
ATOM      9  C   UNL d   1     -50.728  25.545  33.402  0.00  0.00     0.117 A 
ATOM     10  C   UNL d   1     -50.693  27.727  33.601  0.00  0.00     0.013 A 
ATOM     11  C   UNL d   1     -51.783  26.812  33.404  0.00  0.00     0.002 A 
ATOM     12  C   UNL d   1     -52.059  26.048  33.307  0.00  0.00     0.002 A 
ATOM     13  C   UNL d   1     -51.534  25.411  33.306  0.00  0.00     0.026 A 
BRANCH   9  14
ATOM     14  O   UNL d   1     -50.203  24.916  33.401  0.00  0.00    -0.326 OA
ATOM     15  C   UNL d   1     -50.482  24.141  33.309  0.00  0.00     0.181 C 
ENDBRANCH   9  14
ENDBRANCH   1   3
BRANCH   1  16
ATOM     16  O   UNL d   1     -48.881  28.755  34.176  0.00  0.00    -0.271 OA
BRANCH  16  17
ATOM     17  C   UNL d   1     -48.614  29.525  34.303  0.00  0.00     0.126 A 
ATOM     18  C   UNL d   1     -48.103  29.684  34.930  0.00  0.00     0.117 A 
ATOM     19  C   UNL d   1     -47.834  30.448  35.062  0.00  0.00     0.029 A 
ATOM     20  C   UNL d   1     -48.080  31.065  34.556  0.00  0.00     0.041 A 
ATOM     21  C   UNL d   1     -48.591  30.905  33.928  0.00  0.00     0.005 A 
ATOM     22  C   UNL d   1     -48.858  30.135  33.802  0.00  0.00     0.027 A 
BRANCH  18  23
ATOM     23  O   UNL d   1     -47.864  29.068  35.427  0.00  0.00    -0.326 OA
ATOM     24  C   UNL d   1     -47.242  29.183  35.961  0.00  0.00     0.181 C 
ENDBRANCH  18  23
BRANCH  20  25
ATOM     25  C   UNL d   1     -47.806  31.843  34.689  0.00  0.00     0.196 C 
ATOM     26  O   UNL d   1     -48.079  32.266  35.346  0.00  0.00    -0.287 OA
ATOM     27  C   UNL d   1     -47.264  32.186  34.163  0.00  0.00     0.045 C 
ENDBRANCH  20  25
ENDBRANCH  16  17
ENDBRANCH   1  16
TORSDOF 6
ENDMDL
