MODEL 1
REMARK VINA RESULT:      -3.0      0.000      0.000
REMARK  3 active torsions:
REMARK  status: ('A' for Active; 'I' for Inactive)
REMARK    1  A    between atoms: N_2  and  S_1 
REMARK    2  A    between atoms: C_8  and  S_1 
REMARK    3  A    between atoms: C_3  and  N_2 
ROOT
ATOM      1  C   UNL d   1      31.123  17.007 -24.298  0.00  0.00     0.094 A 
ATOM      2  C   UNL d   1      31.786  17.502 -24.436  0.00  0.00     0.021 A 
ATOM      3  C   UNL d   1      32.424  17.337 -24.005  0.00  0.00     0.040 A 
ATOM      4  C   UNL d   1      32.506  16.753 -23.455  0.00  0.00     0.196 A 
ATOM      5  C   UNL d   1      31.140  16.401 -23.757  0.00  0.00     0.023 A 
ATOM      6  C   UNL d   1      31.839  16.256 -23.316  0.00  0.00     0.044 A 
ATOM      7  O   UNL d   1      33.241  16.613 -23.002  0.00  0.00    -0.287 OA
ATOM      8  C   UNL d   1      31.743  18.074 -24.960  0.00  0.00     0.002 A 
ATOM      9  C   UNL d   1      33.121  17.791 -24.093  0.00  0.00     0.003 A 
ATOM     10  C   UNL d   1      33.100  18.421 -24.657  0.00  0.00     0.000 A 
ATOM     11  C   UNL d   1      32.394  18.560 -25.096  0.00  0.00     0.000 A 
ENDROOT
BRANCH   1  12
ATOM     12  N   UNL d   1      30.473  17.131 -24.698  0.00  0.00    -0.158 NA
BRANCH  12  13
ATOM     13  S   UNL d   1      29.751  16.802 -24.431  0.00  0.00     0.285 S 
ATOM     14  O   UNL d   1      29.879  16.130 -24.950  0.00  0.00    -0.198 OA
ATOM     15  O   UNL d   1      29.663  17.432 -23.966  0.00  0.00    -0.198 OA
BRANCH  13  16
ATOM     16  C   UNL d   1      29.025  16.464 -24.167  0.00  0.00     0.105 A 
ATOM     17  C   UNL d   1      28.563  16.889 -23.615  0.00  0.00     0.013 A 
ATOM     18  C   UNL d   1      27.871  16.588 -23.351  0.00  0.00     0.001 A 
ATOM     19  C   UNL d   1      27.618  15.887 -23.610  0.00  0.00     0.000 A 
ATOM     20  C   UNL d   1      28.079  15.453 -24.167  0.00  0.00     0.001 A 
ATOM     21  C   UNL d   1      28.792  15.775 -24.432  0.00  0.00     0.013 A 
ENDBRANCH  13  16
ENDBRANCH  12  13
ENDBRANCH   1  12
TORSDOF 3
ENDMDL
MODEL 2
REMARK VINA RESULT:      -2.7      2.320      4.376
REMARK  3 active torsions:
REMARK  status: ('A' for Active; 'I' for Inactive)
REMARK    1  A    between atoms: N_2  and  S_1 
REMARK    2  A    between atoms: C_8  and  S_1 
REMARK    3  A    between atoms: C_3  and  N_2 
ROOT
ATOM      1  C   UNL d   1      32.572  17.895 -23.559  0.00  0.00     0.094 A 
ATOM      2  C   UNL d   1      32.493  17.060 -23.561  0.00  0.00     0.021 A 
ATOM      3  C   UNL d   1      31.828  16.785 -23.882  0.00  0.00     0.040 A 
ATOM      4  C   UNL d   1      31.227  17.215 -24.203  0.00  0.00     0.196 A 
ATOM      5  C   UNL d   1      32.001  18.384 -23.867  0.00  0.00     0.023 A 
ATOM      6  C   UNL d   1      31.305  18.055 -24.201  0.00  0.00     0.044 A 
ATOM      7  O   UNL d   1      30.507  16.858 -24.548  0.00  0.00    -0.287 OA
ATOM      8  C   UNL d   1      33.054  16.615 -23.260  0.00  0.00     0.002 A 
ATOM      9  C   UNL d   1      31.686  15.962 -23.917  0.00  0.00     0.003 A 
ATOM     10  C   UNL d   1      32.281  15.455 -23.595  0.00  0.00     0.000 A 
ATOM     11  C   UNL d   1      32.977  15.795 -23.262  0.00  0.00     0.000 A 
ENDROOT
BRANCH   1  12
ATOM     12  N   UNL d   1      33.209  18.211 -23.254  0.00  0.00    -0.158 NA
BRANCH  12  13
ATOM     13  S   UNL d   1      33.171  18.973 -22.910  0.00  0.00     0.285 S 
ATOM     14  O   UNL d   1      33.190  18.609 -22.132  0.00  0.00    -0.198 OA
ATOM     15  O   UNL d   1      33.156  19.276 -23.638  0.00  0.00    -0.198 OA
BRANCH  13  16
ATOM     16  C   UNL d   1      33.134  19.737 -22.555  0.00  0.00     0.105 A 
ATOM     17  C   UNL d   1      32.991  19.789 -21.733  0.00  0.00     0.013 A 
ATOM     18  C   UNL d   1      32.951  20.503 -21.375  0.00  0.00     0.001 A 
ATOM     19  C   UNL d   1      33.046  21.164 -21.794  0.00  0.00     0.000 A 
ATOM     20  C   UNL d   1      33.190  21.119 -22.625  0.00  0.00     0.001 A 
ATOM     21  C   UNL d   1      33.229  20.375 -22.983  0.00  0.00     0.013 A 
ENDBRANCH  13  16
ENDBRANCH  12  13
ENDBRANCH   1  12
TORSDOF 3
ENDMDL
MODEL 3
REMARK VINA RESULT:      -2.3      1.769      2.621
REMARK  3 active torsions:
REMARK  status: ('A' for Active; 'I' for Inactive)
REMARK    1  A    between atoms: N_2  and  S_1 
REMARK    2  A    between atoms: C_8  and  S_1 
REMARK    3  A    between atoms: C_3  and  N_2 
ROOT
ATOM      1  C   UNL d   1      32.546  18.157 -23.925  0.00  0.00     0.094 A 
ATOM      2  C   UNL d   1      32.779  18.777 -23.411  0.00  0.00     0.021 A 
ATOM      3  C   UNL d   1      32.985  19.449 -23.766  0.00  0.00     0.040 A 
ATOM      4  C   UNL d   1      32.993  19.601 -24.558  0.00  0.00     0.196 A 
ATOM      5  C   UNL d   1      32.532  18.246 -24.732  0.00  0.00     0.023 A 
ATOM      6  C   UNL d   1      32.758  18.978 -25.075  0.00  0.00     0.044 A 
ATOM      7  O   UNL d   1      33.231  20.369 -24.902  0.00  0.00    -0.287 OA
ATOM      8  C   UNL d   1      32.783  18.665 -22.643  0.00  0.00     0.002 A 
ATOM      9  C   UNL d   1      33.228  20.108 -23.313  0.00  0.00     0.003 A 
ATOM     10  C   UNL d   1      33.241  20.013 -22.473  0.00  0.00     0.000 A 
ATOM     11  C   UNL d   1      33.013  19.274 -22.138  0.00  0.00     0.000 A 
ENDROOT
BRANCH   1  12
ATOM     12  N   UNL d   1      32.335  17.477 -23.621  0.00  0.00    -0.158 NA
BRANCH  12  13
ATOM     13  S   UNL d   1      31.744  17.019 -23.997  0.00  0.00     0.285 S 
ATOM     14  O   UNL d   1      31.149  17.556 -23.689  0.00  0.00    -0.198 OA
ATOM     15  O   UNL d   1      32.314  16.544 -24.264  0.00  0.00    -0.198 OA
BRANCH  13  16
ATOM     16  C   UNL d   1      31.142  16.563 -24.372  0.00  0.00     0.105 A 
ATOM     17  C   UNL d   1      30.356  16.846 -24.353  0.00  0.00     0.013 A 
ATOM     18  C   UNL d   1      29.768  16.431 -24.702  0.00  0.00     0.001 A 
ATOM     19  C   UNL d   1      29.926  15.750 -25.068  0.00  0.00     0.000 A 
ATOM     20  C   UNL d   1      30.718  15.458 -25.090  0.00  0.00     0.001 A 
ATOM     21  C   UNL d   1      31.315  15.896 -24.726  0.00  0.00     0.013 A 
ENDBRANCH  13  16
ENDBRANCH  12  13
ENDBRANCH   1  12
TORSDOF 3
ENDMDL
MODEL 4
REMARK VINA RESULT:      -2.1      2.383      3.471
REMARK  3 active torsions:
REMARK  status: ('A' for Active; 'I' for Inactive)
REMARK    1  A    between atoms: N_2  and  S_1 
REMARK    2  A    between atoms: C_8  and  S_1 
REMARK    3  A    between atoms: C_3  and  N_2 
ROOT
ATOM      1  C   UNL d   1      33.070  19.149 -23.204  0.00  0.00     0.094 A 
ATOM      2  C   UNL d   1      33.125  19.982 -23.288  0.00  0.00     0.021 A 
ATOM      3  C   UNL d   1      33.175  20.386 -22.614  0.00  0.00     0.040 A 
ATOM      4  C   UNL d   1      33.179  20.088 -21.865  0.00  0.00     0.196 A 
ATOM      5  C   UNL d   1      33.068  18.787 -22.477  0.00  0.00     0.023 A 
ATOM      6  C   UNL d   1      33.124  19.251 -21.780  0.00  0.00     0.044 A 
ATOM      7  O   UNL d   1      33.237  20.584 -21.147  0.00  0.00    -0.287 OA
ATOM      8  C   UNL d   1      33.124  20.302 -23.996  0.00  0.00     0.002 A 
ATOM      9  C   UNL d   1      33.233  21.220 -22.626  0.00  0.00     0.003 A 
ATOM     10  C   UNL d   1      33.234  21.594 -23.384  0.00  0.00     0.000 A 
ATOM     11  C   UNL d   1      33.178  21.120 -24.079  0.00  0.00     0.000 A 
ENDROOT
BRANCH   1  12
ATOM     12  N   UNL d   1      33.018  18.711 -23.839  0.00  0.00    -0.158 NA
BRANCH  12  13
ATOM     13  S   UNL d   1      32.608  17.981 -23.809  0.00  0.00     0.285 S 
ATOM     14  O   UNL d   1      31.937  18.358 -24.192  0.00  0.00    -0.198 OA
ATOM     15  O   UNL d   1      33.240  17.666 -23.460  0.00  0.00    -0.198 OA
BRANCH  13  16
ATOM     16  C   UNL d   1      32.187  17.251 -23.783  0.00  0.00     0.105 A 
ATOM     17  C   UNL d   1      32.612  16.552 -23.612  0.00  0.00     0.013 A 
ATOM     18  C   UNL d   1      32.234  15.847 -23.581  0.00  0.00     0.001 A 
ATOM     19  C   UNL d   1      31.457  15.807 -23.713  0.00  0.00     0.000 A 
ATOM     20  C   UNL d   1      31.023  16.509 -23.887  0.00  0.00     0.001 A 
ATOM     21  C   UNL d   1      31.425  17.231 -23.915  0.00  0.00     0.013 A 
ENDBRANCH  13  16
ENDBRANCH  12  13
ENDBRANCH   1  12
TORSDOF 3
ENDMDL
MODEL 5
REMARK VINA RESULT:      -1.9      1.695      4.008
REMARK  3 active torsions:
REMARK  status: ('A' for Active; 'I' for Inactive)
REMARK    1  A    between atoms: N_2  and  S_1 
REMARK    2  A    between atoms: C_8  and  S_1 
REMARK    3  A    between atoms: C_3  and  N_2 
ROOT
ATOM      1  C   UNL d   1      29.564  16.178 -24.214  0.00  0.00     0.094 A 
ATOM      2  C   UNL d   1      28.803  16.181 -23.860  0.00  0.00     0.021 A 
ATOM      3  C   UNL d   1      28.457  16.886 -23.812  0.00  0.00     0.040 A 
ATOM      4  C   UNL d   1      28.753  17.594 -24.061  0.00  0.00     0.196 A 
ATOM      5  C   UNL d   1      29.917  16.857 -24.486  0.00  0.00     0.023 A 
ATOM      6  C   UNL d   1      29.517  17.591 -24.417  0.00  0.00     0.044 A 
ATOM      7  O   UNL d   1      28.325  18.352 -23.982  0.00  0.00    -0.287 OA
ATOM      8  C   UNL d   1      28.489  15.517 -23.609  0.00  0.00     0.002 A 
ATOM      9  C   UNL d   1      27.698  16.961 -23.470  0.00  0.00     0.003 A 
ATOM     10  C   UNL d   1      27.333  16.253 -23.187  0.00  0.00     0.000 A 
ATOM     11  C   UNL d   1      27.742  15.519 -23.261  0.00  0.00     0.000 A 
ENDROOT
BRANCH   1  12
ATOM     12  N   UNL d   1      29.943  15.507 -24.284  0.00  0.00    -0.158 NA
BRANCH  12  13
ATOM     13  S   UNL d   1      30.779  15.502 -24.310  0.00  0.00     0.285 S 
ATOM     14  O   UNL d   1      30.793  15.514 -23.452  0.00  0.00    -0.198 OA
ATOM     15  O   UNL d   1      30.732  15.491 -25.097  0.00  0.00    -0.198 OA
BRANCH  13  16
ATOM     16  C   UNL d   1      31.623  15.498 -24.327  0.00  0.00     0.105 A 
ATOM     17  C   UNL d   1      32.036  15.467 -23.602  0.00  0.00     0.013 A 
ATOM     18  C   UNL d   1      32.836  15.462 -23.593  0.00  0.00     0.001 A 
ATOM     19  C   UNL d   1      33.241  15.485 -24.270  0.00  0.00     0.000 A 
ATOM     20  C   UNL d   1      32.829  15.516 -25.006  0.00  0.00     0.001 A 
ATOM     21  C   UNL d   1      32.003  15.521 -25.001  0.00  0.00     0.013 A 
ENDBRANCH  13  16
ENDBRANCH  12  13
ENDBRANCH   1  12
TORSDOF 3
ENDMDL
MODEL 6
REMARK VINA RESULT:      -1.6      4.287      5.422
REMARK  3 active torsions:
REMARK  status: ('A' for Active; 'I' for Inactive)
REMARK    1  A    between atoms: N_2  and  S_1 
REMARK    2  A    between atoms: C_8  and  S_1 
REMARK    3  A    between atoms: C_3  and  N_2 
ROOT
ATOM      1  C   UNL d   1      32.927  21.257 -21.970  0.00  0.00     0.094 A 
ATOM      2  C   UNL d   1      32.739  22.074 -22.005  0.00  0.00     0.021 A 
ATOM      3  C   UNL d   1      32.425  22.374 -21.349  0.00  0.00     0.040 A 
ATOM      4  C   UNL d   1      32.268  21.986 -20.659  0.00  0.00     0.196 A 
ATOM      5  C   UNL d   1      32.794  20.810 -21.306  0.00  0.00     0.023 A 
ATOM      6  C   UNL d   1      32.457  21.166 -20.624  0.00  0.00     0.044 A 
ATOM      7  O   UNL d   1      31.916  22.370 -19.957  0.00  0.00    -0.287 OA
ATOM      8  C   UNL d   1      32.877  22.477 -22.654  0.00  0.00     0.002 A 
ATOM      9  C   UNL d   1      32.213  23.182 -21.314  0.00  0.00     0.003 A 
ATOM     10  C   UNL d   1      32.353  23.645 -22.008  0.00  0.00     0.000 A 
ATOM     11  C   UNL d   1      32.691  23.280 -22.688  0.00  0.00     0.000 A 
ENDROOT
BRANCH   1  12
ATOM     12  N   UNL d   1      33.238  20.917 -22.592  0.00  0.00    -0.158 NA
BRANCH  12  13
ATOM     13  S   UNL d   1      33.084  20.108 -22.745  0.00  0.00     0.285 S 
ATOM     14  O   UNL d   1      32.922  20.308 -23.564  0.00  0.00    -0.198 OA
ATOM     15  O   UNL d   1      33.240  19.959 -21.987  0.00  0.00    -0.198 OA
BRANCH  13  16
ATOM     16  C   UNL d   1      32.927  19.296 -22.908  0.00  0.00     0.105 A 
ATOM     17  C   UNL d   1      32.427  19.107 -23.550  0.00  0.00     0.013 A 
ATOM     18  C   UNL d   1      32.264  18.344 -23.724  0.00  0.00     0.001 A 
ATOM     19  C   UNL d   1      32.574  17.762 -23.290  0.00  0.00     0.000 A 
ATOM     20  C   UNL d   1      33.080  17.947 -22.640  0.00  0.00     0.001 A 
ATOM     21  C   UNL d   1      33.241  18.739 -22.471  0.00  0.00     0.013 A 
ENDBRANCH  13  16
ENDBRANCH  12  13
ENDBRANCH   1  12
TORSDOF 3
ENDMDL
MODEL 7
REMARK VINA RESULT:      -0.5      4.635      6.069
REMARK  3 active torsions:
REMARK  status: ('A' for Active; 'I' for Inactive)
REMARK    1  A    between atoms: N_2  and  S_1 
REMARK    2  A    between atoms: C_8  and  S_1 
REMARK    3  A    between atoms: C_3  and  N_2 
ROOT
ATOM      1  C   UNL d   1      33.240  20.561 -21.963  0.00  0.00     0.094 A 
ATOM      2  C   UNL d   1      33.239  19.761 -22.216  0.00  0.00     0.021 A 
ATOM      3  C   UNL d   1      33.239  19.654 -22.996  0.00  0.00     0.040 A 
ATOM      4  C   UNL d   1      33.239  20.224 -23.567  0.00  0.00     0.196 A 
ATOM      5  C   UNL d   1      33.241  21.180 -22.488  0.00  0.00     0.023 A 
ATOM      6  C   UNL d   1      33.241  21.028 -23.313  0.00  0.00     0.044 A 
ATOM      7  O   UNL d   1      33.239  20.050 -24.424  0.00  0.00    -0.287 OA
ATOM      8  C   UNL d   1      33.238  19.187 -21.692  0.00  0.00     0.002 A 
ATOM      9  C   UNL d   1      33.237  18.882 -23.316  0.00  0.00     0.003 A 
ATOM     10  C   UNL d   1      33.237  18.239 -22.767  0.00  0.00     0.000 A 
ATOM     11  C   UNL d   1      33.237  18.401 -21.940  0.00  0.00     0.000 A 
ENDROOT
BRANCH   1  12
ATOM     12  N   UNL d   1      33.240  20.714 -21.205  0.00  0.00    -0.158 NA
BRANCH  12  13
ATOM     13  S   UNL d   1      32.952  21.451 -20.929  0.00  0.00     0.285 S 
ATOM     14  O   UNL d   1      32.652  21.056 -20.228  0.00  0.00    -0.198 OA
ATOM     15  O   UNL d   1      33.240  21.782 -21.584  0.00  0.00    -0.198 OA
BRANCH  13  16
ATOM     16  C   UNL d   1      32.658  22.188 -20.644  0.00  0.00     0.105 A 
ATOM     17  C   UNL d   1      33.094  22.591 -20.056  0.00  0.00     0.013 A 
ATOM     18  C   UNL d   1      32.836  23.291 -19.770  0.00  0.00     0.001 A 
ATOM     19  C   UNL d   1      32.166  23.608 -20.042  0.00  0.00     0.000 A 
ATOM     20  C   UNL d   1      31.721  23.206 -20.636  0.00  0.00     0.001 A 
ATOM     21  C   UNL d   1      31.999  22.483 -20.922  0.00  0.00     0.013 A 
ENDBRANCH  13  16
ENDBRANCH  12  13
ENDBRANCH   1  12
TORSDOF 3
ENDMDL
