MODEL 1
REMARK VINA RESULT:      -6.1      0.000      0.000
REMARK  4 active torsions:
REMARK  status: ('A' for Active; 'I' for Inactive)
REMARK    1  A    between atoms: C_4  and  C_3 
REMARK    2  A    between atoms: S_8  and  C_5 
REMARK    3  A    between atoms: C_13  and  S_8 
REMARK    4  A    between atoms: C_14  and  C_13 
ROOT
ATOM      1  N   UNL d   1     -41.574-123.352 -52.773  0.00  0.00    -0.146 NA
ATOM      2  N   UNL d   1     -41.498-123.461 -51.968  0.00  0.00    -0.141 NA
ATOM      3  C   UNL d   1     -41.498-122.595 -53.089  0.00  0.00     0.126 A 
ATOM      4  C   UNL d   1     -41.349-122.831 -51.471  0.00  0.00     0.132 A 
ATOM      5  C   UNL d   1     -41.346-121.953 -52.594  0.00  0.00     0.025 A 
ATOM      6  C   UNL d   1     -41.273-122.069 -51.794  0.00  0.00     0.029 A 
ENDROOT
BRANCH   4   7
ATOM      7  S   UNL d   1     -41.273-122.945 -50.659  0.00  0.00    -0.066 SA
BRANCH   7   8
ATOM      8  C   UNL d   1     -41.891-123.265 -50.227  0.00  0.00     0.037 C 
BRANCH   8   9
ATOM      9  C   UNL d   1     -41.855-123.263 -49.403  0.00  0.00     0.006 A 
ATOM     10  C   UNL d   1     -42.524-123.074 -48.965  0.00  0.00     0.001 A 
ATOM     11  C   UNL d   1     -42.497-123.070 -48.149  0.00  0.00     0.000 A 
ATOM     12  C   UNL d   1     -41.785-123.259 -47.766  0.00  0.00     0.000 A 
ATOM     13  C   UNL d   1     -41.124-123.445 -48.208  0.00  0.00     0.000 A 
ATOM     14  C   UNL d   1     -41.163-123.446 -49.032  0.00  0.00     0.001 A 
ENDBRANCH   8   9
ENDBRANCH   7   8
ENDBRANCH   4   7
BRANCH   3  15
ATOM     15  C   UNL d   1     -41.572-122.478 -53.899  0.00  0.00     0.119 A 
ATOM     16  O   UNL d   1     -41.920-121.833 -54.270  0.00  0.00    -0.304 OA
ATOM     17  C   UNL d   1     -41.877-121.938 -55.085  0.00  0.00     0.123 A 
ATOM     18  C   UNL d   1     -41.493-122.666 -55.223  0.00  0.00     0.029 A 
ATOM     19  C   UNL d   1     -41.305-123.000 -54.492  0.00  0.00     0.028 A 
ENDBRANCH   3  15
TORSDOF 4
ENDMDL
MODEL 2
REMARK VINA RESULT:      -5.9      1.455      4.901
REMARK  4 active torsions:
REMARK  status: ('A' for Active; 'I' for Inactive)
REMARK    1  A    between atoms: C_4  and  C_3 
REMARK    2  A    between atoms: S_8  and  C_5 
REMARK    3  A    between atoms: C_13  and  S_8 
REMARK    4  A    between atoms: C_14  and  C_13 
ROOT
ATOM      1  N   UNL d   1     -41.856-123.477 -50.949  0.00  0.00    -0.146 NA
ATOM      2  N   UNL d   1     -41.732-123.324 -51.741  0.00  0.00    -0.141 NA
ATOM      3  C   UNL d   1     -41.658-122.905 -50.390  0.00  0.00     0.126 A 
ATOM      4  C   UNL d   1     -41.414-122.613 -51.987  0.00  0.00     0.132 A 
ATOM      5  C   UNL d   1     -41.336-122.185 -50.630  0.00  0.00     0.025 A 
ATOM      6  C   UNL d   1     -41.215-122.040 -51.420  0.00  0.00     0.029 A 
ENDROOT
BRANCH   4   7
ATOM      7  S   UNL d   1     -41.290-122.463 -52.788  0.00  0.00    -0.066 SA
BRANCH   7   8
ATOM      8  C   UNL d   1     -41.747-122.838 -53.354  0.00  0.00     0.037 C 
BRANCH   8   9
ATOM      9  C   UNL d   1     -41.768-122.539 -54.123  0.00  0.00     0.006 A 
ATOM     10  C   UNL d   1     -42.368-122.026 -54.346  0.00  0.00     0.001 A 
ATOM     11  C   UNL d   1     -42.395-121.726 -55.105  0.00  0.00     0.000 A 
ATOM     12  C   UNL d   1     -41.809-121.946 -55.650  0.00  0.00     0.000 A 
ATOM     13  C   UNL d   1     -41.215-122.457 -55.421  0.00  0.00     0.000 A 
ATOM     14  C   UNL d   1     -41.197-122.754 -54.651  0.00  0.00     0.001 A 
ENDBRANCH   8   9
ENDBRANCH   7   8
ENDBRANCH   4   7
BRANCH   3  15
ATOM     15  C   UNL d   1     -41.781-123.053 -49.591  0.00  0.00     0.119 A 
ATOM     16  O   UNL d   1     -41.226-123.334 -49.054  0.00  0.00    -0.304 OA
ATOM     17  C   UNL d   1     -41.579-123.402 -48.315  0.00  0.00     0.123 A 
ATOM     18  C   UNL d   1     -42.373-123.156 -48.394  0.00  0.00     0.029 A 
ATOM     19  C   UNL d   1     -42.498-122.940 -49.181  0.00  0.00     0.028 A 
ENDBRANCH   3  15
TORSDOF 4
ENDMDL
