MODEL 1
REMARK VINA RESULT:      -6.0      0.000      0.000
REMARK  4 active torsions:
REMARK  status: ('A' for Active; 'I' for Inactive)
REMARK    1  A    between atoms: C_5  and  C_1 
REMARK       I    between atoms: N_8  and  C_5 
REMARK    2  A    between atoms: C_10  and  N_8 
REMARK    3  A    between atoms: C_13  and  C_10 
REMARK    4  A    between atoms: C_11  and  C_13 
ROOT
ATOM      1  C   UNL d   1     -41.444-122.858 -52.478  0.00  0.00     0.299 C 
ATOM      2  O   UNL d   1     -41.123-122.146 -52.229  0.00  0.00    -0.263 OA
ATOM      3  N   UNL d   1     -41.772-123.379 -51.927  0.00  0.00    -0.205 NA
ENDROOT
BRANCH   1   4
ATOM      4  C   UNL d   1     -41.440-123.056 -53.280  0.00  0.00     0.162 A 
ATOM      5  N   UNL d   1     -41.125-123.740 -53.601  0.00  0.00    -0.143 NA
ATOM      6  N   UNL d   1     -41.238-123.719 -54.424  0.00  0.00    -0.148 NA
ATOM      7  C   UNL d   1     -41.630-123.005 -54.598  0.00  0.00     0.105 A 
ATOM      8  C   UNL d   1     -41.753-122.598 -53.890  0.00  0.00     0.044 A 
ATOM      9  C   UNL d   1     -41.881-122.688 -55.305  0.00  0.00     0.021 A 
ATOM     10  C   UNL d   1     -42.132-121.870 -53.905  0.00  0.00     0.003 A 
ATOM     11  C   UNL d   1     -42.383-121.554 -54.608  0.00  0.00     0.000 A 
ATOM     12  C   UNL d   1     -42.259-121.958 -55.307  0.00  0.00     0.002 A 
ENDBRANCH   1   4
BRANCH   3  13
ATOM     13  C   UNL d   1     -41.776-123.180 -51.125  0.00  0.00     0.102 C 
BRANCH  13  14
ATOM     14  C   UNL d   1     -42.068-123.726 -50.573  0.00  0.00     0.021 C 
BRANCH  14  15
ATOM     15  C   UNL d   1     -42.100-123.508 -49.772  0.00  0.00     0.002 A 
ATOM     16  C   UNL d   1     -42.798-123.168 -49.477  0.00  0.00     0.000 A 
ATOM     17  C   UNL d   1     -42.830-122.950 -48.677  0.00  0.00     0.000 A 
ATOM     18  C   UNL d   1     -42.185-123.068 -48.186  0.00  0.00     0.000 A 
ATOM     19  C   UNL d   1     -41.501-123.406 -48.492  0.00  0.00     0.000 A 
ATOM     20  C   UNL d   1     -41.453-123.624 -49.271  0.00  0.00     0.000 A 
ENDBRANCH  14  15
ENDBRANCH  13  14
ENDBRANCH   3  13
TORSDOF 4
ENDMDL
MODEL 2
REMARK VINA RESULT:      -5.7      1.021      4.913
REMARK  4 active torsions:
REMARK  status: ('A' for Active; 'I' for Inactive)
REMARK    1  A    between atoms: C_5  and  C_1 
REMARK       I    between atoms: N_8  and  C_5 
REMARK    2  A    between atoms: C_10  and  N_8 
REMARK    3  A    between atoms: C_13  and  C_10 
REMARK    4  A    between atoms: C_11  and  C_13 
ROOT
ATOM      1  C   UNL d   1     -41.802-122.203 -51.242  0.00  0.00     0.299 C 
ATOM      2  O   UNL d   1     -41.143-121.719 -51.192  0.00  0.00    -0.263 OA
ATOM      3  N   UNL d   1     -42.030-122.517 -51.971  0.00  0.00    -0.205 NA
ENDROOT
BRANCH   1   4
ATOM      4  C   UNL d   1     -42.239-122.378 -50.564  0.00  0.00     0.162 A 
ATOM      5  N   UNL d   1     -43.023-122.177 -50.437  0.00  0.00    -0.143 NA
ATOM      6  N   UNL d   1     -43.246-122.458 -49.686  0.00  0.00    -0.148 NA
ATOM      7  C   UNL d   1     -42.580-122.835 -49.359  0.00  0.00     0.105 A 
ATOM      8  C   UNL d   1     -41.961-122.784 -49.902  0.00  0.00     0.044 A 
ATOM      9  C   UNL d   1     -42.471-123.210 -48.644  0.00  0.00     0.021 A 
ATOM     10  C   UNL d   1     -41.233-123.115 -49.716  0.00  0.00     0.003 A 
ATOM     11  C   UNL d   1     -41.124-123.489 -49.005  0.00  0.00     0.000 A 
ATOM     12  C   UNL d   1     -41.739-123.537 -48.468  0.00  0.00     0.002 A 
ENDBRANCH   1   4
BRANCH   3  13
ATOM     13  C   UNL d   1     -41.592-122.342 -52.650  0.00  0.00     0.102 C 
BRANCH  13  14
ATOM     14  C   UNL d   1     -41.586-122.880 -53.280  0.00  0.00     0.021 C 
BRANCH  14  15
ATOM     15  C   UNL d   1     -41.671-122.592 -54.054  0.00  0.00     0.002 A 
ATOM     16  C   UNL d   1     -42.296-122.072 -54.223  0.00  0.00     0.000 A 
ATOM     17  C   UNL d   1     -42.380-121.784 -54.997  0.00  0.00     0.000 A 
ATOM     18  C   UNL d   1     -41.857-122.010 -55.585  0.00  0.00     0.000 A 
ATOM     19  C   UNL d   1     -41.243-122.525 -55.404  0.00  0.00     0.000 A 
ATOM     20  C   UNL d   1     -41.146-122.816 -54.653  0.00  0.00     0.000 A 
ENDBRANCH  14  15
ENDBRANCH  13  14
ENDBRANCH   3  13
TORSDOF 4
ENDMDL
MODEL 3
REMARK VINA RESULT:      -4.7      0.995      1.379
REMARK  4 active torsions:
REMARK  status: ('A' for Active; 'I' for Inactive)
REMARK    1  A    between atoms: C_5  and  C_1 
REMARK       I    between atoms: N_8  and  C_5 
REMARK    2  A    between atoms: C_10  and  N_8 
REMARK    3  A    between atoms: C_13  and  C_10 
REMARK    4  A    between atoms: C_11  and  C_13 
ROOT
ATOM      1  C   UNL d   1     -41.555-122.836 -52.193  0.00  0.00     0.299 C 
ATOM      2  O   UNL d   1     -41.123-123.531 -52.174  0.00  0.00    -0.263 OA
ATOM      3  N   UNL d   1     -41.895-122.540 -51.501  0.00  0.00    -0.205 NA
ENDROOT
BRANCH   1   4
ATOM      4  C   UNL d   1     -41.653-122.430 -52.906  0.00  0.00     0.162 A 
ATOM      5  N   UNL d   1     -41.802-121.628 -52.981  0.00  0.00    -0.143 NA
ATOM      6  N   UNL d   1     -41.861-121.448 -53.791  0.00  0.00    -0.148 NA
ATOM      7  C   UNL d   1     -41.744-122.159 -54.208  0.00  0.00     0.105 A 
ATOM      8  C   UNL d   1     -41.615-122.763 -53.659  0.00  0.00     0.044 A 
ATOM      9  C   UNL d   1     -41.740-122.320 -55.006  0.00  0.00     0.021 A 
ATOM     10  C   UNL d   1     -41.483-123.528 -53.926  0.00  0.00     0.003 A 
ATOM     11  C   UNL d   1     -41.479-123.689 -54.721  0.00  0.00     0.000 A 
ATOM     12  C   UNL d   1     -41.606-123.089 -55.261  0.00  0.00     0.002 A 
ENDBRANCH   1   4
BRANCH   3  13
ATOM     13  C   UNL d   1     -41.797-122.947 -50.788  0.00  0.00     0.102 C 
BRANCH  13  14
ATOM     14  C   UNL d   1     -41.884-122.538 -50.072  0.00  0.00     0.021 C 
BRANCH  14  15
ATOM     15  C   UNL d   1     -42.075-122.966 -49.387  0.00  0.00     0.002 A 
ATOM     16  C   UNL d   1     -41.461-123.223 -48.890  0.00  0.00     0.000 A 
ATOM     17  C   UNL d   1     -41.651-123.651 -48.205  0.00  0.00     0.000 A 
ATOM     18  C   UNL d   1     -42.432-123.817 -48.022  0.00  0.00     0.000 A 
ATOM     19  C   UNL d   1     -43.030-123.557 -48.522  0.00  0.00     0.000 A 
ATOM     20  C   UNL d   1     -42.861-123.138 -49.195  0.00  0.00     0.000 A 
ENDBRANCH  14  15
ENDBRANCH  13  14
ENDBRANCH   3  13
TORSDOF 4
ENDMDL
