MODEL 1
REMARK VINA RESULT:       0.1      0.000      0.000
REMARK  5 active torsions:
REMARK  status: ('A' for Active; 'I' for Inactive)
REMARK    1  A    between atoms: C_10  and  N_1 
REMARK    2  A    between atoms: N_2  and  C_8 
REMARK    3  A    between atoms: C_5  and  C_12 
REMARK       I    between atoms: N_6  and  C_5 
REMARK    4  A    between atoms: C_7  and  N_6 
REMARK    5  A    between atoms: O_26  and  C_14 
ROOT
ATOM      1  C   UNL d   1     -41.710-122.797 -51.571  0.00  0.00     0.279 C 
ATOM      2  N   UNL d   1     -42.014-122.135 -51.939  0.00  0.00    -0.206 NA
ATOM      3  O   UNL d   1     -41.235-123.325 -51.980  0.00  0.00    -0.265 OA
ENDROOT
BRANCH   1   4
ATOM      4  C   UNL d   1     -41.886-122.941 -50.759  0.00  0.00     0.058 A 
ATOM      5  C   UNL d   1     -42.220-122.349 -50.308  0.00  0.00     0.006 A 
ATOM      6  C   UNL d   1     -42.395-122.492 -49.500  0.00  0.00     0.018 A 
ATOM      7  C   UNL d   1     -42.230-123.221 -49.175  0.00  0.00     0.070 A 
ATOM      8  C   UNL d   1     -41.894-123.817 -49.626  0.00  0.00     0.018 A 
ATOM      9  C   UNL d   1     -41.719-123.675 -50.434  0.00  0.00     0.006 A 
BRANCH   7  10
ATOM     10  N   UNL d   1     -42.407-123.365 -48.358  0.00  0.00    -0.242 N 
ATOM     11  C   UNL d   1     -41.947-123.287 -47.667  0.00  0.00     0.267 A 
ATOM     12  C   UNL d   1     -42.414-123.508 -47.027  0.00  0.00     0.066 A 
ATOM     13  O   UNL d   1     -41.124-123.019 -47.628  0.00  0.00    -0.267 OA
ATOM     14  C   UNL d   1     -43.151-123.718 -47.340  0.00  0.00     0.066 A 
ATOM     15  C   UNL d   1     -43.152-123.633 -48.153  0.00  0.00     0.267 A 
ATOM     16  O   UNL d   1     -43.808-123.797 -48.651  0.00  0.00    -0.267 OA
ENDBRANCH   7  10
ENDBRANCH   1   4
BRANCH   2  17
ATOM     17  C   UNL d   1     -41.837-121.991 -52.755  0.00  0.00     0.108 A 
ATOM     18  C   UNL d   1     -42.105-122.516 -53.340  0.00  0.00     0.045 A 
ATOM     19  C   UNL d   1     -41.933-122.376 -54.134  0.00  0.00     0.128 A 
ATOM     20  C   UNL d   1     -41.488-121.706 -54.362  0.00  0.00     0.026 A 
ATOM     21  C   UNL d   1     -41.226-121.190 -53.771  0.00  0.00     0.027 A 
ATOM     22  C   UNL d   1     -41.399-121.331 -52.977  0.00  0.00     0.112 A 
BRANCH  19  23
ATOM     23  N   UNL d   1     -42.200-122.897 -54.699  0.00  0.00    -0.114 N 
ATOM     24  O   UNL d   1     -41.836-123.622 -54.899  0.00  0.00    -0.532 OA
ATOM     25  O   UNL d   1     -42.916-122.709 -55.142  0.00  0.00    -0.532 OA
ENDBRANCH  19  23
BRANCH  22  26
ATOM     26  O   UNL d   1     -41.129-120.805 -52.412  0.00  0.00    -0.327 OA
ATOM     27  C   UNL d   1     -41.172-119.991 -52.552  0.00  0.00     0.181 C 
ENDBRANCH  22  26
ENDBRANCH   2  17
TORSDOF 5
ENDMDL
MODEL 2
REMARK VINA RESULT:       2.7      1.092      5.469
REMARK  5 active torsions:
REMARK  status: ('A' for Active; 'I' for Inactive)
REMARK    1  A    between atoms: C_10  and  N_1 
REMARK    2  A    between atoms: N_2  and  C_8 
REMARK    3  A    between atoms: C_5  and  C_12 
REMARK       I    between atoms: N_6  and  C_5 
REMARK    4  A    between atoms: C_7  and  N_6 
REMARK    5  A    between atoms: O_26  and  C_14 
ROOT
ATOM      1  C   UNL d   1     -41.973-122.761 -50.802  0.00  0.00     0.279 C 
ATOM      2  N   UNL d   1     -42.713-122.932 -50.506  0.00  0.00    -0.206 NA
ATOM      3  O   UNL d   1     -41.326-122.688 -50.304  0.00  0.00    -0.265 OA
ENDROOT
BRANCH   1   4
ATOM      4  C   UNL d   1     -41.870-122.657 -51.634  0.00  0.00     0.058 A 
ATOM      5  C   UNL d   1     -41.574-123.270 -52.083  0.00  0.00     0.006 A 
ATOM      6  C   UNL d   1     -41.472-123.167 -52.909  0.00  0.00     0.018 A 
ATOM      7  C   UNL d   1     -41.670-122.455 -53.254  0.00  0.00     0.070 A 
ATOM      8  C   UNL d   1     -41.968-121.837 -52.804  0.00  0.00     0.018 A 
ATOM      9  C   UNL d   1     -42.070-121.940 -51.978  0.00  0.00     0.006 A 
BRANCH   7  10
ATOM     10  N   UNL d   1     -41.566-122.350 -54.089  0.00  0.00    -0.242 N 
ATOM     11  C   UNL d   1     -41.452-121.668 -54.554  0.00  0.00     0.267 A 
ATOM     12  C   UNL d   1     -41.386-121.906 -55.338  0.00  0.00     0.066 A 
ATOM     13  O   UNL d   1     -41.411-120.852 -54.264  0.00  0.00    -0.267 OA
ATOM     14  C   UNL d   1     -41.461-122.730 -55.338  0.00  0.00     0.066 A 
ATOM     15  C   UNL d   1     -41.571-123.007 -54.577  0.00  0.00     0.267 A 
ATOM     16  O   UNL d   1     -41.668-123.815 -54.370  0.00  0.00    -0.267 OA
ENDBRANCH   7  10
ENDBRANCH   1   4
BRANCH   2  17
ATOM     17  C   UNL d   1     -42.817-123.037 -49.671  0.00  0.00     0.108 A 
ATOM     18  C   UNL d   1     -42.278-122.696 -49.138  0.00  0.00     0.045 A 
ATOM     19  C   UNL d   1     -42.379-122.797 -48.326  0.00  0.00     0.128 A 
ATOM     20  C   UNL d   1     -43.020-123.242 -48.028  0.00  0.00     0.026 A 
ATOM     21  C   UNL d   1     -43.549-123.577 -48.568  0.00  0.00     0.027 A 
ATOM     22  C   UNL d   1     -43.449-123.475 -49.381  0.00  0.00     0.112 A 
BRANCH  19  23
ATOM     23  N   UNL d   1     -41.846-122.459 -47.813  0.00  0.00    -0.114 N 
ATOM     24  O   UNL d   1     -41.932-122.420 -46.982  0.00  0.00    -0.532 OA
ATOM     25  O   UNL d   1     -41.125-122.105 -48.125  0.00  0.00    -0.532 OA
ENDBRANCH  19  23
BRANCH  22  26
ATOM     26  O   UNL d   1     -43.986-123.816 -49.894  0.00  0.00    -0.327 OA
ATOM     27  C   UNL d   1     -44.781-123.587 -49.870  0.00  0.00     0.181 C 
ENDBRANCH  22  26
ENDBRANCH   2  17
TORSDOF 5
ENDMDL
