MODEL 1
REMARK VINA RESULT:      -3.5      0.000      0.000
REMARK  5 active torsions:
REMARK  status: ('A' for Active; 'I' for Inactive)
REMARK       I    between atoms: N_3  and  C_1 
REMARK    1  A    between atoms: C_4  and  C_1 
REMARK    2  A    between atoms: N_2  and  C_4 
REMARK       I    between atoms: C_5  and  N_2 
REMARK    3  A    between atoms: C_18  and  C_4 
REMARK    4  A    between atoms: C_9  and  C_5 
REMARK    5  A    between atoms: C_7  and  N_6 
ROOT
ATOM      1  C   UNL d   1     -38.828  15.127  19.987  0.00  0.00     0.283 C 
ATOM      2  N   UNL d   1     -38.684  14.911  19.204  0.00  0.00    -0.268 N 
ATOM      3  N   UNL d   1     -38.399  14.483  17.644  0.00  0.00    -0.286 N 
ATOM      4  O   UNL d   1     -38.820  15.922  20.210  0.00  0.00    -0.265 OA
ATOM      5  C   UNL d   1     -38.693  14.117  18.989  0.00  0.00     0.102 A 
ATOM      6  C   UNL d   1     -38.533  15.497  18.643  0.00  0.00     0.102 A 
ATOM      7  C   UNL d   1     -38.389  15.279  17.857  0.00  0.00     0.101 A 
ATOM      8  C   UNL d   1     -38.549  13.908  18.206  0.00  0.00     0.101 A 
ENDROOT
BRANCH   1   9
ATOM      9  C   UNL d   1     -38.979  14.542  20.548  0.00  0.00     0.141 C 
BRANCH   9  10
ATOM     10  N   UNL d   1     -39.725  14.177  20.577  0.00  0.00    -0.203 NA
ATOM     11  C   UNL d   1     -40.309  14.478  21.069  0.00  0.00     0.279 C 
ATOM     12  O   UNL d   1     -40.160  15.138  21.533  0.00  0.00    -0.265 OA
BRANCH  11  13
ATOM     13  C   UNL d   1     -41.049  14.113  21.095  0.00  0.00     0.058 A 
ATOM     14  C   UNL d   1     -41.133  13.369  21.432  0.00  0.00     0.005 A 
ATOM     15  C   UNL d   1     -41.865  13.002  21.461  0.00  0.00     0.000 A 
ATOM     16  C   UNL d   1     -42.526  13.384  21.148  0.00  0.00     0.000 A 
ATOM     17  C   UNL d   1     -42.457  14.134  20.806  0.00  0.00     0.000 A 
ATOM     18  C   UNL d   1     -43.272  13.023  21.171  0.00  0.00     0.000 C 
ATOM     19  C   UNL d   1     -41.710  14.495  20.783  0.00  0.00     0.005 A 
ENDBRANCH  11  13
ENDBRANCH   9  10
BRANCH   9  20
ATOM     20  C   UNL d   1     -38.400  14.314  21.082  0.00  0.00     0.022 C 
ATOM     21  C   UNL d   1     -37.940  14.897  21.458  0.00  0.00     0.002 C 
ATOM     22  C   UNL d   1     -38.269  13.517  21.248  0.00  0.00     0.002 C 
ENDBRANCH   9  20
ENDBRANCH   1   9
BRANCH   3  23
ATOM     23  C   UNL d   1     -38.255  14.269  16.859  0.00  0.00     0.148 A 
ATOM     24  N   UNL d   1     -38.235  13.472  16.646  0.00  0.00    -0.227 NA
ATOM     25  C   UNL d   1     -38.091  13.262  15.862  0.00  0.00     0.101 A 
ATOM     26  C   UNL d   1     -37.967  13.839  15.292  0.00  0.00     0.021 A 
ATOM     27  C   UNL d   1     -37.988  14.643  15.511  0.00  0.00     0.005 A 
ATOM     28  C   UNL d   1     -38.132  14.854  16.293  0.00  0.00     0.037 A 
ENDBRANCH   3  23
TORSDOF 5
ENDMDL
MODEL 2
REMARK VINA RESULT:      -2.1      2.071      5.416
REMARK  5 active torsions:
REMARK  status: ('A' for Active; 'I' for Inactive)
REMARK       I    between atoms: N_3  and  C_1 
REMARK    1  A    between atoms: C_4  and  C_1 
REMARK    2  A    between atoms: N_2  and  C_4 
REMARK       I    between atoms: C_5  and  N_2 
REMARK    3  A    between atoms: C_18  and  C_4 
REMARK    4  A    between atoms: C_9  and  C_5 
REMARK    5  A    between atoms: C_7  and  N_6 
ROOT
ATOM      1  C   UNL d   1     -40.781  13.888  20.901  0.00  0.00     0.283 C 
ATOM      2  N   UNL d   1     -41.539  13.650  21.123  0.00  0.00    -0.268 N 
ATOM      3  N   UNL d   1     -43.048  13.176  21.565  0.00  0.00    -0.286 N 
ATOM      4  O   UNL d   1     -40.145  13.367  20.964  0.00  0.00    -0.265 OA
ATOM      5  C   UNL d   1     -42.170  14.175  21.058  0.00  0.00     0.102 A 
ATOM      6  C   UNL d   1     -41.657  12.885  21.409  0.00  0.00     0.102 A 
ATOM      7  C   UNL d   1     -42.419  12.648  21.632  0.00  0.00     0.101 A 
ATOM      8  C   UNL d   1     -42.924  13.932  21.281  0.00  0.00     0.101 A 
ENDROOT
BRANCH   1   9
ATOM      9  C   UNL d   1     -40.663  14.653  20.615  0.00  0.00     0.141 C 
BRANCH   9  10
ATOM     10  N   UNL d   1     -40.883  14.844  19.837  0.00  0.00    -0.203 NA
ATOM     11  C   UNL d   1     -40.313  14.869  19.245  0.00  0.00     0.279 C 
ATOM     12  O   UNL d   1     -39.529  14.706  19.420  0.00  0.00    -0.265 OA
BRANCH  11  13
ATOM     13  C   UNL d   1     -40.535  15.059  18.473  0.00  0.00     0.058 A 
ATOM     14  C   UNL d   1     -40.989  15.726  18.325  0.00  0.00     0.005 A 
ATOM     15  C   UNL d   1     -41.212  15.920  17.561  0.00  0.00     0.000 A 
ATOM     16  C   UNL d   1     -40.977  15.439  16.933  0.00  0.00     0.000 A 
ATOM     17  C   UNL d   1     -40.519  14.763  17.067  0.00  0.00     0.000 A 
ATOM     18  C   UNL d   1     -41.197  15.624  16.155  0.00  0.00     0.000 C 
ATOM     19  C   UNL d   1     -40.300  14.577  17.845  0.00  0.00     0.005 A 
ENDBRANCH  11  13
ENDBRANCH   9  10
BRANCH   9  20
ATOM     20  C   UNL d   1     -40.329  15.231  21.092  0.00  0.00     0.022 C 
ATOM     21  C   UNL d   1     -39.564  15.114  21.399  0.00  0.00     0.002 C 
ATOM     22  C   UNL d   1     -40.742  15.922  21.268  0.00  0.00     0.002 C 
ENDBRANCH   9  20
ENDBRANCH   1   9
BRANCH   3  23
ATOM     23  C   UNL d   1     -43.808  12.936  21.788  0.00  0.00     0.148 A 
ATOM     24  N   UNL d   1     -43.914  12.218  22.181  0.00  0.00    -0.227 NA
ATOM     25  C   UNL d   1     -44.672  11.982  22.401  0.00  0.00     0.101 A 
ATOM     26  C   UNL d   1     -45.322  12.455  22.234  0.00  0.00     0.021 A 
ATOM     27  C   UNL d   1     -45.210  13.180  21.837  0.00  0.00     0.005 A 
ATOM     28  C   UNL d   1     -44.454  13.417  21.616  0.00  0.00     0.037 A 
ENDBRANCH   3  23
TORSDOF 5
ENDMDL
