MODEL 1
REMARK VINA RESULT:      43.5      0.000      0.000
REMARK  6 active torsions:
REMARK  status: ('A' for Active; 'I' for Inactive)
REMARK       I    between atoms: C_2  and  N_1 
REMARK    1  A    between atoms: C_3  and  C_2 
REMARK    2  A    between atoms: C_12  and  C_4 
REMARK       I    between atoms: C_5  and  N_8 
REMARK    3  A    between atoms: C_6  and  C_5 
REMARK       I    between atoms: N_9  and  C_6 
REMARK    4  A    between atoms: N_8  and  C_12 
REMARK    5  A    between atoms: C_19  and  N_9 
REMARK    6  A    between atoms: C_21  and  C_19 
ROOT
ATOM      1  C   UNL d   1      14.828  13.417  -0.570  0.00  0.00     0.337 C 
ATOM      2  N   UNL d   1      15.113  14.166  -0.754  0.00  0.00    -0.199 NA
ATOM      3  O   UNL d   1      14.092  13.331  -0.190  0.00  0.00    -0.260 OA
ENDROOT
BRANCH   2   4
ATOM      4  C   UNL d   1      14.667  14.833  -0.561  0.00  0.00     0.146 C 
BRANCH   4   5
ATOM      5  C   UNL d   1      15.006  15.591  -0.633  0.00  0.00     0.190 A 
ATOM      6  N   UNL d   1      15.014  16.040  -1.325  0.00  0.00    -0.250 N 
ATOM      7  C   UNL d   1      14.719  15.894  -2.089  0.00  0.00     0.272 C 
ATOM      8  C   UNL d   1      15.405  16.749  -1.146  0.00  0.00     0.112 A 
ATOM      9  O   UNL d   1      14.331  15.180  -2.251  0.00  0.00    -0.266 OA
ATOM     10  C   UNL d   1      15.631  16.731  -0.355  0.00  0.00     0.144 A 
ATOM     11  O   UNL d   1      15.377  16.002  -0.041  0.00  0.00    -0.285 OA
BRANCH   7  12
ATOM     12  C   UNL d   1      14.809  16.457  -2.684  0.00  0.00     0.086 A 
ATOM     13  S   UNL d   1      15.007  17.264  -2.653  0.00  0.00    -0.082 SA
ATOM     14  C   UNL d   1      15.017  17.551  -3.441  0.00  0.00     0.036 A 
ATOM     15  C   UNL d   1      14.826  16.920  -3.939  0.00  0.00     0.008 A 
ATOM     16  C   UNL d   1      14.698  16.246  -3.482  0.00  0.00     0.012 A 
ENDBRANCH   7  12
ENDBRANCH   4   5
ENDBRANCH   2   4
BRANCH   1  17
ATOM     17  C   UNL d   1      15.267  12.760  -0.760  0.00  0.00     0.337 C 
ATOM     18  N   UNL d   1      14.916  12.099  -1.086  0.00  0.00    -0.202 NA
ATOM     19  O   UNL d   1      16.090  12.759  -0.621  0.00  0.00    -0.260 OA
BRANCH  18  20
ATOM     20  C   UNL d   1      14.096  12.096  -1.226  0.00  0.00     0.102 C 
BRANCH  20  21
ATOM     21  C   UNL d   1      13.817  12.024  -2.011  0.00  0.00     0.019 A 
ATOM     22  C   UNL d   1      13.031  11.849  -2.169  0.00  0.00     0.004 A 
ATOM     23  C   UNL d   1      12.771  11.781  -2.950  0.00  0.00     0.030 A 
ATOM     24  C   UNL d   1      13.287  11.885  -3.575  0.00  0.00     0.140 A 
ATOM     25  C   UNL d   1      14.075  12.061  -3.426  0.00  0.00     0.030 A 
ATOM     26  F   UNL d   1      13.016  11.815  -4.359  0.00  0.00    -0.204 F 
ATOM     27  C   UNL d   1      14.343  12.130  -2.651  0.00  0.00     0.004 A 
ENDBRANCH  20  21
ENDBRANCH  18  20
ENDBRANCH   1  17
TORSDOF 6
ENDMDL
MODEL 2
REMARK VINA RESULT:      46.5      3.002      5.682
REMARK  6 active torsions:
REMARK  status: ('A' for Active; 'I' for Inactive)
REMARK       I    between atoms: C_2  and  N_1 
REMARK    1  A    between atoms: C_3  and  C_2 
REMARK    2  A    between atoms: C_12  and  C_4 
REMARK       I    between atoms: C_5  and  N_8 
REMARK    3  A    between atoms: C_6  and  C_5 
REMARK       I    between atoms: N_9  and  C_6 
REMARK    4  A    between atoms: N_8  and  C_12 
REMARK    5  A    between atoms: C_19  and  N_9 
REMARK    6  A    between atoms: C_21  and  C_19 
ROOT
ATOM      1  C   UNL d   1      13.816  14.908  -4.990  0.00  0.00     0.337 C 
ATOM      2  N   UNL d   1      13.749  14.114  -4.791  0.00  0.00    -0.199 NA
ATOM      3  O   UNL d   1      13.607  15.496  -4.438  0.00  0.00    -0.260 OA
ENDROOT
BRANCH   2   4
ATOM      4  C   UNL d   1      13.474  13.900  -4.043  0.00  0.00     0.146 C 
BRANCH   4   5
ATOM      5  C   UNL d   1      13.420  13.093  -3.838  0.00  0.00     0.190 A 
ATOM      6  N   UNL d   1      13.673  12.769  -3.123  0.00  0.00    -0.250 N 
ATOM      7  C   UNL d   1      14.026  13.109  -2.451  0.00  0.00     0.272 C 
ATOM      8  C   UNL d   1      13.514  11.957  -3.159  0.00  0.00     0.112 A 
ATOM      9  O   UNL d   1      14.179  13.923  -2.432  0.00  0.00    -0.266 OA
ATOM     10  C   UNL d   1      13.168  11.789  -3.886  0.00  0.00     0.144 A 
ATOM     11  O   UNL d   1      13.113  12.506  -4.306  0.00  0.00    -0.285 OA
BRANCH   7  12
ATOM     12  C   UNL d   1      14.224  12.639  -1.803  0.00  0.00     0.086 A 
ATOM     13  S   UNL d   1      13.779  12.086  -1.369  0.00  0.00    -0.082 SA
ATOM     14  C   UNL d   1      14.278  11.780  -0.768  0.00  0.00     0.036 A 
ATOM     15  C   UNL d   1      15.015  12.147  -0.843  0.00  0.00     0.008 A 
ATOM     16  C   UNL d   1      14.988  12.674  -1.476  0.00  0.00     0.012 A 
ENDBRANCH   7  12
ENDBRANCH   4   5
ENDBRANCH   2   4
BRANCH   1  17
ATOM     17  C   UNL d   1      14.085  15.119  -5.726  0.00  0.00     0.337 C 
ATOM     18  N   UNL d   1      14.002  15.883  -6.003  0.00  0.00    -0.202 NA
ATOM     19  O   UNL d   1      14.455  14.548  -6.210  0.00  0.00    -0.260 OA
BRANCH  18  20
ATOM     20  C   UNL d   1      13.634  16.455  -5.524  0.00  0.00     0.102 C 
BRANCH  20  21
ATOM     21  C   UNL d   1      13.757  17.266  -5.691  0.00  0.00     0.019 A 
ATOM     22  C   UNL d   1      14.372  17.684  -5.344  0.00  0.00     0.004 A 
ATOM     23  C   UNL d   1      14.480  18.483  -5.519  0.00  0.00     0.030 A 
ATOM     24  C   UNL d   1      13.981  18.871  -6.037  0.00  0.00     0.140 A 
ATOM     25  C   UNL d   1      13.363  18.460  -6.388  0.00  0.00     0.030 A 
ATOM     26  F   UNL d   1      14.097  19.677  -6.207  0.00  0.00    -0.204 F 
ATOM     27  C   UNL d   1      13.247  17.663  -6.220  0.00  0.00     0.004 A 
ENDBRANCH  20  21
ENDBRANCH  18  20
ENDBRANCH   1  17
TORSDOF 6
ENDMDL
