MODEL 1
REMARK VINA RESULT:      -3.7      0.000      0.000
REMARK  8 active torsions:
REMARK  status: ('A' for Active; 'I' for Inactive)
REMARK    1  A    between atoms: C_25  and  N_5 
REMARK    2  A    between atoms: C_11  and  C_6 
REMARK       I    between atoms: N_15  and  C_11 
REMARK    3  A    between atoms: C_26  and  N_15 
REMARK    4  A    between atoms: C_17  and  C_26 
REMARK    5  A    between atoms: C_30  and  C_25 
REMARK    6  A    between atoms: O_29  and  C_30 
REMARK    7  A    between atoms: C_32  and  O_29 
REMARK    8  A    between atoms: C_31  and  C_32 
ROOT
ATOM      1  C   UNL d   1     -48.474  13.238  23.156  0.00  0.00     0.155 A 
ATOM      2  C   UNL d   1     -47.889  12.659  23.204  0.00  0.00     0.091 A 
ATOM      3  N   UNL d   1     -49.271  13.029  23.254  0.00  0.00    -0.210 NA
ATOM      4  N   UNL d   1     -48.891  11.665  23.446  0.00  0.00    -0.258 N 
ATOM      5  N   UNL d   1     -48.274  14.018  23.013  0.00  0.00    -0.272 N 
ATOM      6  C   UNL d   1     -46.897  13.661  22.961  0.00  0.00     0.094 A 
ATOM      7  C   UNL d   1     -49.477  12.244  23.398  0.00  0.00     0.152 A 
ATOM      8  C   UNL d   1     -48.096  11.867  23.349  0.00  0.00     0.269 A 
ATOM      9  C   UNL d   1     -47.483  14.240  22.914  0.00  0.00     0.175 A 
ATOM     10  C   UNL d   1     -47.094  12.868  23.106  0.00  0.00     0.016 A 
ATOM     11  C   UNL d   1     -50.269  12.039  23.494  0.00  0.00     0.035 A 
ATOM     12  C   UNL d   1     -49.088  10.872  23.590  0.00  0.00     0.084 A 
ATOM     13  N   UNL d   1     -47.277  15.024  22.770  0.00  0.00    -0.128 N 
ATOM     14  O   UNL d   1     -47.499  11.288  23.396  0.00  0.00    -0.266 OA
ATOM     15  C   UNL d   1     -49.888  10.676  23.686  0.00  0.00     0.019 A 
ATOM     16  C   UNL d   1     -50.474  11.255  23.638  0.00  0.00     0.005 A 
ATOM     17  C   UNL d   1     -50.851  12.615  23.447  0.00  0.00     0.003 C 
ENDROOT
BRANCH   6  18
ATOM     18  C   UNL d   1     -46.096  13.875  22.863  0.00  0.00     0.282 C 
ATOM     19  N   UNL d   1     -45.638  13.486  22.300  0.00  0.00    -0.204 NA
ATOM     20  O   UNL d   1     -45.773  14.472  23.330  0.00  0.00    -0.265 OA
BRANCH  19  21
ATOM     21  C   UNL d   1     -44.847  13.697  22.202  0.00  0.00     0.127 C 
BRANCH  21  22
ATOM     22  C   UNL d   1     -44.308  13.157  21.893  0.00  0.00     0.119 A 
ATOM     23  O   UNL d   1     -43.976  12.520  22.299  0.00  0.00    -0.304 OA
ATOM     24  C   UNL d   1     -43.468  12.122  21.785  0.00  0.00     0.123 A 
ATOM     25  C   UNL d   1     -43.483  12.513  21.057  0.00  0.00     0.029 A 
ATOM     26  C   UNL d   1     -44.008  13.154  21.131  0.00  0.00     0.028 A 
ENDBRANCH  21  22
ENDBRANCH  19  21
ENDBRANCH   6  18
BRANCH   5  27
ATOM     27  C   UNL d   1     -48.860  14.597  22.966  0.00  0.00     0.110 C 
BRANCH  27  28
ATOM     28  C   UNL d   1     -49.043  14.939  22.235  0.00  0.00     0.142 C 
BRANCH  28  29
ATOM     29  O   UNL d   1     -49.597  15.548  22.186  0.00  0.00    -0.298 OA
BRANCH  29  30
ATOM     30  C   UNL d   1     -50.079  15.606  21.521  0.00  0.00     0.168 C 
BRANCH  30  31
ATOM     31  C   UNL d   1     -50.849  15.304  21.533  0.00  0.00     0.261 C 
ATOM     32  O   UNL d   1     -51.064  14.715  20.997  0.00  0.00    -0.281 OA
ENDBRANCH  30  31
ENDBRANCH  29  30
ENDBRANCH  28  29
ENDBRANCH  27  28
ENDBRANCH   5  27
TORSDOF 8
ENDMDL
MODEL 2
REMARK VINA RESULT:      -3.6      6.197      9.407
REMARK  8 active torsions:
REMARK  status: ('A' for Active; 'I' for Inactive)
REMARK    1  A    between atoms: C_25  and  N_5 
REMARK    2  A    between atoms: C_11  and  C_6 
REMARK       I    between atoms: N_15  and  C_11 
REMARK    3  A    between atoms: C_26  and  N_15 
REMARK    4  A    between atoms: C_17  and  C_26 
REMARK    5  A    between atoms: C_30  and  C_25 
REMARK    6  A    between atoms: O_29  and  C_30 
REMARK    7  A    between atoms: C_32  and  O_29 
REMARK    8  A    between atoms: C_31  and  C_32 
ROOT
ATOM      1  C   UNL d   1     -39.942  15.337  19.102  0.00  0.00     0.155 A 
ATOM      2  C   UNL d   1     -39.127  15.456  19.056  0.00  0.00     0.091 A 
ATOM      3  N   UNL d   1     -40.404  15.374  18.414  0.00  0.00    -0.210 NA
ATOM      4  N   UNL d   1     -39.235  15.648  17.640  0.00  0.00    -0.258 N 
ATOM      5  N   UNL d   1     -40.297  15.183  19.822  0.00  0.00    -0.272 N 
ATOM      6  C   UNL d   1     -39.033  15.262  20.470  0.00  0.00     0.094 A 
ATOM      7  C   UNL d   1     -40.050  15.529  17.686  0.00  0.00     0.152 A 
ATOM      8  C   UNL d   1     -38.769  15.612  18.322  0.00  0.00     0.269 A 
ATOM      9  C   UNL d   1     -39.848  15.143  20.516  0.00  0.00     0.175 A 
ATOM     10  C   UNL d   1     -38.666  15.419  19.742  0.00  0.00     0.016 A 
ATOM     11  C   UNL d   1     -40.511  15.565  17.006  0.00  0.00     0.035 A 
ATOM     12  C   UNL d   1     -38.868  15.805  16.913  0.00  0.00     0.084 A 
ATOM     13  N   UNL d   1     -40.201  14.988  21.242  0.00  0.00    -0.128 N 
ATOM     14  O   UNL d   1     -37.946  15.731  18.283  0.00  0.00    -0.266 OA
ATOM     15  C   UNL d   1     -39.342  15.839  16.232  0.00  0.00     0.019 A 
ATOM     16  C   UNL d   1     -40.157  15.721  16.278  0.00  0.00     0.005 A 
ATOM     17  C   UNL d   1     -41.322  15.447  17.051  0.00  0.00     0.003 C 
ENDROOT
BRANCH   6  18
ATOM     18  C   UNL d   1     -38.570  15.224  21.163  0.00  0.00     0.282 C 
ATOM     19  N   UNL d   1     -38.398  14.491  21.498  0.00  0.00    -0.204 NA
ATOM     20  O   UNL d   1     -38.291  15.920  21.506  0.00  0.00    -0.265 OA
BRANCH  19  21
ATOM     21  C   UNL d   1     -37.941  14.453  22.184  0.00  0.00     0.127 C 
BRANCH  21  22
ATOM     22  C   UNL d   1     -37.941  13.773  22.646  0.00  0.00     0.119 A 
ATOM     23  O   UNL d   1     -37.940  12.997  22.363  0.00  0.00    -0.304 OA
ATOM     24  C   UNL d   1     -37.940  12.486  23.010  0.00  0.00     0.123 A 
ATOM     25  C   UNL d   1     -37.941  12.944  23.698  0.00  0.00     0.029 A 
ATOM     26  C   UNL d   1     -37.941  13.743  23.464  0.00  0.00     0.028 A 
ENDBRANCH  21  22
ENDBRANCH  19  21
ENDBRANCH   6  18
BRANCH   5  27
ATOM     27  C   UNL d   1     -41.113  15.064  19.867  0.00  0.00     0.110 C 
BRANCH  27  28
ATOM     28  C   UNL d   1     -41.429  14.614  20.484  0.00  0.00     0.142 C 
BRANCH  28  29
ATOM     29  O   UNL d   1     -42.185  14.290  20.420  0.00  0.00    -0.298 OA
BRANCH  29  30
ATOM     30  C   UNL d   1     -42.319  13.517  20.670  0.00  0.00     0.168 C 
BRANCH  30  31
ATOM     31  C   UNL d   1     -43.037  13.307  21.023  0.00  0.00     0.261 C 
ATOM     32  O   UNL d   1     -43.357  12.560  20.882  0.00  0.00    -0.281 OA
ENDBRANCH  30  31
ENDBRANCH  29  30
ENDBRANCH  28  29
ENDBRANCH  27  28
ENDBRANCH   5  27
TORSDOF 8
ENDMDL
MODEL 3
REMARK VINA RESULT:      -3.5      4.419      8.453
REMARK  8 active torsions:
REMARK  status: ('A' for Active; 'I' for Inactive)
REMARK    1  A    between atoms: C_25  and  N_5 
REMARK    2  A    between atoms: C_11  and  C_6 
REMARK       I    between atoms: N_15  and  C_11 
REMARK    3  A    between atoms: C_26  and  N_15 
REMARK    4  A    between atoms: C_17  and  C_26 
REMARK    5  A    between atoms: C_30  and  C_25 
REMARK    6  A    between atoms: O_29  and  C_30 
REMARK    7  A    between atoms: C_32  and  O_29 
REMARK    8  A    between atoms: C_31  and  C_32 
ROOT
ATOM      1  C   UNL d   1     -40.315  14.522  21.130  0.00  0.00     0.155 A 
ATOM      2  C   UNL d   1     -40.482  13.956  21.706  0.00  0.00     0.091 A 
ATOM      3  N   UNL d   1     -39.634  14.991  21.196  0.00  0.00    -0.210 NA
ATOM      4  N   UNL d   1     -39.291  14.325  22.413  0.00  0.00    -0.258 N 
ATOM      5  N   UNL d   1     -40.818  14.624  20.494  0.00  0.00    -0.272 N 
ATOM      6  C   UNL d   1     -41.668  13.597  20.993  0.00  0.00     0.094 A 
ATOM      7  C   UNL d   1     -39.124  14.891  21.836  0.00  0.00     0.152 A 
ATOM      8  C   UNL d   1     -39.968  13.855  22.353  0.00  0.00     0.269 A 
ATOM      9  C   UNL d   1     -41.501  14.163  20.416  0.00  0.00     0.175 A 
ATOM     10  C   UNL d   1     -41.161  13.489  21.641  0.00  0.00     0.016 A 
ATOM     11  C   UNL d   1     -38.449  15.358  21.898  0.00  0.00     0.035 A 
ATOM     12  C   UNL d   1     -38.785  14.217  23.061  0.00  0.00     0.084 A 
ATOM     13  N   UNL d   1     -42.010  14.262  19.777  0.00  0.00    -0.128 N 
ATOM     14  O   UNL d   1     -40.142  13.282  22.931  0.00  0.00    -0.266 OA
ATOM     15  C   UNL d   1     -38.107  14.692  23.115  0.00  0.00     0.019 A 
ATOM     16  C   UNL d   1     -37.940  15.259  22.538  0.00  0.00     0.005 A 
ATOM     17  C   UNL d   1     -38.284  15.921  21.325  0.00  0.00     0.003 C 
ENDROOT
BRANCH   6  18
ATOM     18  C   UNL d   1     -42.354  13.126  20.924  0.00  0.00     0.282 C 
ATOM     19  N   UNL d   1     -42.979  13.240  21.448  0.00  0.00    -0.204 NA
ATOM     20  O   UNL d   1     -42.398  12.553  20.332  0.00  0.00    -0.265 OA
BRANCH  19  21
ATOM     21  C   UNL d   1     -43.657  12.775  21.380  0.00  0.00     0.127 C 
BRANCH  21  22
ATOM     22  C   UNL d   1     -44.341  12.978  21.789  0.00  0.00     0.119 A 
ATOM     23  O   UNL d   1     -44.638  13.742  21.887  0.00  0.00    -0.304 OA
ATOM     24  C   UNL d   1     -45.331  13.696  22.331  0.00  0.00     0.123 A 
ATOM     25  C   UNL d   1     -45.467  12.901  22.511  0.00  0.00     0.029 A 
ATOM     26  C   UNL d   1     -44.848  12.460  22.172  0.00  0.00     0.028 A 
ENDBRANCH  21  22
ENDBRANCH  19  21
ENDBRANCH   6  18
BRANCH   5  27
ATOM     27  C   UNL d   1     -40.652  15.190  19.917  0.00  0.00     0.110 C 
BRANCH  27  28
ATOM     28  C   UNL d   1     -40.553  14.959  19.129  0.00  0.00     0.142 C 
BRANCH  28  29
ATOM     29  O   UNL d   1     -40.288  15.500  18.565  0.00  0.00    -0.298 OA
BRANCH  29  30
ATOM     30  C   UNL d   1     -39.996  15.226  17.846  0.00  0.00     0.168 C 
BRANCH  30  31
ATOM     31  C   UNL d   1     -40.286  15.527  17.132  0.00  0.00     0.261 C 
ATOM     32  O   UNL d   1     -39.757  15.792  16.557  0.00  0.00    -0.281 OA
ENDBRANCH  30  31
ENDBRANCH  29  30
ENDBRANCH  28  29
ENDBRANCH  27  28
ENDBRANCH   5  27
TORSDOF 8
ENDMDL
MODEL 4
REMARK VINA RESULT:      -1.9      4.964      9.331
REMARK  8 active torsions:
REMARK  status: ('A' for Active; 'I' for Inactive)
REMARK    1  A    between atoms: C_25  and  N_5 
REMARK    2  A    between atoms: C_11  and  C_6 
REMARK       I    between atoms: N_15  and  C_11 
REMARK    3  A    between atoms: C_26  and  N_15 
REMARK    4  A    between atoms: C_17  and  C_26 
REMARK    5  A    between atoms: C_30  and  C_25 
REMARK    6  A    between atoms: O_29  and  C_30 
REMARK    7  A    between atoms: C_32  and  O_29 
REMARK    8  A    between atoms: C_31  and  C_32 
ROOT
ATOM      1  C   UNL d   1     -39.973  15.077  19.367  0.00  0.00     0.155 A 
ATOM      2  C   UNL d   1     -40.717  15.037  19.013  0.00  0.00     0.091 A 
ATOM      3  N   UNL d   1     -39.292  15.118  18.894  0.00  0.00    -0.210 NA
ATOM      4  N   UNL d   1     -40.103  15.081  17.718  0.00  0.00    -0.258 N 
ATOM      5  N   UNL d   1     -39.902  15.075  20.181  0.00  0.00    -0.272 N 
ATOM      6  C   UNL d   1     -41.318  14.994  20.310  0.00  0.00     0.094 A 
ATOM      7  C   UNL d   1     -39.359  15.120  18.072  0.00  0.00     0.152 A 
ATOM      8  C   UNL d   1     -40.785  15.039  18.183  0.00  0.00     0.269 A 
ATOM      9  C   UNL d   1     -40.574  15.034  20.664  0.00  0.00     0.175 A 
ATOM     10  C   UNL d   1     -41.396  14.995  19.483  0.00  0.00     0.016 A 
ATOM     11  C   UNL d   1     -38.682  15.162  17.607  0.00  0.00     0.035 A 
ATOM     12  C   UNL d   1     -40.182  15.082  16.893  0.00  0.00     0.084 A 
ATOM     13  N   UNL d   1     -40.507  15.032  21.484  0.00  0.00    -0.128 N 
ATOM     14  O   UNL d   1     -41.540  14.999  17.833  0.00  0.00    -0.266 OA
ATOM     15  C   UNL d   1     -39.493  15.124  16.431  0.00  0.00     0.019 A 
ATOM     16  C   UNL d   1     -38.749  15.163  16.785  0.00  0.00     0.005 A 
ATOM     17  C   UNL d   1     -37.942  15.201  17.959  0.00  0.00     0.003 C 
ENDROOT
BRANCH   6  18
ATOM     18  C   UNL d   1     -42.001  14.952  20.787  0.00  0.00     0.282 C 
ATOM     19  N   UNL d   1     -42.355  14.222  20.928  0.00  0.00    -0.204 NA
ATOM     20  O   UNL d   1     -42.314  15.642  21.113  0.00  0.00    -0.265 OA
BRANCH  19  21
ATOM     21  C   UNL d   1     -43.030  14.180  21.400  0.00  0.00     0.127 C 
BRANCH  21  22
ATOM     22  C   UNL d   1     -43.363  13.451  21.584  0.00  0.00     0.119 A 
ATOM     23  O   UNL d   1     -44.070  13.332  21.992  0.00  0.00    -0.304 OA
ATOM     24  C   UNL d   1     -44.199  12.520  22.057  0.00  0.00     0.123 A 
ATOM     25  C   UNL d   1     -43.570  12.132  21.687  0.00  0.00     0.029 A 
ATOM     26  C   UNL d   1     -43.055  12.716  21.396  0.00  0.00     0.028 A 
ENDBRANCH  21  22
ENDBRANCH  19  21
ENDBRANCH   6  18
BRANCH   5  27
ATOM     27  C   UNL d   1     -39.158  15.115  20.535  0.00  0.00     0.110 C 
BRANCH  27  28
ATOM     28  C   UNL d   1     -38.871  14.469  20.964  0.00  0.00     0.142 C 
BRANCH  28  29
ATOM     29  O   UNL d   1     -38.103  14.475  21.266  0.00  0.00    -0.298 OA
BRANCH  29  30
ATOM     30  C   UNL d   1     -37.940  14.078  21.967  0.00  0.00     0.168 C 
BRANCH  30  31
ATOM     31  C   UNL d   1     -38.258  13.328  22.110  0.00  0.00     0.261 C 
ATOM     32  O   UNL d   1     -37.945  12.860  22.713  0.00  0.00    -0.281 OA
ENDBRANCH  30  31
ENDBRANCH  29  30
ENDBRANCH  28  29
ENDBRANCH  27  28
ENDBRANCH   5  27
TORSDOF 8
ENDMDL
MODEL 5
REMARK VINA RESULT:      -1.8      1.243      3.174
REMARK  8 active torsions:
REMARK  status: ('A' for Active; 'I' for Inactive)
REMARK    1  A    between atoms: C_25  and  N_5 
REMARK    2  A    between atoms: C_11  and  C_6 
REMARK       I    between atoms: N_15  and  C_11 
REMARK    3  A    between atoms: C_26  and  N_15 
REMARK    4  A    between atoms: C_17  and  C_26 
REMARK    5  A    between atoms: C_30  and  C_25 
REMARK    6  A    between atoms: O_29  and  C_30 
REMARK    7  A    between atoms: C_32  and  O_29 
REMARK    8  A    between atoms: C_31  and  C_32 
ROOT
ATOM      1  C   UNL d   1     -48.204  12.919  22.937  0.00  0.00     0.155 A 
ATOM      2  C   UNL d   1     -48.163  13.648  22.552  0.00  0.00     0.091 A 
ATOM      3  N   UNL d   1     -48.941  12.554  23.053  0.00  0.00    -0.210 NA
ATOM      4  N   UNL d   1     -49.588  13.648  22.401  0.00  0.00    -0.258 N 
ATOM      5  N   UNL d   1     -47.524  12.554  23.204  0.00  0.00    -0.272 N 
ATOM      6  C   UNL d   1     -46.742  13.636  22.710  0.00  0.00     0.094 A 
ATOM      7  C   UNL d   1     -49.629  12.919  22.785  0.00  0.00     0.152 A 
ATOM      8  C   UNL d   1     -48.858  14.016  22.282  0.00  0.00     0.269 A 
ATOM      9  C   UNL d   1     -46.783  12.907  23.095  0.00  0.00     0.175 A 
ATOM     10  C   UNL d   1     -47.430  14.011  22.436  0.00  0.00     0.016 A 
ATOM     11  C   UNL d   1     -50.358  12.555  22.903  0.00  0.00     0.035 A 
ATOM     12  C   UNL d   1     -50.275  14.023  22.127  0.00  0.00     0.084 A 
ATOM     13  N   UNL d   1     -46.095  12.543  23.362  0.00  0.00    -0.128 N 
ATOM     14  O   UNL d   1     -48.809  14.752  21.894  0.00  0.00    -0.266 OA
ATOM     15  C   UNL d   1     -51.005  13.648  22.250  0.00  0.00     0.019 A 
ATOM     16  C   UNL d   1     -51.046  12.919  22.634  0.00  0.00     0.005 A 
ATOM     17  C   UNL d   1     -50.398  11.830  23.285  0.00  0.00     0.003 C 
ENDROOT
BRANCH   6  18
ATOM     18  C   UNL d   1     -46.000  14.001  22.594  0.00  0.00     0.282 C 
ATOM     19  N   UNL d   1     -45.412  13.603  22.177  0.00  0.00    -0.204 NA
ATOM     20  O   UNL d   1     -45.864  14.755  22.898  0.00  0.00    -0.265 OA
BRANCH  19  21
ATOM     21  C   UNL d   1     -44.679  13.963  22.062  0.00  0.00     0.127 C 
BRANCH  21  22
ATOM     22  C   UNL d   1     -44.051  13.535  21.746  0.00  0.00     0.119 A 
ATOM     23  O   UNL d   1     -43.941  12.720  21.811  0.00  0.00    -0.304 OA
ATOM     24  C   UNL d   1     -43.245  12.520  21.416  0.00  0.00     0.123 A 
ATOM     25  C   UNL d   1     -42.920  13.214  21.104  0.00  0.00     0.029 A 
ATOM     26  C   UNL d   1     -43.426  13.840  21.313  0.00  0.00     0.028 A 
ENDBRANCH  21  22
ENDBRANCH  19  21
ENDBRANCH   6  18
BRANCH   5  27
ATOM     27  C   UNL d   1     -47.565  11.826  23.589  0.00  0.00     0.110 C 
BRANCH  27  28
ATOM     28  C   UNL d   1     -46.878  11.377  23.696  0.00  0.00     0.142 C 
BRANCH  28  29
ATOM     29  O   UNL d   1     -46.837  10.602  23.417  0.00  0.00    -0.298 OA
BRANCH  29  30
ATOM     30  C   UNL d   1     -46.249  10.099  23.698  0.00  0.00     0.168 C 
BRANCH  30  31
ATOM     31  C   UNL d   1     -45.643   9.840  23.198  0.00  0.00     0.261 C 
ATOM     32  O   UNL d   1     -44.920   9.609  23.521  0.00  0.00    -0.281 OA
ENDBRANCH  30  31
ENDBRANCH  29  30
ENDBRANCH  28  29
ENDBRANCH  27  28
ENDBRANCH   5  27
TORSDOF 8
ENDMDL
MODEL 6
REMARK VINA RESULT:      -1.4      1.666      3.235
REMARK  8 active torsions:
REMARK  status: ('A' for Active; 'I' for Inactive)
REMARK    1  A    between atoms: C_25  and  N_5 
REMARK    2  A    between atoms: C_11  and  C_6 
REMARK       I    between atoms: N_15  and  C_11 
REMARK    3  A    between atoms: C_26  and  N_15 
REMARK    4  A    between atoms: C_17  and  C_26 
REMARK    5  A    between atoms: C_30  and  C_25 
REMARK    6  A    between atoms: O_29  and  C_30 
REMARK    7  A    between atoms: C_32  and  O_29 
REMARK    8  A    between atoms: C_31  and  C_32 
ROOT
ATOM      1  C   UNL d   1     -48.335  13.053  22.864  0.00  0.00     0.155 A 
ATOM      2  C   UNL d   1     -48.702  12.322  22.760  0.00  0.00     0.091 A 
ATOM      3  N   UNL d   1     -48.737  13.749  22.655  0.00  0.00    -0.210 NA
ATOM      4  N   UNL d   1     -49.866  12.977  22.243  0.00  0.00    -0.258 N 
ATOM      5  N   UNL d   1     -47.579  13.097  23.170  0.00  0.00    -0.272 N 
ATOM      6  C   UNL d   1     -47.534  11.679  23.278  0.00  0.00     0.094 A 
ATOM      7  C   UNL d   1     -49.500  13.709  22.346  0.00  0.00     0.152 A 
ATOM      8  C   UNL d   1     -49.472  12.281  22.448  0.00  0.00     0.269 A 
ATOM      9  C   UNL d   1     -47.168  12.411  23.381  0.00  0.00     0.175 A 
ATOM     10  C   UNL d   1     -48.302  11.628  22.968  0.00  0.00     0.016 A 
ATOM     11  C   UNL d   1     -49.895  14.402  22.141  0.00  0.00     0.035 A 
ATOM     12  C   UNL d   1     -50.633  12.926  21.933  0.00  0.00     0.084 A 
ATOM     13  N   UNL d   1     -46.406  12.450  23.690  0.00  0.00    -0.128 N 
ATOM     14  O   UNL d   1     -49.835  11.538  22.347  0.00  0.00    -0.266 OA
ATOM     15  C   UNL d   1     -51.024  13.629  21.729  0.00  0.00     0.019 A 
ATOM     16  C   UNL d   1     -50.658  14.361  21.832  0.00  0.00     0.005 A 
ATOM     17  C   UNL d   1     -49.531  15.129  22.244  0.00  0.00     0.003 C 
ENDROOT
BRANCH   6  18
ATOM     18  C   UNL d   1     -47.128  10.980  23.488  0.00  0.00     0.282 C 
ATOM     19  N   UNL d   1     -46.305  10.972  23.484  0.00  0.00    -0.204 NA
ATOM     20  O   UNL d   1     -47.556  10.307  23.698  0.00  0.00    -0.265 OA
BRANCH  19  21
ATOM     21  C   UNL d   1     -45.903  10.281  23.692  0.00  0.00     0.127 C 
BRANCH  21  22
ATOM     22  C   UNL d   1     -45.081  10.255  23.663  0.00  0.00     0.119 A 
ATOM     23  O   UNL d   1     -44.579  10.906  23.606  0.00  0.00    -0.304 OA
ATOM     24  C   UNL d   1     -43.801  10.633  23.594  0.00  0.00     0.123 A 
ATOM     25  C   UNL d   1     -43.819   9.808  23.643  0.00  0.00     0.029 A 
ATOM     26  C   UNL d   1     -44.618   9.580  23.686  0.00  0.00     0.028 A 
ENDBRANCH  21  22
ENDBRANCH  19  21
ENDBRANCH   6  18
BRANCH   5  27
ATOM     27  C   UNL d   1     -47.213  13.829  23.273  0.00  0.00     0.110 C 
BRANCH  27  28
ATOM     28  C   UNL d   1     -46.614  14.067  22.754  0.00  0.00     0.142 C 
BRANCH  28  29
ATOM     29  O   UNL d   1     -46.071  14.646  22.980  0.00  0.00    -0.298 OA
BRANCH  29  30
ATOM     30  C   UNL d   1     -45.275  14.551  22.794  0.00  0.00     0.168 C 
BRANCH  30  31
ATOM     31  C   UNL d   1     -45.035  14.464  22.007  0.00  0.00     0.261 C 
ATOM     32  O   UNL d   1     -44.257  14.245  21.841  0.00  0.00    -0.281 OA
ENDBRANCH  30  31
ENDBRANCH  29  30
ENDBRANCH  28  29
ENDBRANCH  27  28
ENDBRANCH   5  27
TORSDOF 8
ENDMDL
MODEL 7
REMARK VINA RESULT:      -1.3      1.407      1.784
REMARK  8 active torsions:
REMARK  status: ('A' for Active; 'I' for Inactive)
REMARK    1  A    between atoms: C_25  and  N_5 
REMARK    2  A    between atoms: C_11  and  C_6 
REMARK       I    between atoms: N_15  and  C_11 
REMARK    3  A    between atoms: C_26  and  N_15 
REMARK    4  A    between atoms: C_17  and  C_26 
REMARK    5  A    between atoms: C_30  and  C_25 
REMARK    6  A    between atoms: O_29  and  C_30 
REMARK    7  A    between atoms: C_32  and  O_29 
REMARK    8  A    between atoms: C_31  and  C_32 
ROOT
ATOM      1  C   UNL d   1     -47.815  12.917  23.290  0.00  0.00     0.155 A 
ATOM      2  C   UNL d   1     -47.580  12.127  23.252  0.00  0.00     0.091 A 
ATOM      3  N   UNL d   1     -48.614  13.105  23.410  0.00  0.00    -0.210 NA
ATOM      4  N   UNL d   1     -48.937  11.714  23.453  0.00  0.00    -0.258 N 
ATOM      5  N   UNL d   1     -47.264  13.516  23.210  0.00  0.00    -0.272 N 
ATOM      6  C   UNL d   1     -46.229  12.552  23.051  0.00  0.00     0.094 A 
ATOM      7  C   UNL d   1     -49.172  12.504  23.491  0.00  0.00     0.152 A 
ATOM      8  C   UNL d   1     -48.143  11.521  23.334  0.00  0.00     0.269 A 
ATOM      9  C   UNL d   1     -46.464  13.342  23.089  0.00  0.00     0.175 A 
ATOM     10  C   UNL d   1     -46.784  11.939  23.132  0.00  0.00     0.016 A 
ATOM     11  C   UNL d   1     -49.964  12.695  23.610  0.00  0.00     0.035 A 
ATOM     12  C   UNL d   1     -49.491  11.102  23.534  0.00  0.00     0.084 A 
ATOM     13  N   UNL d   1     -45.907  13.942  23.008  0.00  0.00    -0.128 N 
ATOM     14  O   UNL d   1     -47.899  10.725  23.294  0.00  0.00    -0.266 OA
ATOM     15  C   UNL d   1     -50.287  11.304  23.654  0.00  0.00     0.019 A 
ATOM     16  C   UNL d   1     -50.522  12.094  23.692  0.00  0.00     0.005 A 
ATOM     17  C   UNL d   1     -50.197  13.480  23.648  0.00  0.00     0.003 C 
ENDROOT
BRANCH   6  18
ATOM     18  C   UNL d   1     -45.425  12.365  22.930  0.00  0.00     0.282 C 
ATOM     19  N   UNL d   1     -45.057  11.815  23.420  0.00  0.00    -0.204 NA
ATOM     20  O   UNL d   1     -45.008  12.733  22.321  0.00  0.00    -0.265 OA
BRANCH  19  21
ATOM     21  C   UNL d   1     -44.262  11.631  23.301  0.00  0.00     0.127 C 
BRANCH  21  22
ATOM     22  C   UNL d   1     -43.993  10.861  23.412  0.00  0.00     0.119 A 
ATOM     23  O   UNL d   1     -43.206  10.615  23.382  0.00  0.00    -0.304 OA
ATOM     24  C   UNL d   1     -43.183   9.803  23.524  0.00  0.00     0.123 A 
ATOM     25  C   UNL d   1     -43.958   9.542  23.642  0.00  0.00     0.029 A 
ATOM     26  C   UNL d   1     -44.456  10.205  23.572  0.00  0.00     0.028 A 
ENDBRANCH  21  22
ENDBRANCH  19  21
ENDBRANCH   6  18
BRANCH   5  27
ATOM     27  C   UNL d   1     -47.499  14.306  23.248  0.00  0.00     0.110 C 
BRANCH  27  28
ATOM     28  C   UNL d   1     -47.981  14.622  22.654  0.00  0.00     0.142 C 
BRANCH  28  29
ATOM     29  O   UNL d   1     -48.050  15.439  22.563  0.00  0.00    -0.298 OA
BRANCH  29  30
ATOM     30  C   UNL d   1     -48.696  15.748  22.157  0.00  0.00     0.168 C 
BRANCH  30  31
ATOM     31  C   UNL d   1     -48.657  15.879  21.342  0.00  0.00     0.261 C 
ATOM     32  O   UNL d   1     -49.351  15.874  20.895  0.00  0.00    -0.281 OA
ENDBRANCH  30  31
ENDBRANCH  29  30
ENDBRANCH  28  29
ENDBRANCH  27  28
ENDBRANCH   5  27
TORSDOF 8
ENDMDL
MODEL 8
REMARK VINA RESULT:      -1.1      1.116      2.863
REMARK  8 active torsions:
REMARK  status: ('A' for Active; 'I' for Inactive)
REMARK    1  A    between atoms: C_25  and  N_5 
REMARK    2  A    between atoms: C_11  and  C_6 
REMARK       I    between atoms: N_15  and  C_11 
REMARK    3  A    between atoms: C_26  and  N_15 
REMARK    4  A    between atoms: C_17  and  C_26 
REMARK    5  A    between atoms: C_30  and  C_25 
REMARK    6  A    between atoms: O_29  and  C_30 
REMARK    7  A    between atoms: C_32  and  O_29 
REMARK    8  A    between atoms: C_31  and  C_32 
ROOT
ATOM      1  C   UNL d   1     -48.364  13.763  23.061  0.00  0.00     0.155 A 
ATOM      2  C   UNL d   1     -48.091  14.455  22.703  0.00  0.00     0.091 A 
ATOM      3  N   UNL d   1     -49.180  13.631  23.137  0.00  0.00    -0.210 NA
ATOM      4  N   UNL d   1     -49.444  14.882  22.498  0.00  0.00    -0.258 N 
ATOM      5  N   UNL d   1     -47.835  13.207  23.341  0.00  0.00    -0.272 N 
ATOM      6  C   UNL d   1     -46.746  14.018  22.913  0.00  0.00     0.094 A 
ATOM      7  C   UNL d   1     -49.716  14.190  22.856  0.00  0.00     0.152 A 
ATOM      8  C   UNL d   1     -48.633  15.019  22.420  0.00  0.00     0.269 A 
ATOM      9  C   UNL d   1     -47.018  13.326  23.271  0.00  0.00     0.175 A 
ATOM     10  C   UNL d   1     -47.278  14.587  22.627  0.00  0.00     0.016 A 
ATOM     11  C   UNL d   1     -50.525  14.056  22.933  0.00  0.00     0.035 A 
ATOM     12  C   UNL d   1     -49.975  15.450  22.212  0.00  0.00     0.084 A 
ATOM     13  N   UNL d   1     -46.483  12.768  23.551  0.00  0.00    -0.128 N 
ATOM     14  O   UNL d   1     -48.350  15.715  22.060  0.00  0.00    -0.266 OA
ATOM     15  C   UNL d   1     -50.789  15.306  22.295  0.00  0.00     0.019 A 
ATOM     16  C   UNL d   1     -51.061  14.615  22.652  0.00  0.00     0.005 A 
ATOM     17  C   UNL d   1     -50.796  13.368  23.288  0.00  0.00     0.003 C 
ENDROOT
BRANCH   6  18
ATOM     18  C   UNL d   1     -45.925  14.148  22.838  0.00  0.00     0.282 C 
ATOM     19  N   UNL d   1     -45.496  13.725  22.277  0.00  0.00    -0.204 NA
ATOM     20  O   UNL d   1     -45.553  14.699  23.327  0.00  0.00    -0.265 OA
BRANCH  19  21
ATOM     21  C   UNL d   1     -44.684  13.854  22.202  0.00  0.00     0.127 C 
BRANCH  21  22
ATOM     22  C   UNL d   1     -44.198  13.268  21.891  0.00  0.00     0.119 A 
ATOM     23  O   UNL d   1     -44.055  12.529  22.229  0.00  0.00    -0.304 OA
ATOM     24  C   UNL d   1     -43.537  12.115  21.738  0.00  0.00     0.123 A 
ATOM     25  C   UNL d   1     -43.358  12.598  21.091  0.00  0.00     0.029 A 
ATOM     26  C   UNL d   1     -43.772  13.312  21.193  0.00  0.00     0.028 A 
ENDBRANCH  21  22
ENDBRANCH  19  21
ENDBRANCH   6  18
BRANCH   5  27
ATOM     27  C   UNL d   1     -48.107  12.515  23.698  0.00  0.00     0.110 C 
BRANCH  27  28
ATOM     28  C   UNL d   1     -47.766  11.788  23.502  0.00  0.00     0.142 C 
BRANCH  28  29
ATOM     29  O   UNL d   1     -48.241  11.132  23.344  0.00  0.00    -0.298 OA
BRANCH  29  30
ATOM     30  C   UNL d   1     -48.005  10.587  22.774  0.00  0.00     0.168 C 
BRANCH  30  31
ATOM     31  C   UNL d   1     -48.418  10.520  22.061  0.00  0.00     0.261 C 
ATOM     32  O   UNL d   1     -48.057  10.159  21.413  0.00  0.00    -0.281 OA
ENDBRANCH  30  31
ENDBRANCH  29  30
ENDBRANCH  28  29
ENDBRANCH  27  28
ENDBRANCH   5  27
TORSDOF 8
ENDMDL
