MODEL 1
REMARK VINA RESULT:      -3.2      0.000      0.000
REMARK  7 active torsions:
REMARK  status: ('A' for Active; 'I' for Inactive)
REMARK    1  A    between atoms: C_6  and  C_1 
REMARK    2  A    between atoms: O_8  and  C_6 
REMARK    3  A    between atoms: C_13  and  O_8 
REMARK    4  A    between atoms: C_9  and  C_13 
REMARK    5  A    between atoms: C_15  and  C_9 
REMARK    6  A    between atoms: C_19  and  C_11 
REMARK    7  A    between atoms: C_16  and  C_19 
ROOT
ATOM      1  C   UNL d   1      32.432  18.183 -23.863  0.00  0.00     0.127 A 
ATOM      2  C   UNL d   1      31.745  18.180 -24.375  0.00  0.00     0.305 A 
ATOM      3  O   UNL d   1      31.311  17.503 -24.494  0.00  0.00    -0.273 OA
ATOM      4  C   UNL d   1      32.639  17.507 -23.505  0.00  0.00     0.013 A 
ATOM      5  C   UNL d   1      31.550  16.813 -24.107  0.00  0.00     0.103 A 
ATOM      6  C   UNL d   1      32.212  16.815 -23.615  0.00  0.00     0.023 A 
ATOM      7  O   UNL d   1      31.469  18.886 -24.794  0.00  0.00    -0.259 OA
ATOM      8  C   UNL d   1      31.115  16.130 -24.225  0.00  0.00     0.023 A 
ATOM      9  C   UNL d   1      32.444  16.135 -23.236  0.00  0.00     0.002 A 
ATOM     10  C   UNL d   1      32.044  15.457 -23.330  0.00  0.00     0.000 A 
ATOM     11  C   UNL d   1      31.357  15.455 -23.841  0.00  0.00     0.002 A 
ENDROOT
BRANCH   1  12
ATOM     12  C   UNL d   1      32.897  18.860 -23.722  0.00  0.00     0.305 C 
ATOM     13  O   UNL d   1      33.204  19.299 -24.364  0.00  0.00    -0.259 OA
BRANCH  12  14
ATOM     14  O   UNL d   1      33.064  19.114 -22.919  0.00  0.00    -0.268 OA
BRANCH  14  15
ATOM     15  C   UNL d   1      33.015  19.908 -22.774  0.00  0.00     0.168 C 
BRANCH  15  16
ATOM     16  C   UNL d   1      33.060  20.168 -21.992  0.00  0.00     0.220 C 
ATOM     17  O   UNL d   1      33.240  19.634 -21.394  0.00  0.00    -0.284 OA
BRANCH  16  18
ATOM     18  C   UNL d   1      32.927  20.969 -21.791  0.00  0.00     0.041 A 
ATOM     19  C   UNL d   1      32.496  21.152 -21.126  0.00  0.00     0.003 A 
ATOM     20  C   UNL d   1      32.368  21.945 -20.931  0.00  0.00     0.000 A 
ATOM     21  C   UNL d   1      32.684  22.566 -21.422  0.00  0.00     0.000 A 
ATOM     22  C   UNL d   1      33.118  22.358 -22.092  0.00  0.00     0.000 A 
ATOM     23  C   UNL d   1      33.239  21.556 -22.275  0.00  0.00     0.003 A 
ENDBRANCH  16  18
ENDBRANCH  15  16
ENDBRANCH  14  15
ENDBRANCH  12  14
ENDBRANCH   1  12
BRANCH   8  24
ATOM     24  C   UNL d   1      30.450  16.102 -24.712  0.00  0.00     0.002 C 
BRANCH  24  25
ATOM     25  C   UNL d   1      29.792  15.707 -24.455  0.00  0.00     0.000 C 
ATOM     26  C   UNL d   1      29.136  15.585 -24.993  0.00  0.00     0.000 C 
ENDBRANCH  24  25
ENDBRANCH   8  24
TORSDOF 7
ENDMDL
MODEL 2
REMARK VINA RESULT:      -2.3      1.704      2.718
REMARK  7 active torsions:
REMARK  status: ('A' for Active; 'I' for Inactive)
REMARK    1  A    between atoms: C_6  and  C_1 
REMARK    2  A    between atoms: O_8  and  C_6 
REMARK    3  A    between atoms: C_13  and  O_8 
REMARK    4  A    between atoms: C_9  and  C_13 
REMARK    5  A    between atoms: C_15  and  C_9 
REMARK    6  A    between atoms: C_19  and  C_11 
REMARK    7  A    between atoms: C_16  and  C_19 
ROOT
ATOM      1  C   UNL d   1      32.937  19.884 -22.785  0.00  0.00     0.127 A 
ATOM      2  C   UNL d   1      33.077  19.212 -22.272  0.00  0.00     0.305 A 
ATOM      3  O   UNL d   1      33.065  18.452 -22.561  0.00  0.00    -0.273 OA
ATOM      4  C   UNL d   1      32.793  19.750 -23.553  0.00  0.00     0.013 A 
ATOM      5  C   UNL d   1      32.912  18.343 -23.366  0.00  0.00     0.103 A 
ATOM      6  C   UNL d   1      32.777  18.989 -23.860  0.00  0.00     0.023 A 
ATOM      7  O   UNL d   1      33.240  19.295 -21.426  0.00  0.00    -0.259 OA
ATOM      8  C   UNL d   1      32.899  17.579 -23.659  0.00  0.00     0.023 A 
ATOM      9  C   UNL d   1      32.627  18.877 -24.650  0.00  0.00     0.002 A 
ATOM     10  C   UNL d   1      32.608  18.151 -24.965  0.00  0.00     0.000 A 
ATOM     11  C   UNL d   1      32.748  17.479 -24.452  0.00  0.00     0.002 A 
ENDROOT
BRANCH   1  12
ATOM     12  C   UNL d   1      32.943  20.674 -22.519  0.00  0.00     0.305 C 
ATOM     13  O   UNL d   1      33.220  21.283 -23.021  0.00  0.00    -0.259 OA
BRANCH  12  14
ATOM     14  O   UNL d   1      32.666  20.870 -21.730  0.00  0.00    -0.268 OA
BRANCH  14  15
ATOM     15  C   UNL d   1      32.633  21.657 -21.545  0.00  0.00     0.168 C 
BRANCH  15  16
ATOM     16  C   UNL d   1      32.253  21.881 -20.848  0.00  0.00     0.220 C 
ATOM     17  O   UNL d   1      31.544  21.524 -20.637  0.00  0.00    -0.284 OA
BRANCH  16  18
ATOM     18  C   UNL d   1      32.574  22.467 -20.345  0.00  0.00     0.041 A 
ATOM     19  C   UNL d   1      32.925  23.126 -20.665  0.00  0.00     0.003 A 
ATOM     20  C   UNL d   1      33.241  23.702 -20.164  0.00  0.00     0.000 A 
ATOM     21  C   UNL d   1      33.200  23.607 -19.318  0.00  0.00     0.000 A 
ATOM     22  C   UNL d   1      32.839  22.930 -19.014  0.00  0.00     0.000 A 
ATOM     23  C   UNL d   1      32.526  22.359 -19.531  0.00  0.00     0.003 A 
ENDBRANCH  16  18
ENDBRANCH  15  16
ENDBRANCH  14  15
ENDBRANCH  12  14
ENDBRANCH   1  12
BRANCH   8  24
ATOM     24  C   UNL d   1      33.031  16.916 -23.186  0.00  0.00     0.002 C 
BRANCH  24  25
ATOM     25  C   UNL d   1      33.136  16.196 -23.541  0.00  0.00     0.000 C 
ATOM     26  C   UNL d   1      33.191  15.491 -23.056  0.00  0.00     0.000 C 
ENDBRANCH  24  25
ENDBRANCH   8  24
TORSDOF 7
ENDMDL
MODEL 3
REMARK VINA RESULT:      -1.5      1.200      2.029
REMARK  7 active torsions:
REMARK  status: ('A' for Active; 'I' for Inactive)
REMARK    1  A    between atoms: C_6  and  C_1 
REMARK    2  A    between atoms: O_8  and  C_6 
REMARK    3  A    between atoms: C_13  and  O_8 
REMARK    4  A    between atoms: C_9  and  C_13 
REMARK    5  A    between atoms: C_15  and  C_9 
REMARK    6  A    between atoms: C_19  and  C_11 
REMARK    7  A    between atoms: C_16  and  C_19 
ROOT
ATOM      1  C   UNL d   1      31.914  17.312 -23.669  0.00  0.00     0.127 A 
ATOM      2  C   UNL d   1      31.560  16.611 -23.326  0.00  0.00     0.305 A 
ATOM      3  O   UNL d   1      30.800  16.390 -23.511  0.00  0.00    -0.273 OA
ATOM      4  C   UNL d   1      31.483  17.745 -24.173  0.00  0.00     0.013 A 
ATOM      5  C   UNL d   1      30.374  16.860 -24.040  0.00  0.00     0.103 A 
ATOM      6  C   UNL d   1      30.714  17.535 -24.370  0.00  0.00     0.023 A 
ATOM      7  O   UNL d   1      31.981  16.098 -22.769  0.00  0.00    -0.259 OA
ATOM      8  C   UNL d   1      29.609  16.640 -24.228  0.00  0.00     0.023 A 
ATOM      9  C   UNL d   1      30.292  17.995 -24.890  0.00  0.00     0.002 A 
ATOM     10  C   UNL d   1      29.550  17.809 -25.092  0.00  0.00     0.000 A 
ATOM     11  C   UNL d   1      29.196  17.107 -24.750  0.00  0.00     0.002 A 
ENDROOT
BRANCH   1  12
ATOM     12  C   UNL d   1      32.690  17.565 -23.499  0.00  0.00     0.305 C 
ATOM     13  O   UNL d   1      33.234  17.037 -23.146  0.00  0.00    -0.259 OA
BRANCH  12  14
ATOM     14  O   UNL d   1      32.938  18.366 -23.685  0.00  0.00    -0.268 OA
BRANCH  14  15
ATOM     15  C   UNL d   1      33.241  18.800 -23.073  0.00  0.00     0.168 C 
BRANCH  15  16
ATOM     16  C   UNL d   1      33.208  19.623 -23.122  0.00  0.00     0.220 C 
ATOM     17  O   UNL d   1      33.240  19.991 -23.856  0.00  0.00    -0.284 OA
BRANCH  16  18
ATOM     18  C   UNL d   1      33.141  20.098 -22.437  0.00  0.00     0.041 A 
ATOM     19  C   UNL d   1      33.101  20.907 -22.508  0.00  0.00     0.003 A 
ATOM     20  C   UNL d   1      33.036  21.372 -21.828  0.00  0.00     0.000 A 
ATOM     21  C   UNL d   1      33.010  21.008 -21.058  0.00  0.00     0.000 A 
ATOM     22  C   UNL d   1      33.052  20.186 -21.009  0.00  0.00     0.000 A 
ATOM     23  C   UNL d   1      33.118  19.731 -21.702  0.00  0.00     0.003 A 
ENDBRANCH  16  18
ENDBRANCH  15  16
ENDBRANCH  14  15
ENDBRANCH  12  14
ENDBRANCH   1  12
BRANCH   8  24
ATOM     24  C   UNL d   1      29.246  15.969 -23.912  0.00  0.00     0.002 C 
BRANCH  24  25
ATOM     25  C   UNL d   1      28.445  15.975 -23.797  0.00  0.00     0.000 C 
ATOM     26  C   UNL d   1      28.100  15.453 -23.210  0.00  0.00     0.000 C 
ENDBRANCH  24  25
ENDBRANCH   8  24
TORSDOF 7
ENDMDL
