MODEL 1
REMARK VINA RESULT:      -5.8      0.000      0.000
REMARK  6 active torsions:
REMARK  status: ('A' for Active; 'I' for Inactive)
REMARK       I    between atoms: C_2  and  N_1 
REMARK    1  A    between atoms: C_3  and  C_2 
REMARK    2  A    between atoms: C_12  and  C_4 
REMARK       I    between atoms: C_5  and  N_8 
REMARK    3  A    between atoms: C_6  and  C_5 
REMARK       I    between atoms: N_9  and  C_6 
REMARK    4  A    between atoms: N_8  and  C_12 
REMARK    5  A    between atoms: C_19  and  N_9 
REMARK    6  A    between atoms: C_21  and  C_19 
ROOT
ATOM      1  C   UNL d   1     -40.981  14.439  20.238  0.00  0.00     0.337 C 
ATOM      2  N   UNL d   1     -40.985  14.422  19.418  0.00  0.00    -0.199 NA
ATOM      3  O   UNL d   1     -41.636  14.170  20.656  0.00  0.00    -0.260 OA
ENDROOT
BRANCH   2   4
ATOM      4  C   UNL d   1     -40.330  14.691  19.000  0.00  0.00     0.146 C 
BRANCH   4   5
ATOM      5  C   UNL d   1     -40.417  14.930  18.208  0.00  0.00     0.190 A 
ATOM      6  N   UNL d   1     -39.871  14.786  17.610  0.00  0.00    -0.250 N 
ATOM      7  C   UNL d   1     -39.138  14.399  17.607  0.00  0.00     0.272 C 
ATOM      8  C   UNL d   1     -40.179  15.118  16.918  0.00  0.00     0.112 A 
ATOM      9  O   UNL d   1     -38.843  14.072  18.308  0.00  0.00    -0.266 OA
ATOM     10  C   UNL d   1     -40.905  15.460  17.095  0.00  0.00     0.144 A 
ATOM     11  O   UNL d   1     -41.046  15.338  17.903  0.00  0.00    -0.285 OA
BRANCH   7  12
ATOM     12  C   UNL d   1     -38.703  14.337  16.912  0.00  0.00     0.086 A 
ATOM     13  S   UNL d   1     -38.304  14.910  16.463  0.00  0.00    -0.082 SA
ATOM     14  C   UNL d   1     -37.958  14.520  15.809  0.00  0.00     0.036 A 
ATOM     15  C   UNL d   1     -38.149  13.719  15.867  0.00  0.00     0.008 A 
ATOM     16  C   UNL d   1     -38.606  13.602  16.541  0.00  0.00     0.012 A 
ENDBRANCH   7  12
ENDBRANCH   4   5
ENDBRANCH   2   4
BRANCH   1  17
ATOM     17  C   UNL d   1     -40.324  14.725  20.649  0.00  0.00     0.337 C 
ATOM     18  N   UNL d   1     -39.859  14.219  21.103  0.00  0.00    -0.202 NA
ATOM     19  O   UNL d   1     -40.133  15.524  20.604  0.00  0.00    -0.260 OA
BRANCH  18  20
ATOM     20  C   UNL d   1     -39.208  14.507  21.510  0.00  0.00     0.102 C 
BRANCH  20  21
ATOM     21  C   UNL d   1     -38.795  14.027  22.065  0.00  0.00     0.019 A 
ATOM     22  C   UNL d   1     -38.347  13.400  21.791  0.00  0.00     0.002 A 
ATOM     23  C   UNL d   1     -37.939  12.926  22.339  0.00  0.00     0.000 A 
ATOM     24  C   UNL d   1     -37.985  13.085  23.138  0.00  0.00     0.000 A 
ATOM     25  C   UNL d   1     -38.447  13.732  23.405  0.00  0.00     0.000 A 
ATOM     26  C   UNL d   1     -38.853  14.202  22.854  0.00  0.00     0.002 A 
ENDBRANCH  20  21
ENDBRANCH  18  20
ENDBRANCH   1  17
TORSDOF 6
ENDMDL
MODEL 2
REMARK VINA RESULT:      -4.3      5.146      7.264
REMARK  6 active torsions:
REMARK  status: ('A' for Active; 'I' for Inactive)
REMARK       I    between atoms: C_2  and  N_1 
REMARK    1  A    between atoms: C_3  and  C_2 
REMARK    2  A    between atoms: C_12  and  C_4 
REMARK       I    between atoms: C_5  and  N_8 
REMARK    3  A    between atoms: C_6  and  C_5 
REMARK       I    between atoms: N_9  and  C_6 
REMARK    4  A    between atoms: N_8  and  C_12 
REMARK    5  A    between atoms: C_19  and  N_9 
REMARK    6  A    between atoms: C_21  and  C_19 
ROOT
ATOM      1  C   UNL d   1     -43.424  11.862  22.276  0.00  0.00     0.337 C 
ATOM      2  N   UNL d   1     -44.120  11.811  22.707  0.00  0.00    -0.199 NA
ATOM      3  O   UNL d   1     -42.796  11.363  22.452  0.00  0.00    -0.260 OA
ENDROOT
BRANCH   2   4
ATOM      4  C   UNL d   1     -44.749  12.311  22.530  0.00  0.00     0.146 C 
BRANCH   4   5
ATOM      5  C   UNL d   1     -45.472  12.218  22.930  0.00  0.00     0.190 A 
ATOM      6  N   UNL d   1     -46.104  12.743  22.886  0.00  0.00    -0.250 N 
ATOM      7  C   UNL d   1     -46.210  13.455  22.474  0.00  0.00     0.272 C 
ATOM      8  C   UNL d   1     -46.704  12.437  23.367  0.00  0.00     0.112 A 
ATOM      9  O   UNL d   1     -45.600  13.749  21.998  0.00  0.00    -0.266 OA
ATOM     10  C   UNL d   1     -46.438  11.734  23.698  0.00  0.00     0.144 A 
ATOM     11  O   UNL d   1     -45.668  11.605  23.420  0.00  0.00    -0.285 OA
BRANCH   7  12
ATOM     12  C   UNL d   1     -46.916  13.871  22.537  0.00  0.00     0.086 A 
ATOM     13  S   UNL d   1     -47.698  13.652  22.367  0.00  0.00    -0.082 SA
ATOM     14  C   UNL d   1     -48.186  14.309  22.540  0.00  0.00     0.036 A 
ATOM     15  C   UNL d   1     -47.699  14.917  22.811  0.00  0.00     0.008 A 
ATOM     16  C   UNL d   1     -46.919  14.654  22.811  0.00  0.00     0.012 A 
ENDBRANCH   7  12
ENDBRANCH   4   5
ENDBRANCH   2   4
BRANCH   1  17
ATOM     17  C   UNL d   1     -43.349  12.413  21.663  0.00  0.00     0.337 C 
ATOM     18  N   UNL d   1     -42.722  12.946  21.652  0.00  0.00    -0.202 NA
ATOM     19  O   UNL d   1     -43.907  12.427  21.059  0.00  0.00    -0.260 OA
BRANCH  18  20
ATOM     20  C   UNL d   1     -42.650  13.490  21.043  0.00  0.00     0.102 C 
BRANCH  20  21
ATOM     21  C   UNL d   1     -41.985  14.002  20.993  0.00  0.00     0.019 A 
ATOM     22  C   UNL d   1     -42.098  14.809  21.066  0.00  0.00     0.002 A 
ATOM     23  C   UNL d   1     -41.441  15.315  21.017  0.00  0.00     0.000 A 
ATOM     24  C   UNL d   1     -40.694  15.012  20.897  0.00  0.00     0.000 A 
ATOM     25  C   UNL d   1     -40.591  14.183  20.823  0.00  0.00     0.000 A 
ATOM     26  C   UNL d   1     -41.251  13.682  20.873  0.00  0.00     0.002 A 
ENDBRANCH  20  21
ENDBRANCH  18  20
ENDBRANCH   1  17
TORSDOF 6
ENDMDL
MODEL 3
REMARK VINA RESULT:      -4.3      1.575      2.215
REMARK  6 active torsions:
REMARK  status: ('A' for Active; 'I' for Inactive)
REMARK       I    between atoms: C_2  and  N_1 
REMARK    1  A    between atoms: C_3  and  C_2 
REMARK    2  A    between atoms: C_12  and  C_4 
REMARK       I    between atoms: C_5  and  N_8 
REMARK    3  A    between atoms: C_6  and  C_5 
REMARK       I    between atoms: N_9  and  C_6 
REMARK    4  A    between atoms: N_8  and  C_12 
REMARK    5  A    between atoms: C_19  and  N_9 
REMARK    6  A    between atoms: C_21  and  C_19 
ROOT
ATOM      1  C   UNL d   1     -40.799  14.156  18.832  0.00  0.00     0.337 C 
ATOM      2  N   UNL d   1     -40.397  13.877  18.174  0.00  0.00    -0.199 NA
ATOM      3  O   UNL d   1     -41.396  13.703  19.169  0.00  0.00    -0.260 OA
ENDROOT
BRANCH   2   4
ATOM      4  C   UNL d   1     -39.799  14.330  17.837  0.00  0.00     0.146 C 
BRANCH   4   5
ATOM      5  C   UNL d   1     -39.210  13.960  17.382  0.00  0.00     0.190 A 
ATOM      6  N   UNL d   1     -38.881  14.272  16.695  0.00  0.00    -0.250 N 
ATOM      7  C   UNL d   1     -39.017  14.978  16.283  0.00  0.00     0.272 C 
ATOM      8  C   UNL d   1     -38.321  13.724  16.427  0.00  0.00     0.112 A 
ATOM      9  O   UNL d   1     -39.580  15.516  16.563  0.00  0.00    -0.266 OA
ATOM     10  C   UNL d   1     -38.312  13.087  16.946  0.00  0.00     0.144 A 
ATOM     11  O   UNL d   1     -38.870  13.243  17.540  0.00  0.00    -0.285 OA
BRANCH   7  12
ATOM     12  C   UNL d   1     -38.597  15.147  15.597  0.00  0.00     0.086 A 
ATOM     13  S   UNL d   1     -38.348  14.661  14.973  0.00  0.00    -0.082 SA
ATOM     14  C   UNL d   1     -37.940  15.143  14.425  0.00  0.00     0.036 A 
ATOM     15  C   UNL d   1     -37.945  15.914  14.720  0.00  0.00     0.008 A 
ATOM     16  C   UNL d   1     -38.347  15.922  15.438  0.00  0.00     0.012 A 
ENDBRANCH   7  12
ENDBRANCH   4   5
ENDBRANCH   2   4
BRANCH   1  17
ATOM     17  C   UNL d   1     -40.609  14.890  19.161  0.00  0.00     0.337 C 
ATOM     18  N   UNL d   1     -40.111  14.942  19.815  0.00  0.00    -0.202 NA
ATOM     19  O   UNL d   1     -40.920  15.576  18.831  0.00  0.00    -0.260 OA
BRANCH  18  20
ATOM     20  C   UNL d   1     -39.924  15.671  20.138  0.00  0.00     0.102 C 
BRANCH  20  21
ATOM     21  C   UNL d   1     -39.448  15.732  20.829  0.00  0.00     0.019 A 
ATOM     22  C   UNL d   1     -39.808  15.712  21.563  0.00  0.00     0.002 A 
ATOM     23  C   UNL d   1     -39.338  15.772  22.246  0.00  0.00     0.000 A 
ATOM     24  C   UNL d   1     -38.528  15.850  22.184  0.00  0.00     0.000 A 
ATOM     25  C   UNL d   1     -38.171  15.870  21.426  0.00  0.00     0.000 A 
ATOM     26  C   UNL d   1     -38.646  15.809  20.747  0.00  0.00     0.002 A 
ENDBRANCH  20  21
ENDBRANCH  18  20
ENDBRANCH   1  17
TORSDOF 6
ENDMDL
MODEL 4
REMARK VINA RESULT:      -4.1      7.721      9.642
REMARK  6 active torsions:
REMARK  status: ('A' for Active; 'I' for Inactive)
REMARK       I    between atoms: C_2  and  N_1 
REMARK    1  A    between atoms: C_3  and  C_2 
REMARK    2  A    between atoms: C_12  and  C_4 
REMARK       I    between atoms: C_5  and  N_8 
REMARK    3  A    between atoms: C_6  and  C_5 
REMARK       I    between atoms: N_9  and  C_6 
REMARK    4  A    between atoms: N_8  and  C_12 
REMARK    5  A    between atoms: C_19  and  N_9 
REMARK    6  A    between atoms: C_21  and  C_19 
ROOT
ATOM      1  C   UNL d   1     -48.780  11.583  23.237  0.00  0.00     0.337 C 
ATOM      2  N   UNL d   1     -47.994  11.413  23.397  0.00  0.00    -0.199 NA
ATOM      3  O   UNL d   1     -49.374  11.116  23.559  0.00  0.00    -0.260 OA
ENDROOT
BRANCH   2   4
ATOM      4  C   UNL d   1     -47.399  11.881  23.074  0.00  0.00     0.146 C 
BRANCH   4   5
ATOM      5  C   UNL d   1     -46.602  11.679  23.201  0.00  0.00     0.190 A 
ATOM      6  N   UNL d   1     -45.961  12.044  22.837  0.00  0.00    -0.250 N 
ATOM      7  C   UNL d   1     -45.911  12.663  22.288  0.00  0.00     0.272 C 
ATOM      8  C   UNL d   1     -45.280  11.672  23.122  0.00  0.00     0.112 A 
ATOM      9  O   UNL d   1     -46.601  13.026  22.012  0.00  0.00    -0.266 OA
ATOM     10  C   UNL d   1     -45.506  11.087  23.653  0.00  0.00     0.144 A 
ATOM     11  O   UNL d   1     -46.334  11.098  23.696  0.00  0.00    -0.285 OA
BRANCH   7  12
ATOM     12  C   UNL d   1     -45.178  12.918  22.015  0.00  0.00     0.086 A 
ATOM     13  S   UNL d   1     -44.621  12.554  21.521  0.00  0.00    -0.082 SA
ATOM     14  C   UNL d   1     -43.977  13.082  21.437  0.00  0.00     0.036 A 
ATOM     15  C   UNL d   1     -44.149  13.757  21.879  0.00  0.00     0.008 A 
ATOM     16  C   UNL d   1     -44.884  13.662  22.235  0.00  0.00     0.012 A 
ENDBRANCH   7  12
ENDBRANCH   4   5
ENDBRANCH   2   4
BRANCH   1  17
ATOM     17  C   UNL d   1     -48.981  12.222  22.753  0.00  0.00     0.337 C 
ATOM     18  N   UNL d   1     -49.270  12.921  23.078  0.00  0.00    -0.202 NA
ATOM     19  O   UNL d   1     -48.891  12.159  21.937  0.00  0.00    -0.260 OA
BRANCH  18  20
ATOM     20  C   UNL d   1     -49.469  13.553  22.595  0.00  0.00     0.102 C 
BRANCH  20  21
ATOM     21  C   UNL d   1     -49.802  14.257  22.914  0.00  0.00     0.019 A 
ATOM     22  C   UNL d   1     -50.470  14.203  23.382  0.00  0.00     0.002 A 
ATOM     23  C   UNL d   1     -50.799  14.898  23.697  0.00  0.00     0.000 A 
ATOM     24  C   UNL d   1     -50.461  15.623  23.541  0.00  0.00     0.000 A 
ATOM     25  C   UNL d   1     -49.776  15.665  23.059  0.00  0.00     0.000 A 
ATOM     26  C   UNL d   1     -49.452  14.968  22.747  0.00  0.00     0.002 A 
ENDBRANCH  20  21
ENDBRANCH  18  20
ENDBRANCH   1  17
TORSDOF 6
ENDMDL
MODEL 5
REMARK VINA RESULT:      -4.1      7.648      9.497
REMARK  6 active torsions:
REMARK  status: ('A' for Active; 'I' for Inactive)
REMARK       I    between atoms: C_2  and  N_1 
REMARK    1  A    between atoms: C_3  and  C_2 
REMARK    2  A    between atoms: C_12  and  C_4 
REMARK       I    between atoms: C_5  and  N_8 
REMARK    3  A    between atoms: C_6  and  C_5 
REMARK       I    between atoms: N_9  and  C_6 
REMARK    4  A    between atoms: N_8  and  C_12 
REMARK    5  A    between atoms: C_19  and  N_9 
REMARK    6  A    between atoms: C_21  and  C_19 
ROOT
ATOM      1  C   UNL d   1     -46.509  14.833  22.672  0.00  0.00     0.337 C 
ATOM      2  N   UNL d   1     -47.317  14.973  22.688  0.00  0.00    -0.199 NA
ATOM      3  O   UNL d   1     -45.991  15.447  22.499  0.00  0.00    -0.260 OA
ENDROOT
BRANCH   2   4
ATOM      4  C   UNL d   1     -47.835  14.358  22.861  0.00  0.00     0.146 C 
BRANCH   4   5
ATOM      5  C   UNL d   1     -48.630  14.527  23.036  0.00  0.00     0.190 A 
ATOM      6  N   UNL d   1     -49.233  13.969  23.072  0.00  0.00    -0.250 N 
ATOM      7  C   UNL d   1     -49.240  13.148  22.957  0.00  0.00     0.272 C 
ATOM      8  C   UNL d   1     -49.927  14.377  23.262  0.00  0.00     0.112 A 
ATOM      9  O   UNL d   1     -48.538  12.754  22.767  0.00  0.00    -0.266 OA
ATOM     10  C   UNL d   1     -49.747  15.175  23.341  0.00  0.00     0.144 A 
ATOM     11  O   UNL d   1     -48.934  15.260  23.198  0.00  0.00    -0.285 OA
BRANCH   7  12
ATOM     12  C   UNL d   1     -49.940  12.723  23.030  0.00  0.00     0.086 A 
ATOM     13  S   UNL d   1     -50.329  12.419  23.696  0.00  0.00    -0.082 SA
ATOM     14  C   UNL d   1     -51.023  12.035  23.429  0.00  0.00     0.036 A 
ATOM     15  C   UNL d   1     -51.048  12.110  22.607  0.00  0.00     0.008 A 
ATOM     16  C   UNL d   1     -50.387  12.531  22.358  0.00  0.00     0.012 A 
ENDBRANCH   7  12
ENDBRANCH   4   5
ENDBRANCH   2   4
BRANCH   1  17
ATOM     17  C   UNL d   1     -46.210  14.078  22.827  0.00  0.00     0.337 C 
ATOM     18  N   UNL d   1     -45.717  13.702  22.285  0.00  0.00    -0.202 NA
ATOM     19  O   UNL d   1     -46.407  13.699  23.530  0.00  0.00    -0.260 OA
BRANCH  18  20
ATOM     20  C   UNL d   1     -45.422  12.953  22.443  0.00  0.00     0.102 C 
BRANCH  20  21
ATOM     21  C   UNL d   1     -44.665  12.716  22.162  0.00  0.00     0.019 A 
ATOM     22  C   UNL d   1     -44.341  13.103  21.518  0.00  0.00     0.002 A 
ATOM     23  C   UNL d   1     -43.593  12.868  21.241  0.00  0.00     0.000 A 
ATOM     24  C   UNL d   1     -43.189  12.261  21.605  0.00  0.00     0.000 A 
ATOM     25  C   UNL d   1     -43.532  11.873  22.264  0.00  0.00     0.000 A 
ATOM     26  C   UNL d   1     -44.279  12.111  22.537  0.00  0.00     0.002 A 
ENDBRANCH  20  21
ENDBRANCH  18  20
ENDBRANCH   1  17
TORSDOF 6
ENDMDL
MODEL 6
REMARK VINA RESULT:      -4.0      3.375      4.777
REMARK  6 active torsions:
REMARK  status: ('A' for Active; 'I' for Inactive)
REMARK       I    between atoms: C_2  and  N_1 
REMARK    1  A    between atoms: C_3  and  C_2 
REMARK    2  A    between atoms: C_12  and  C_4 
REMARK       I    between atoms: C_5  and  N_8 
REMARK    3  A    between atoms: C_6  and  C_5 
REMARK       I    between atoms: N_9  and  C_6 
REMARK    4  A    between atoms: N_8  and  C_12 
REMARK    5  A    between atoms: C_19  and  N_9 
REMARK    6  A    between atoms: C_21  and  C_19 
ROOT
ATOM      1  C   UNL d   1     -42.675  12.570  21.687  0.00  0.00     0.337 C 
ATOM      2  N   UNL d   1     -42.023  12.997  21.434  0.00  0.00    -0.199 NA
ATOM      3  O   UNL d   1     -42.578  11.952  22.221  0.00  0.00    -0.260 OA
ENDROOT
BRANCH   2   4
ATOM      4  C   UNL d   1     -42.120  13.615  20.900  0.00  0.00     0.146 C 
BRANCH   4   5
ATOM      5  C   UNL d   1     -41.555  14.224  20.868  0.00  0.00     0.190 A 
ATOM      6  N   UNL d   1     -41.143  14.448  20.193  0.00  0.00    -0.250 N 
ATOM      7  C   UNL d   1     -41.158  14.168  19.412  0.00  0.00     0.272 C 
ATOM      8  C   UNL d   1     -40.643  15.070  20.412  0.00  0.00     0.112 A 
ATOM      9  O   UNL d   1     -41.663  13.546  19.208  0.00  0.00    -0.266 OA
ATOM     10  C   UNL d   1     -40.751  15.221  21.212  0.00  0.00     0.144 A 
ATOM     11  O   UNL d   1     -41.323  14.688  21.489  0.00  0.00    -0.285 OA
BRANCH   7  12
ATOM     12  C   UNL d   1     -40.674  14.506  18.840  0.00  0.00     0.086 A 
ATOM     13  S   UNL d   1     -40.705  15.243  18.461  0.00  0.00    -0.082 SA
ATOM     14  C   UNL d   1     -40.062  15.279  17.927  0.00  0.00     0.036 A 
ATOM     15  C   UNL d   1     -39.649  14.567  17.986  0.00  0.00     0.008 A 
ATOM     16  C   UNL d   1     -40.020  14.089  18.545  0.00  0.00     0.012 A 
ENDBRANCH   7  12
ENDBRANCH   4   5
ENDBRANCH   2   4
BRANCH   1  17
ATOM     17  C   UNL d   1     -43.432  12.755  21.411  0.00  0.00     0.337 C 
ATOM     18  N   UNL d   1     -44.028  12.979  21.933  0.00  0.00    -0.202 NA
ATOM     19  O   UNL d   1     -43.591  12.713  20.604  0.00  0.00    -0.260 OA
BRANCH  18  20
ATOM     20  C   UNL d   1     -44.777  13.162  21.655  0.00  0.00     0.102 C 
BRANCH  20  21
ATOM     21  C   UNL d   1     -45.420  13.282  22.184  0.00  0.00     0.019 A 
ATOM     22  C   UNL d   1     -45.755  12.634  22.556  0.00  0.00     0.002 A 
ATOM     23  C   UNL d   1     -46.390  12.753  23.079  0.00  0.00     0.000 A 
ATOM     24  C   UNL d   1     -46.676  13.504  23.219  0.00  0.00     0.000 A 
ATOM     25  C   UNL d   1     -46.323  14.159  22.831  0.00  0.00     0.000 A 
ATOM     26  C   UNL d   1     -45.690  14.035  22.310  0.00  0.00     0.002 A 
ENDBRANCH  20  21
ENDBRANCH  18  20
ENDBRANCH   1  17
TORSDOF 6
ENDMDL
MODEL 7
REMARK VINA RESULT:      -3.0      7.615      9.271
REMARK  6 active torsions:
REMARK  status: ('A' for Active; 'I' for Inactive)
REMARK       I    between atoms: C_2  and  N_1 
REMARK    1  A    between atoms: C_3  and  C_2 
REMARK    2  A    between atoms: C_12  and  C_4 
REMARK       I    between atoms: C_5  and  N_8 
REMARK    3  A    between atoms: C_6  and  C_5 
REMARK       I    between atoms: N_9  and  C_6 
REMARK    4  A    between atoms: N_8  and  C_12 
REMARK    5  A    between atoms: C_19  and  N_9 
REMARK    6  A    between atoms: C_21  and  C_19 
ROOT
ATOM      1  C   UNL d   1     -45.819  13.311  22.286  0.00  0.00     0.337 C 
ATOM      2  N   UNL d   1     -46.556  13.630  22.120  0.00  0.00    -0.199 NA
ATOM      3  O   UNL d   1     -45.189  13.453  21.777  0.00  0.00    -0.260 OA
ENDROOT
BRANCH   2   4
ATOM      4  C   UNL d   1     -47.187  13.487  22.629  0.00  0.00     0.146 C 
BRANCH   4   5
ATOM      5  C   UNL d   1     -47.857  13.980  22.601  0.00  0.00     0.190 A 
ATOM      6  N   UNL d   1     -48.634  13.715  22.553  0.00  0.00    -0.250 N 
ATOM      7  C   UNL d   1     -48.962  12.953  22.521  0.00  0.00     0.272 C 
ATOM      8  C   UNL d   1     -49.116  14.386  22.539  0.00  0.00     0.112 A 
ATOM      9  O   UNL d   1     -48.466  12.291  22.537  0.00  0.00    -0.266 OA
ATOM     10  C   UNL d   1     -48.637  15.052  22.578  0.00  0.00     0.144 A 
ATOM     11  O   UNL d   1     -47.851  14.789  22.616  0.00  0.00    -0.285 OA
BRANCH   7  12
ATOM     12  C   UNL d   1     -49.776  12.853  22.475  0.00  0.00     0.086 A 
ATOM     13  S   UNL d   1     -50.291  12.844  21.824  0.00  0.00    -0.082 SA
ATOM     14  C   UNL d   1     -51.065  12.719  22.117  0.00  0.00     0.036 A 
ATOM     15  C   UNL d   1     -51.012  12.654  22.938  0.00  0.00     0.008 A 
ATOM     16  C   UNL d   1     -50.225  12.735  23.162  0.00  0.00     0.012 A 
ENDBRANCH   7  12
ENDBRANCH   4   5
ENDBRANCH   2   4
BRANCH   1  17
ATOM     17  C   UNL d   1     -45.703  12.847  22.960  0.00  0.00     0.337 C 
ATOM     18  N   UNL d   1     -45.363  12.100  22.902  0.00  0.00    -0.202 NA
ATOM     19  O   UNL d   1     -45.931  13.136  23.696  0.00  0.00    -0.260 OA
BRANCH  18  20
ATOM     20  C   UNL d   1     -45.249  11.643  23.573  0.00  0.00     0.102 C 
BRANCH  20  21
ATOM     21  C   UNL d   1     -44.797  10.933  23.545  0.00  0.00     0.019 A 
ATOM     22  C   UNL d   1     -44.000  10.977  23.365  0.00  0.00     0.002 A 
ATOM     23  C   UNL d   1     -43.554  10.276  23.337  0.00  0.00     0.000 A 
ATOM     24  C   UNL d   1     -43.905   9.556  23.488  0.00  0.00     0.000 A 
ATOM     25  C   UNL d   1     -44.723   9.525  23.672  0.00  0.00     0.000 A 
ATOM     26  C   UNL d   1     -45.164  10.227  23.698  0.00  0.00     0.002 A 
ENDBRANCH  20  21
ENDBRANCH  18  20
ENDBRANCH   1  17
TORSDOF 6
ENDMDL
