MODEL 1
REMARK VINA RESULT:      -1.8      0.000      0.000
REMARK  3 active torsions:
REMARK  status: ('A' for Active; 'I' for Inactive)
REMARK    1  A    between atoms: N_2  and  S_1 
REMARK    2  A    between atoms: C_4  and  S_1 
REMARK    3  A    between atoms: C_11  and  C_3 
ROOT
ATOM      1  N   UNL d   1      59.715   0.107  29.370  0.00  0.00    -0.213 N 
ATOM      2  C   UNL d   1      59.947  -0.607  29.019  0.00  0.00     0.157 A 
ATOM      3  N   UNL d   1      60.653  -0.465  28.614  0.00  0.00    -0.224 NA
ATOM      4  C   UNL d   1      60.276   0.682  29.180  0.00  0.00     0.114 A 
ATOM      5  C   UNL d   1      60.855   0.325  28.713  0.00  0.00     0.120 A 
ENDROOT
BRANCH   1   6
ATOM      6  S   UNL d   1      59.039   0.222  29.829  0.00  0.00     0.273 S 
ATOM      7  O   UNL d   1      58.578   0.245  29.144  0.00  0.00    -0.200 OA
ATOM      8  O   UNL d   1      59.497   0.199  30.509  0.00  0.00    -0.200 OA
BRANCH   6   9
ATOM      9  C   UNL d   1      58.365   0.337  30.286  0.00  0.00     0.104 A 
ATOM     10  C   UNL d   1      58.397   0.243  31.106  0.00  0.00     0.015 A 
ATOM     11  C   UNL d   1      57.725   0.357  31.573  0.00  0.00     0.028 A 
ATOM     12  C   UNL d   1      57.760   0.263  32.386  0.00  0.00     0.002 C 
ATOM     13  C   UNL d   1      57.010   0.567  31.206  0.00  0.00     0.140 A 
ATOM     14  C   UNL d   1      56.975   0.660  30.393  0.00  0.00     0.030 A 
ATOM     15  F   UNL d   1      56.337   0.682  31.663  0.00  0.00    -0.204 F 
ATOM     16  C   UNL d   1      57.652   0.545  29.933  0.00  0.00     0.015 A 
ENDBRANCH   6   9
ENDBRANCH   1   6
BRANCH   2  17
ATOM     17  C   UNL d   1      59.547  -1.326  29.065  0.00  0.00     0.035 A 
ATOM     18  C   UNL d   1      58.949  -1.502  28.523  0.00  0.00     0.003 A 
ATOM     19  C   UNL d   1      58.547  -2.221  28.566  0.00  0.00     0.000 A 
ATOM     20  C   UNL d   1      58.745  -2.764  29.154  0.00  0.00     0.000 A 
ATOM     21  C   UNL d   1      59.344  -2.586  29.697  0.00  0.00     0.000 A 
ATOM     22  C   UNL d   1      59.744  -1.868  29.651  0.00  0.00     0.003 A 
ENDBRANCH   2  17
TORSDOF 3
ENDMDL
MODEL 2
REMARK VINA RESULT:      -1.7      1.106      2.122
REMARK  3 active torsions:
REMARK  status: ('A' for Active; 'I' for Inactive)
REMARK    1  A    between atoms: N_2  and  S_1 
REMARK    2  A    between atoms: C_4  and  S_1 
REMARK    3  A    between atoms: C_11  and  C_3 
ROOT
ATOM      1  N   UNL d   1      58.858  -1.476  29.314  0.00  0.00    -0.213 N 
ATOM      2  C   UNL d   1      59.646  -1.301  29.128  0.00  0.00     0.157 A 
ATOM      3  N   UNL d   1      59.910  -1.877  28.598  0.00  0.00    -0.224 NA
ATOM      4  C   UNL d   1      58.640  -2.156  28.899  0.00  0.00     0.114 A 
ATOM      5  C   UNL d   1      59.292  -2.402  28.458  0.00  0.00     0.120 A 
ENDROOT
BRANCH   1   6
ATOM      6  S   UNL d   1      58.375  -1.044  29.824  0.00  0.00     0.273 S 
ATOM      7  O   UNL d   1      58.564  -1.560  30.440  0.00  0.00    -0.200 OA
ATOM      8  O   UNL d   1      58.186  -0.531  29.212  0.00  0.00    -0.200 OA
BRANCH   6   9
ATOM      9  C   UNL d   1      57.893  -0.614  30.333  0.00  0.00     0.104 A 
ATOM     10  C   UNL d   1      57.559  -0.975  30.997  0.00  0.00     0.015 A 
ATOM     11  C   UNL d   1      57.074  -0.550  31.514  0.00  0.00     0.028 A 
ATOM     12  C   UNL d   1      56.745  -0.912  32.171  0.00  0.00     0.002 C 
ATOM     13  C   UNL d   1      56.925   0.252  31.357  0.00  0.00     0.140 A 
ATOM     14  C   UNL d   1      57.254   0.614  30.700  0.00  0.00     0.030 A 
ATOM     15  F   UNL d   1      56.443   0.682  31.866  0.00  0.00    -0.204 F 
ATOM     16  C   UNL d   1      57.737   0.181  30.189  0.00  0.00     0.015 A 
ENDBRANCH   6   9
ENDBRANCH   1   6
BRANCH   2  17
ATOM     17  C   UNL d   1      60.087  -0.668  29.419  0.00  0.00     0.035 A 
ATOM     18  C   UNL d   1      60.520  -0.752  30.118  0.00  0.00     0.003 A 
ATOM     19  C   UNL d   1      60.963  -0.121  30.412  0.00  0.00     0.000 A 
ATOM     20  C   UNL d   1      60.970   0.596  30.004  0.00  0.00     0.000 A 
ATOM     21  C   UNL d   1      60.535   0.679  29.304  0.00  0.00     0.000 A 
ATOM     22  C   UNL d   1      60.095   0.048  29.014  0.00  0.00     0.003 A 
ENDBRANCH   2  17
TORSDOF 3
ENDMDL
MODEL 3
REMARK VINA RESULT:      -0.1      1.323      1.868
REMARK  3 active torsions:
REMARK  status: ('A' for Active; 'I' for Inactive)
REMARK    1  A    between atoms: N_2  and  S_1 
REMARK    2  A    between atoms: C_4  and  S_1 
REMARK    3  A    between atoms: C_11  and  C_3 
ROOT
ATOM      1  N   UNL d   1      57.927   0.095  29.703  0.00  0.00    -0.213 N 
ATOM      2  C   UNL d   1      58.443  -0.382  29.264  0.00  0.00     0.157 A 
ATOM      3  N   UNL d   1      58.460  -0.085  28.494  0.00  0.00    -0.224 NA
ATOM      4  C   UNL d   1      57.630   0.681  29.202  0.00  0.00     0.114 A 
ATOM      5  C   UNL d   1      57.962   0.567  28.455  0.00  0.00     0.120 A 
ENDROOT
BRANCH   1   6
ATOM      6  S   UNL d   1      57.742   0.001  30.501  0.00  0.00     0.273 S 
ATOM      7  O   UNL d   1      58.182   0.674  30.683  0.00  0.00    -0.200 OA
ATOM      8  O   UNL d   1      57.303  -0.669  30.320  0.00  0.00    -0.200 OA
BRANCH   6   9
ATOM      9  C   UNL d   1      57.557  -0.093  31.296  0.00  0.00     0.104 A 
ATOM     10  C   UNL d   1      56.904  -0.546  31.523  0.00  0.00     0.015 A 
ATOM     11  C   UNL d   1      56.712  -0.646  32.321  0.00  0.00     0.028 A 
ATOM     12  C   UNL d   1      56.064  -1.096  32.541  0.00  0.00     0.002 C 
ATOM     13  C   UNL d   1      57.186  -0.283  32.897  0.00  0.00     0.140 A 
ATOM     14  C   UNL d   1      57.834   0.167  32.677  0.00  0.00     0.030 A 
ATOM     15  F   UNL d   1      57.002  -0.377  33.693  0.00  0.00    -0.204 F 
ATOM     16  C   UNL d   1      58.020   0.262  31.878  0.00  0.00     0.015 A 
ENDBRANCH   6   9
ENDBRANCH   1   6
BRANCH   2  17
ATOM     17  C   UNL d   1      58.862  -1.034  29.546  0.00  0.00     0.035 A 
ATOM     18  C   UNL d   1      58.510  -1.782  29.548  0.00  0.00     0.003 A 
ATOM     19  C   UNL d   1      58.927  -2.436  29.829  0.00  0.00     0.000 A 
ATOM     20  C   UNL d   1      59.697  -2.339  30.108  0.00  0.00     0.000 A 
ATOM     21  C   UNL d   1      60.048  -1.590  30.105  0.00  0.00     0.000 A 
ATOM     22  C   UNL d   1      59.630  -0.939  29.824  0.00  0.00     0.003 A 
ENDBRANCH   2  17
TORSDOF 3
ENDMDL
MODEL 4
REMARK VINA RESULT:       0.2      9.203     10.442
REMARK  3 active torsions:
REMARK  status: ('A' for Active; 'I' for Inactive)
REMARK    1  A    between atoms: N_2  and  S_1 
REMARK    2  A    between atoms: C_4  and  S_1 
REMARK    3  A    between atoms: C_11  and  C_3 
ROOT
ATOM      1  N   UNL d   1      59.097  -9.335  35.111  0.00  0.00    -0.213 N 
ATOM      2  C   UNL d   1      59.235  -8.750  35.682  0.00  0.00     0.157 A 
ATOM      3  N   UNL d   1      58.701  -8.878  36.300  0.00  0.00    -0.224 NA
ATOM      4  C   UNL d   1      58.483  -9.818  35.379  0.00  0.00     0.114 A 
ATOM      5  C   UNL d   1      58.240  -9.533  36.114  0.00  0.00     0.120 A 
ENDROOT
BRANCH   1   6
ATOM      6  S   UNL d   1      59.505  -9.420  34.399  0.00  0.00     0.273 S 
ATOM      7  O   UNL d   1      58.886  -9.046  34.001  0.00  0.00    -0.200 OA
ATOM      8  O   UNL d   1      60.120  -9.791  34.795  0.00  0.00    -0.200 OA
BRANCH   6   9
ATOM      9  C   UNL d   1      59.910  -9.504  33.689  0.00  0.00     0.104 A 
ATOM     10  C   UNL d   1      59.529  -9.359  32.970  0.00  0.00     0.015 A 
ATOM     11  C   UNL d   1      59.930  -9.441  32.252  0.00  0.00     0.028 A 
ATOM     12  C   UNL d   1      59.548  -9.297  31.542  0.00  0.00     0.002 C 
ATOM     13  C   UNL d   1      60.727  -9.673  32.260  0.00  0.00     0.140 A 
ATOM     14  C   UNL d   1      61.109  -9.817  32.970  0.00  0.00     0.030 A 
ATOM     15  F   UNL d   1      61.133  -9.757  31.550  0.00  0.00    -0.204 F 
ATOM     16  C   UNL d   1      60.701  -9.732  33.684  0.00  0.00     0.015 A 
ENDBRANCH   6   9
ENDBRANCH   1   6
BRANCH   2  17
ATOM     17  C   UNL d   1      59.799  -8.152  35.641  0.00  0.00     0.035 A 
ATOM     18  C   UNL d   1      60.552  -8.270  35.960  0.00  0.00     0.003 A 
ATOM     19  C   UNL d   1      61.120  -7.673  35.920  0.00  0.00     0.000 A 
ATOM     20  C   UNL d   1      60.931  -6.955  35.560  0.00  0.00     0.000 A 
ATOM     21  C   UNL d   1      60.177  -6.837  35.240  0.00  0.00     0.000 A 
ATOM     22  C   UNL d   1      59.613  -7.435  35.281  0.00  0.00     0.003 A 
ENDBRANCH   2  17
TORSDOF 3
ENDMDL
MODEL 5
REMARK VINA RESULT:       1.2      1.759      3.360
REMARK  3 active torsions:
REMARK  status: ('A' for Active; 'I' for Inactive)
REMARK    1  A    between atoms: N_2  and  S_1 
REMARK    2  A    between atoms: C_4  and  S_1 
REMARK    3  A    between atoms: C_11  and  C_3 
ROOT
ATOM      1  N   UNL d   1      60.268  -0.593  29.653  0.00  0.00    -0.213 N 
ATOM      2  C   UNL d   1      59.835   0.096  29.809  0.00  0.00     0.157 A 
ATOM      3  N   UNL d   1      60.375   0.682  30.031  0.00  0.00    -0.224 NA
ATOM      4  C   UNL d   1      61.067  -0.430  29.779  0.00  0.00     0.114 A 
ATOM      5  C   UNL d   1      61.130   0.359  30.012  0.00  0.00     0.120 A 
ENDROOT
BRANCH   1   6
ATOM      6  S   UNL d   1      59.953  -1.317  29.413  0.00  0.00     0.273 S 
ATOM      7  O   UNL d   1      59.912  -1.042  28.636  0.00  0.00    -0.200 OA
ATOM      8  O   UNL d   1      59.995  -1.591  30.186  0.00  0.00    -0.200 OA
BRANCH   6   9
ATOM      9  C   UNL d   1      59.639  -2.038  29.174  0.00  0.00     0.104 A 
ATOM     10  C   UNL d   1      60.083  -2.732  29.247  0.00  0.00     0.015 A 
ATOM     11  C   UNL d   1      59.775  -3.461  29.010  0.00  0.00     0.028 A 
ATOM     12  C   UNL d   1      60.219  -4.145  29.084  0.00  0.00     0.002 C 
ATOM     13  C   UNL d   1      59.008  -3.490  28.694  0.00  0.00     0.140 A 
ATOM     14  C   UNL d   1      58.565  -2.805  28.620  0.00  0.00     0.030 A 
ATOM     15  F   UNL d   1      58.694  -4.211  28.455  0.00  0.00    -0.204 F 
ATOM     16  C   UNL d   1      58.880  -2.080  28.860  0.00  0.00     0.015 A 
ENDBRANCH   6   9
ENDBRANCH   1   6
BRANCH   2  17
ATOM     17  C   UNL d   1      59.018   0.182  29.753  0.00  0.00     0.035 A 
ATOM     18  C   UNL d   1      58.538   0.001  30.400  0.00  0.00     0.003 A 
ATOM     19  C   UNL d   1      57.719   0.086  30.348  0.00  0.00     0.000 A 
ATOM     20  C   UNL d   1      57.382   0.353  29.644  0.00  0.00     0.000 A 
ATOM     21  C   UNL d   1      57.863   0.533  28.996  0.00  0.00     0.000 A 
ATOM     22  C   UNL d   1      58.680   0.448  29.051  0.00  0.00     0.003 A 
ENDBRANCH   2  17
TORSDOF 3
ENDMDL
