MODEL 1
REMARK VINA RESULT:      28.2      0.000      0.000
REMARK  2 active torsions:
REMARK  status: ('A' for Active; 'I' for Inactive)
REMARK    1  A    between atoms: C_11  and  N_1 
REMARK    2  A    between atoms: C_15  and  C_11 
ROOT
ATOM      1  N   UNL d   1      58.445  49.704  50.785  0.00  0.00    -0.244 N 
ATOM      2  C   UNL d   1      57.653  49.702  51.024  0.00  0.00     0.246 A 
ATOM      3  C   UNL d   1      57.173  49.699  50.348  0.00  0.00     0.095 A 
ATOM      4  C   UNL d   1      58.458  49.702  49.951  0.00  0.00     0.260 A 
ATOM      5  C   UNL d   1      57.673  49.699  49.682  0.00  0.00     0.024 A 
ATOM      6  C   UNL d   1      56.359  49.696  50.250  0.00  0.00     0.034 A 
ATOM      7  C   UNL d   1      57.351  49.697  48.928  0.00  0.00     0.045 A 
ATOM      8  C   UNL d   1      56.036  49.693  49.495  0.00  0.00    -0.030 A 
ATOM      9  C   UNL d   1      56.531  49.694  48.835  0.00  0.00    -0.027 A 
ATOM     10  C   UNL d   1      57.009  49.697  49.738  0.00  0.00     0.014 A 
ATOM     11  O   UNL d   1      57.380  49.702  51.811  0.00  0.00    -0.271 OA
ATOM     12  O   UNL d   1      59.135  49.704  49.471  0.00  0.00    -0.267 OA
ATOM     13  C   UNL d   1      56.866  49.699  51.120  0.00  0.00     0.014 C 
ENDROOT
BRANCH   1  14
ATOM     14  C   UNL d   1      59.102  49.707  51.282  0.00  0.00     0.086 C 
BRANCH  14  15
ATOM     15  C   UNL d   1      59.775  49.286  51.072  0.00  0.00     0.018 A 
ATOM     16  C   UNL d   1      59.811  48.480  51.206  0.00  0.00     0.002 A 
ATOM     17  C   UNL d   1      60.483  48.059  50.996  0.00  0.00     0.000 A 
ATOM     18  C   UNL d   1      61.126  48.451  50.647  0.00  0.00     0.000 A 
ATOM     19  C   UNL d   1      61.086  49.265  50.514  0.00  0.00     0.000 A 
ATOM     20  C   UNL d   1      60.410  49.678  50.727  0.00  0.00     0.002 A 
ENDBRANCH  14  15
ENDBRANCH   1  14
TORSDOF 2
ENDMDL
MODEL 2
REMARK VINA RESULT:      28.9      0.889      3.753
REMARK  2 active torsions:
REMARK  status: ('A' for Active; 'I' for Inactive)
REMARK    1  A    between atoms: C_11  and  N_1 
REMARK    2  A    between atoms: C_15  and  C_11 
ROOT
ATOM      1  N   UNL d   1      59.248  49.683  50.395  0.00  0.00    -0.244 N 
ATOM      2  C   UNL d   1      60.071  49.674  50.308  0.00  0.00     0.246 A 
ATOM      3  C   UNL d   1      60.416  49.680  51.062  0.00  0.00     0.095 A 
ATOM      4  C   UNL d   1      59.080  49.696  51.212  0.00  0.00     0.260 A 
ATOM      5  C   UNL d   1      59.801  49.694  51.624  0.00  0.00     0.024 A 
ATOM      6  C   UNL d   1      61.198  49.676  51.311  0.00  0.00     0.034 A 
ATOM      7  C   UNL d   1      59.976  49.703  52.424  0.00  0.00     0.045 A 
ATOM      8  C   UNL d   1      61.374  49.685  52.112  0.00  0.00    -0.030 A 
ATOM      9  C   UNL d   1      60.764  49.698  52.668  0.00  0.00    -0.027 A 
ATOM     10  C   UNL d   1      60.463  49.688  51.692  0.00  0.00     0.014 A 
ATOM     11  O   UNL d   1      60.487  49.660  49.587  0.00  0.00    -0.271 OA
ATOM     12  O   UNL d   1      58.325  49.708  51.557  0.00  0.00    -0.267 OA
ATOM     13  C   UNL d   1      60.862  49.667  50.361  0.00  0.00     0.014 C 
ENDROOT
BRANCH   1  14
ATOM     14  C   UNL d   1      58.696  49.681  49.784  0.00  0.00     0.086 C 
BRANCH  14  15
ATOM     15  C   UNL d   1      57.894  49.687  49.959  0.00  0.00     0.018 A 
ATOM     16  C   UNL d   1      57.343  49.702  49.355  0.00  0.00     0.002 A 
ATOM     17  C   UNL d   1      56.542  49.708  49.530  0.00  0.00     0.000 A 
ATOM     18  C   UNL d   1      56.290  49.699  50.321  0.00  0.00     0.000 A 
ATOM     19  C   UNL d   1      56.849  49.683  50.928  0.00  0.00     0.000 A 
ATOM     20  C   UNL d   1      57.648  49.677  50.744  0.00  0.00     0.002 A 
ENDBRANCH  14  15
ENDBRANCH   1  14
TORSDOF 2
ENDMDL
MODEL 3
REMARK VINA RESULT:      31.0      0.723      1.573
REMARK  2 active torsions:
REMARK  status: ('A' for Active; 'I' for Inactive)
REMARK    1  A    between atoms: C_11  and  N_1 
REMARK    2  A    between atoms: C_15  and  C_11 
ROOT
ATOM      1  N   UNL d   1      59.009  49.708  50.294  0.00  0.00    -0.244 N 
ATOM      2  C   UNL d   1      58.521  49.707  49.626  0.00  0.00     0.246 A 
ATOM      3  C   UNL d   1      57.730  49.707  49.877  0.00  0.00     0.095 A 
ATOM      4  C   UNL d   1      58.518  49.707  50.968  0.00  0.00     0.260 A 
ATOM      5  C   UNL d   1      57.728  49.707  50.710  0.00  0.00     0.024 A 
ATOM      6  C   UNL d   1      57.021  49.707  49.466  0.00  0.00     0.034 A 
ATOM      7  C   UNL d   1      57.018  49.707  51.119  0.00  0.00     0.045 A 
ATOM      8  C   UNL d   1      56.309  49.707  49.874  0.00  0.00    -0.030 A 
ATOM      9  C   UNL d   1      56.307  49.707  50.699  0.00  0.00    -0.027 A 
ATOM     10  C   UNL d   1      57.232  49.707  50.266  0.00  0.00     0.014 A 
ATOM     11  O   UNL d   1      58.775  49.707  48.834  0.00  0.00    -0.271 OA
ATOM     12  O   UNL d   1      58.769  49.708  51.759  0.00  0.00    -0.267 OA
ATOM     13  C   UNL d   1      57.950  49.707  49.076  0.00  0.00     0.014 C 
ENDROOT
BRANCH   1  14
ATOM     14  C   UNL d   1      59.833  49.708  50.292  0.00  0.00     0.086 C 
BRANCH  14  15
ATOM     15  C   UNL d   1      60.243  49.301  50.876  0.00  0.00     0.018 A 
ATOM     16  C   UNL d   1      60.435  49.676  51.576  0.00  0.00     0.002 A 
ATOM     17  C   UNL d   1      60.844  49.270  52.160  0.00  0.00     0.000 A 
ATOM     18  C   UNL d   1      61.062  48.478  52.040  0.00  0.00     0.000 A 
ATOM     19  C   UNL d   1      60.866  48.103  51.331  0.00  0.00     0.000 A 
ATOM     20  C   UNL d   1      60.457  48.517  50.752  0.00  0.00     0.002 A 
ENDBRANCH  14  15
ENDBRANCH   1  14
TORSDOF 2
ENDMDL
