MODEL 1
REMARK VINA RESULT:      -2.7      0.000      0.000
REMARK  1 active torsions:
REMARK  status: ('A' for Active; 'I' for Inactive)
REMARK    1  A    between atoms: C_7  and  C_1 
ROOT
ATOM      1  C   UNL d   1      33.128  20.377 -22.015  0.00  0.00     0.103 A 
ATOM      2  C   UNL d   1      33.199  20.245 -21.191  0.00  0.00     0.067 A 
ATOM      3  C   UNL d   1      33.072  21.666 -20.953  0.00  0.00     0.062 A 
ATOM      4  C   UNL d   1      33.171  20.893 -20.666  0.00  0.00     0.200 A 
ATOM      5  O   UNL d   1      33.029  21.150 -22.306  0.00  0.00    -0.307 OA
ATOM      6  C   UNL d   1      33.002  21.789 -21.779  0.00  0.00     0.103 A 
ATOM      7  C   UNL d   1      33.045  22.301 -20.434  0.00  0.00     0.005 A 
ATOM      8  O   UNL d   1      33.241  20.763 -19.855  0.00  0.00    -0.286 OA
ATOM      9  C   UNL d   1      32.904  22.562 -22.066  0.00  0.00     0.025 A 
ATOM     10  C   UNL d   1      32.947  23.066 -20.723  0.00  0.00     0.000 A 
ATOM     11  C   UNL d   1      32.877  23.196 -21.534  0.00  0.00     0.002 A 
ATOM     12  C   UNL d   1      32.920  23.701 -20.200  0.00  0.00     0.000 C 
ENDROOT
BRANCH   1  13
ATOM     13  C   UNL d   1      33.156  19.741 -22.530  0.00  0.00     0.023 A 
ATOM     14  C   UNL d   1      33.139  18.965 -22.237  0.00  0.00     0.002 A 
ATOM     15  C   UNL d   1      33.167  18.329 -22.760  0.00  0.00     0.000 A 
ATOM     16  C   UNL d   1      33.212  18.465 -23.573  0.00  0.00     0.000 A 
ATOM     17  C   UNL d   1      33.229  19.236 -23.862  0.00  0.00     0.000 A 
ATOM     18  C   UNL d   1      33.241  17.822 -24.097  0.00  0.00     0.000 C 
ATOM     19  C   UNL d   1      33.200  19.870 -23.339  0.00  0.00     0.002 A 
ENDBRANCH   1  13
TORSDOF 1
ENDMDL
MODEL 2
REMARK VINA RESULT:      -2.5      1.056      4.209
REMARK  1 active torsions:
REMARK  status: ('A' for Active; 'I' for Inactive)
REMARK    1  A    between atoms: C_7  and  C_1 
ROOT
ATOM      1  C   UNL d   1      32.966  20.010 -22.491  0.00  0.00     0.103 A 
ATOM      2  C   UNL d   1      33.071  19.283 -22.089  0.00  0.00     0.067 A 
ATOM      3  C   UNL d   1      33.097  18.587 -23.356  0.00  0.00     0.062 A 
ATOM      4  C   UNL d   1      33.136  18.576 -22.527  0.00  0.00     0.200 A 
ATOM      5  O   UNL d   1      32.926  20.024 -23.322  0.00  0.00    -0.307 OA
ATOM      6  C   UNL d   1      32.992  19.318 -23.751  0.00  0.00     0.103 A 
ATOM      7  C   UNL d   1      33.162  17.889 -23.784  0.00  0.00     0.005 A 
ATOM      8  O   UNL d   1      33.240  17.859 -22.131  0.00  0.00    -0.286 OA
ATOM      9  C   UNL d   1      32.953  19.329 -24.580  0.00  0.00     0.025 A 
ATOM     10  C   UNL d   1      33.122  17.905 -24.607  0.00  0.00     0.000 A 
ATOM     11  C   UNL d   1      33.019  18.621 -25.002  0.00  0.00     0.002 A 
ATOM     12  C   UNL d   1      33.187  17.204 -25.033  0.00  0.00     0.000 C 
ENDROOT
BRANCH   1  13
ATOM     13  C   UNL d   1      32.902  20.704 -22.061  0.00  0.00     0.023 A 
ATOM     14  C   UNL d   1      33.240  21.405 -22.346  0.00  0.00     0.002 A 
ATOM     15  C   UNL d   1      33.172  22.100 -21.908  0.00  0.00     0.000 A 
ATOM     16  C   UNL d   1      32.769  22.097 -21.188  0.00  0.00     0.000 A 
ATOM     17  C   UNL d   1      32.435  21.399 -20.906  0.00  0.00     0.000 A 
ATOM     18  C   UNL d   1      32.703  22.798 -20.750  0.00  0.00     0.000 C 
ATOM     19  C   UNL d   1      32.502  20.706 -21.343  0.00  0.00     0.002 A 
ENDBRANCH   1  13
TORSDOF 1
ENDMDL
MODEL 3
REMARK VINA RESULT:      -2.5      0.735      4.198
REMARK  1 active torsions:
REMARK  status: ('A' for Active; 'I' for Inactive)
REMARK    1  A    between atoms: C_7  and  C_1 
ROOT
ATOM      1  C   UNL d   1      32.962  21.320 -21.804  0.00  0.00     0.103 A 
ATOM      2  C   UNL d   1      33.064  21.581 -22.594  0.00  0.00     0.067 A 
ATOM      3  C   UNL d   1      33.115  20.207 -23.042  0.00  0.00     0.062 A 
ATOM      4  C   UNL d   1      33.139  21.021 -23.207  0.00  0.00     0.200 A 
ATOM      5  O   UNL d   1      32.937  20.505 -21.636  0.00  0.00    -0.307 OA
ATOM      6  C   UNL d   1      33.013  19.953 -22.250  0.00  0.00     0.103 A 
ATOM      7  C   UNL d   1      33.190  19.658 -23.647  0.00  0.00     0.005 A 
ATOM      8  O   UNL d   1      33.240  21.278 -23.984  0.00  0.00    -0.286 OA
ATOM      9  C   UNL d   1      32.989  19.141 -22.085  0.00  0.00     0.025 A 
ATOM     10  C   UNL d   1      33.165  18.852 -23.479  0.00  0.00     0.000 A 
ATOM     11  C   UNL d   1      33.065  18.595 -22.703  0.00  0.00     0.002 A 
ATOM     12  C   UNL d   1      33.241  18.304 -24.089  0.00  0.00     0.000 C 
ENDROOT
BRANCH   1  13
ATOM     13  C   UNL d   1      32.887  21.870 -21.203  0.00  0.00     0.023 A 
ATOM     14  C   UNL d   1      32.507  22.594 -21.344  0.00  0.00     0.002 A 
ATOM     15  C   UNL d   1      32.436  23.143 -20.734  0.00  0.00     0.000 A 
ATOM     16  C   UNL d   1      32.741  22.973 -19.986  0.00  0.00     0.000 A 
ATOM     17  C   UNL d   1      33.118  22.254 -19.849  0.00  0.00     0.000 A 
ATOM     18  C   UNL d   1      32.667  23.529 -19.375  0.00  0.00     0.000 C 
ATOM     19  C   UNL d   1      33.189  21.705 -20.457  0.00  0.00     0.002 A 
ENDBRANCH   1  13
TORSDOF 1
ENDMDL
MODEL 4
REMARK VINA RESULT:      -2.4      4.467      5.964
REMARK  1 active torsions:
REMARK  status: ('A' for Active; 'I' for Inactive)
REMARK    1  A    between atoms: C_7  and  C_1 
ROOT
ATOM      1  C   UNL d   1      29.946  16.512 -23.951  0.00  0.00     0.103 A 
ATOM      2  C   UNL d   1      30.566  16.113 -23.552  0.00  0.00     0.067 A 
ATOM      3  C   UNL d   1      31.523  17.040 -24.113  0.00  0.00     0.062 A 
ATOM      4  C   UNL d   1      31.351  16.382 -23.637  0.00  0.00     0.200 A 
ATOM      5  O   UNL d   1      30.116  17.173 -24.428  0.00  0.00    -0.307 OA
ATOM      6  C   UNL d   1      30.898  17.434 -24.508  0.00  0.00     0.103 A 
ATOM      7  C   UNL d   1      32.297  17.303 -24.194  0.00  0.00     0.005 A 
ATOM      8  O   UNL d   1      31.961  15.989 -23.245  0.00  0.00    -0.286 OA
ATOM      9  C   UNL d   1      31.071  18.092 -24.983  0.00  0.00     0.025 A 
ATOM     10  C   UNL d   1      32.463  17.957 -24.667  0.00  0.00     0.000 A 
ATOM     11  C   UNL d   1      31.854  18.349 -25.059  0.00  0.00     0.002 A 
ATOM     12  C   UNL d   1      33.240  18.217 -24.747  0.00  0.00     0.000 C 
ENDROOT
BRANCH   1  13
ATOM     13  C   UNL d   1      29.176  16.248 -23.867  0.00  0.00     0.023 A 
ATOM     14  C   UNL d   1      28.855  15.715 -24.416  0.00  0.00     0.002 A 
ATOM     15  C   UNL d   1      28.079  15.453 -24.325  0.00  0.00     0.000 A 
ATOM     16  C   UNL d   1      27.623  15.720 -23.692  0.00  0.00     0.000 A 
ATOM     17  C   UNL d   1      27.944  16.250 -23.149  0.00  0.00     0.000 A 
ATOM     18  C   UNL d   1      26.843  15.454 -23.605  0.00  0.00     0.000 C 
ATOM     19  C   UNL d   1      28.718  16.512 -23.239  0.00  0.00     0.002 A 
ENDBRANCH   1  13
TORSDOF 1
ENDMDL
MODEL 5
REMARK VINA RESULT:      -1.6      2.113      2.929
REMARK  1 active torsions:
REMARK  status: ('A' for Active; 'I' for Inactive)
REMARK    1  A    between atoms: C_7  and  C_1 
ROOT
ATOM      1  C   UNL d   1      33.086  22.616 -21.843  0.00  0.00     0.103 A 
ATOM      2  C   UNL d   1      33.178  21.832 -21.562  0.00  0.00     0.067 A 
ATOM      3  C   UNL d   1      33.032  22.302 -20.202  0.00  0.00     0.062 A 
ATOM      4  C   UNL d   1      33.150  21.682 -20.742  0.00  0.00     0.200 A 
ATOM      5  O   UNL d   1      32.967  23.239 -21.304  0.00  0.00    -0.307 OA
ATOM      6  C   UNL d   1      32.940  23.083 -20.491  0.00  0.00     0.103 A 
ATOM      7  C   UNL d   1      33.004  22.151 -19.396  0.00  0.00     0.005 A 
ATOM      8  O   UNL d   1      33.241  20.910 -20.466  0.00  0.00    -0.286 OA
ATOM      9  C   UNL d   1      32.822  23.702 -19.952  0.00  0.00     0.025 A 
ATOM     10  C   UNL d   1      32.887  22.769 -18.864  0.00  0.00     0.000 A 
ATOM     11  C   UNL d   1      32.796  23.540 -19.140  0.00  0.00     0.002 A 
ATOM     12  C   UNL d   1      32.860  22.614 -18.056  0.00  0.00     0.000 C 
ENDROOT
BRANCH   1  13
ATOM     13  C   UNL d   1      33.113  22.762 -22.648  0.00  0.00     0.023 A 
ATOM     14  C   UNL d   1      33.212  22.137 -23.183  0.00  0.00     0.002 A 
ATOM     15  C   UNL d   1      33.239  22.292 -23.992  0.00  0.00     0.000 A 
ATOM     16  C   UNL d   1      33.168  23.066 -24.268  0.00  0.00     0.000 A 
ATOM     17  C   UNL d   1      33.070  23.686 -23.734  0.00  0.00     0.000 A 
ATOM     18  C   UNL d   1      33.196  23.218 -25.083  0.00  0.00     0.000 C 
ATOM     19  C   UNL d   1      33.043  23.531 -22.927  0.00  0.00     0.002 A 
ENDBRANCH   1  13
TORSDOF 1
ENDMDL
MODEL 6
REMARK VINA RESULT:      -0.3      2.970      4.020
REMARK  1 active torsions:
REMARK  status: ('A' for Active; 'I' for Inactive)
REMARK    1  A    between atoms: C_7  and  C_1 
ROOT
ATOM      1  C   UNL d   1      32.734  22.686 -19.639  0.00  0.00     0.103 A 
ATOM      2  C   UNL d   1      32.921  21.902 -19.410  0.00  0.00     0.067 A 
ATOM      3  C   UNL d   1      33.006  22.325 -18.030  0.00  0.00     0.062 A 
ATOM      4  C   UNL d   1      33.056  21.729 -18.606  0.00  0.00     0.200 A 
ATOM      5  O   UNL d   1      32.683  23.286 -19.064  0.00  0.00    -0.307 OA
ATOM      6  C   UNL d   1      32.818  23.107 -18.267  0.00  0.00     0.103 A 
ATOM      7  C   UNL d   1      33.139  22.151 -17.239  0.00  0.00     0.005 A 
ATOM      8  O   UNL d   1      33.241  20.957 -18.381  0.00  0.00    -0.286 OA
ATOM      9  C   UNL d   1      32.767  23.702 -17.692  0.00  0.00     0.025 A 
ATOM     10  C   UNL d   1      33.088  22.746 -16.671  0.00  0.00     0.000 A 
ATOM     11  C   UNL d   1      32.903  23.517 -16.896  0.00  0.00     0.002 A 
ATOM     12  C   UNL d   1      33.222  22.568 -15.879  0.00  0.00     0.000 C 
ENDROOT
BRANCH   1  13
ATOM     13  C   UNL d   1      32.602  22.856 -20.429  0.00  0.00     0.023 A 
ATOM     14  C   UNL d   1      33.194  22.714 -20.992  0.00  0.00     0.002 A 
ATOM     15  C   UNL d   1      33.055  22.887 -21.785  0.00  0.00     0.000 A 
ATOM     16  C   UNL d   1      32.328  23.201 -22.018  0.00  0.00     0.000 A 
ATOM     17  C   UNL d   1      31.741  23.341 -21.458  0.00  0.00     0.000 A 
ATOM     18  C   UNL d   1      32.192  23.374 -22.818  0.00  0.00     0.000 C 
ATOM     19  C   UNL d   1      31.880  23.168 -20.666  0.00  0.00     0.002 A 
ENDBRANCH   1  13
TORSDOF 1
ENDMDL
