MODEL 1
REMARK VINA RESULT:      43.7      0.000      0.000
REMARK  7 active torsions:
REMARK  status: ('A' for Active; 'I' for Inactive)
REMARK    1  A    between atoms: C_2  and  C_1 
REMARK    2  A    between atoms: C_16  and  N_4 
REMARK    3  A    between atoms: C_14  and  C_21 
REMARK    4  A    between atoms: C_22  and  C_16 
REMARK    5  A    between atoms: C_21  and  C_23 
REMARK    6  A    between atoms: C_25  and  C_22 
REMARK    7  A    between atoms: C_23  and  C_25 
ROOT
ATOM      1  C   UNL d   1     -56.811 -99.135 -44.459  0.00  0.00     0.093 A 
ATOM      2  N   UNL d   1     -55.692 -99.623 -43.982  0.00  0.00    -0.259 N 
ATOM      3  C   UNL d   1     -55.503 -99.059 -44.535  0.00  0.00     0.153 A 
ATOM      4  C   UNL d   1     -56.498 -99.667 -43.938  0.00  0.00     0.272 A 
ATOM      5  S   UNL d   1     -56.200 -98.756 -44.832  0.00  0.00    -0.053 SA
ATOM      6  S   UNL d   1     -54.729 -98.847 -44.745  0.00  0.00    -0.052 SA
ATOM      7  O   UNL d   1     -56.935-100.185 -43.429  0.00  0.00    -0.266 OA
ENDROOT
BRANCH   1   8
ATOM      8  C   UNL d   1     -57.638 -99.060 -44.532  0.00  0.00     0.069 A 
ATOM      9  C   UNL d   1     -58.039 -99.078 -45.253  0.00  0.00     0.265 A 
ATOM     10  N   UNL d   1     -58.830 -98.990 -45.117  0.00  0.00    -0.272 N 
ATOM     11  O   UNL d   1     -57.688 -99.171 -46.006  0.00  0.00    -0.267 OA
ATOM     12  C   UNL d   1     -59.425 -98.979 -45.707  0.00  0.00     0.102 C 
ATOM     13  C   UNL d   1     -58.939 -98.916 -44.308  0.00  0.00     0.067 A 
ATOM     14  C   UNL d   1     -58.191 -98.960 -43.940  0.00  0.00     0.021 A 
ATOM     15  C   UNL d   1     -59.606 -98.815 -43.854  0.00  0.00     0.018 A 
ATOM     16  C   UNL d   1     -58.134 -98.900 -43.120  0.00  0.00     0.002 A 
ATOM     17  C   UNL d   1     -58.795 -98.798 -42.639  0.00  0.00     0.000 A 
ATOM     18  C   UNL d   1     -59.546 -98.756 -43.024  0.00  0.00     0.002 A 
ENDBRANCH   1   8
BRANCH   2  19
ATOM     19  C   UNL d   1     -55.141-100.073 -43.541  0.00  0.00     0.084 C 
BRANCH  19  20
ATOM     20  C   UNL d   1     -54.767-100.697 -43.895  0.00  0.00     0.019 C 
BRANCH  20  21
ATOM     21  C   UNL d   1     -55.207-101.380 -44.092  0.00  0.00     0.002 C 
BRANCH  21  22
ATOM     22  C   UNL d   1     -54.870-102.110 -43.996  0.00  0.00     0.006 C 
BRANCH  22  23
ATOM     23  C   UNL d   1     -54.941-102.677 -44.606  0.00  0.00     0.070 C 
BRANCH  23  24
ATOM     24  C   UNL d   1     -55.167-102.446 -45.348  0.00  0.00     0.211 C 
ATOM     25  O   UNL d   1     -54.728-101.878 -45.762  0.00  0.00    -0.644 OA
ATOM     26  O   UNL d   1     -55.833-102.765 -45.708  0.00  0.00    -0.644 OA
ENDBRANCH  23  24
ENDBRANCH  22  23
ENDBRANCH  21  22
ENDBRANCH  20  21
ENDBRANCH  19  20
ENDBRANCH   2  19
TORSDOF 7
ENDMDL
