MODEL 1
REMARK VINA RESULT:      44.1      0.000      0.000
REMARK  4 active torsions:
REMARK  status: ('A' for Active; 'I' for Inactive)
REMARK    1  A    between atoms: S_16  and  C_7 
REMARK    2  A    between atoms: C_10  and  N_11 
REMARK       I    between atoms: N_11  and  C_14 
REMARK    3  A    between atoms: C_14  and  C_20 
REMARK    4  A    between atoms: C_20  and  S_16 
ROOT
ATOM      1  N   UNL d   1      57.983  49.693  50.219  0.00  0.00    -0.167 N 
ATOM      2  C   UNL d   1      57.758  49.695  51.007  0.00  0.00     0.220 A 
ATOM      3  C   UNL d   1      57.415  49.696  49.615  0.00  0.00     0.301 A 
ATOM      4  S   UNL d   1      58.448  49.691  51.464  0.00  0.00    -0.019 SA
ATOM      5  N   UNL d   1      58.800  49.688  50.178  0.00  0.00    -0.147 NA
ATOM      6  N   UNL d   1      56.960  49.700  51.209  0.00  0.00    -0.121 NA
ATOM      7  C   UNL d   1      59.088  49.687  50.949  0.00  0.00     0.164 A 
ATOM      8  N   UNL d   1      56.386  49.703  50.622  0.00  0.00    -0.141 NA
ATOM      9  C   UNL d   1      56.612  49.701  49.828  0.00  0.00     0.161 A 
ATOM     10  O   UNL d   1      57.638  49.695  48.829  0.00  0.00    -0.263 OA
ATOM     11  C   UNL d   1      56.041  49.704  49.236  0.00  0.00     0.028 C 
ENDROOT
BRANCH   7  12
ATOM     12  S   UNL d   1      59.883  49.682  51.171  0.00  0.00    -0.054 SA
BRANCH  12  13
ATOM     13  C   UNL d   1      60.471  49.583  50.607  0.00  0.00     0.100 C 
BRANCH  13  14
ATOM     14  C   UNL d   1      60.972  48.926  50.650  0.00  0.00     0.288 C 
ATOM     15  N   UNL d   1      60.848  48.278  50.149  0.00  0.00    -0.182 NA
ATOM     16  O   UNL d   1      61.594  48.918  51.192  0.00  0.00    -0.265 OA
BRANCH  15  17
ATOM     17  C   UNL d   1      61.349  47.624  50.192  0.00  0.00     0.197 A 
ATOM     18  N   UNL d   1      62.162  47.617  50.026  0.00  0.00    -0.219 NA
ATOM     19  C   UNL d   1      62.438  46.852  50.141  0.00  0.00     0.108 A 
ATOM     20  C   UNL d   1      61.796  46.381  50.380  0.00  0.00     0.059 A 
ATOM     21  S   UNL d   1      61.132  46.861  50.409  0.00  0.00    -0.046 SA
ENDBRANCH  15  17
ENDBRANCH  13  14
ENDBRANCH  12  13
ENDBRANCH   7  12
TORSDOF 4
ENDMDL
