MODEL 1
REMARK VINA RESULT:      -9.6      0.000      0.000
REMARK  7 active torsions:
REMARK  status: ('A' for Active; 'I' for Inactive)
REMARK    1  A    between atoms: C_8  and  C_1 
REMARK    2  A    between atoms: N_7  and  C_2 
REMARK    3  A    between atoms: C_10  and  C_4 
REMARK       I    between atoms: C_6  and  N_7 
REMARK       I    between atoms: N_9  and  C_6 
REMARK    4  A    between atoms: O_14  and  C_8 
REMARK    5  A    between atoms: C_13  and  N_9 
REMARK    6  A    between atoms: O_20  and  C_15 
REMARK    7  A    between atoms: C_23  and  O_20 
ROOT
ATOM      1  C   UNL d   1      53.886  32.910  54.314  0.00  0.00     0.110 A 
ATOM      2  C   UNL d   1      53.518  33.165  53.569  0.00  0.00     0.098 A 
ATOM      3  S   UNL d   1      53.832  32.120  54.373  0.00  0.00    -0.080 SA
ATOM      4  C   UNL d   1      53.436  31.819  53.690  0.00  0.00     0.031 A 
ATOM      5  C   UNL d   1      53.243  32.490  53.190  0.00  0.00     0.026 A 
ENDROOT
BRANCH   2   6
ATOM      6  N   UNL d   1      53.438  33.924  53.265  0.00  0.00    -0.190 NA
ATOM      7  C   UNL d   1      52.692  34.189  52.990  0.00  0.00     0.369 C 
ATOM      8  N   UNL d   1      52.049  33.715  53.016  0.00  0.00    -0.191 NA
ATOM      9  O   UNL d   1      52.629  34.972  52.681  0.00  0.00    -0.242 OA
BRANCH   8  10
ATOM     10  C   UNL d   1      51.329  33.984  52.745  0.00  0.00     0.086 A 
ATOM     11  C   UNL d   1      50.760  34.219  53.276  0.00  0.00     0.021 A 
ATOM     12  C   UNL d   1      50.027  34.493  53.014  0.00  0.00     0.026 A 
ATOM     13  C   UNL d   1      49.872  34.530  52.210  0.00  0.00     0.100 A 
ATOM     14  C   UNL d   1      50.441  34.295  51.679  0.00  0.00     0.026 A 
ATOM     15  C   UNL d   1      51.173  34.021  51.945  0.00  0.00     0.021 A 
BRANCH  13  16
ATOM     16  O   UNL d   1      49.147  34.802  51.952  0.00  0.00    -0.305 OA
BRANCH  16  17
ATOM     17  C   UNL d   1      48.861  34.568  51.217  0.00  0.00     0.123 C 
ATOM     18  C   UNL d   1      48.129  34.865  50.947  0.00  0.00     0.029 C 
ENDBRANCH  16  17
ENDBRANCH  13  16
ENDBRANCH   8  10
ENDBRANCH   2   6
BRANCH   1  19
ATOM     19  C   UNL d   1      54.244  33.402  54.887  0.00  0.00     0.303 C 
ATOM     20  O   UNL d   1      53.789  33.734  55.474  0.00  0.00    -0.259 OA
BRANCH  19  21
ATOM     21  O   UNL d   1      55.057  33.518  54.810  0.00  0.00    -0.295 OA
ATOM     22  C   UNL d   1      55.505  33.953  55.356  0.00  0.00     0.185 C 
ENDBRANCH  19  21
ENDBRANCH   1  19
BRANCH   4  23
ATOM     23  C   UNL d   1      53.270  31.016  53.540  0.00  0.00     0.006 A 
ATOM     24  C   UNL d   1      52.947  30.767  52.815  0.00  0.00     0.001 A 
ATOM     25  C   UNL d   1      52.784  29.973  52.672  0.00  0.00     0.000 A 
ATOM     26  C   UNL d   1      52.945  29.402  53.264  0.00  0.00     0.000 A 
ATOM     27  C   UNL d   1      53.279  29.656  54.016  0.00  0.00     0.000 A 
ATOM     28  C   UNL d   1      53.430  30.444  54.133  0.00  0.00     0.001 A 
ENDBRANCH   4  23
TORSDOF 7
ENDMDL
MODEL 2
REMARK VINA RESULT:      -8.1      1.544      4.552
REMARK  7 active torsions:
REMARK  status: ('A' for Active; 'I' for Inactive)
REMARK    1  A    between atoms: C_8  and  C_1 
REMARK    2  A    between atoms: N_7  and  C_2 
REMARK    3  A    between atoms: C_10  and  C_4 
REMARK       I    between atoms: C_6  and  N_7 
REMARK       I    between atoms: N_9  and  C_6 
REMARK    4  A    between atoms: O_14  and  C_8 
REMARK    5  A    between atoms: C_13  and  N_9 
REMARK    6  A    between atoms: O_20  and  C_15 
REMARK    7  A    between atoms: C_23  and  O_20 
ROOT
ATOM      1  C   UNL d   1      52.769  34.670  53.683  0.00  0.00     0.110 A 
ATOM      2  C   UNL d   1      53.024  33.990  53.206  0.00  0.00     0.098 A 
ATOM      3  S   UNL d   1      52.024  34.861  53.488  0.00  0.00    -0.080 SA
ATOM      4  C   UNL d   1      51.753  34.332  52.887  0.00  0.00     0.031 A 
ATOM      5  C   UNL d   1      52.394  33.787  52.718  0.00  0.00     0.026 A 
ENDROOT
BRANCH   2   6
ATOM      6  N   UNL d   1      53.745  33.596  53.210  0.00  0.00    -0.190 NA
ATOM      7  C   UNL d   1      53.768  32.768  53.331  0.00  0.00     0.369 C 
ATOM      8  N   UNL d   1      53.097  32.346  53.444  0.00  0.00    -0.191 NA
ATOM      9  O   UNL d   1      54.518  32.379  53.332  0.00  0.00    -0.242 OA
BRANCH   8  10
ATOM     10  C   UNL d   1      53.134  31.540  53.561  0.00  0.00     0.086 A 
ATOM     11  C   UNL d   1      53.351  31.247  54.288  0.00  0.00     0.021 A 
ATOM     12  C   UNL d   1      53.391  30.433  54.418  0.00  0.00     0.026 A 
ATOM     13  C   UNL d   1      53.211  29.916  53.810  0.00  0.00     0.100 A 
ATOM     14  C   UNL d   1      52.994  30.209  53.083  0.00  0.00     0.026 A 
ATOM     15  C   UNL d   1      52.955  31.024  52.956  0.00  0.00     0.021 A 
BRANCH  13  16
ATOM     16  O   UNL d   1      53.251  29.111  53.940  0.00  0.00    -0.305 OA
BRANCH  16  17
ATOM     17  C   UNL d   1      53.315  28.824  54.707  0.00  0.00     0.123 C 
ATOM     18  C   UNL d   1      53.606  28.052  54.835  0.00  0.00     0.029 C 
ENDBRANCH  16  17
ENDBRANCH  13  16
ENDBRANCH   8  10
ENDBRANCH   2   6
BRANCH   1  19
ATOM     19  C   UNL d   1      53.223  35.071  54.260  0.00  0.00     0.303 C 
ATOM     20  O   UNL d   1      53.769  35.628  54.028  0.00  0.00    -0.259 OA
BRANCH  19  21
ATOM     21  O   UNL d   1      53.078  34.865  55.046  0.00  0.00    -0.295 OA
ATOM     22  C   UNL d   1      53.410  35.271  55.688  0.00  0.00     0.185 C 
ENDBRANCH  19  21
ENDBRANCH   1  19
BRANCH   4  23
ATOM     23  C   UNL d   1      50.999  34.348  52.532  0.00  0.00     0.006 A 
ATOM     24  C   UNL d   1      50.308  34.448  52.986  0.00  0.00     0.001 A 
ATOM     25  C   UNL d   1      49.566  34.463  52.631  0.00  0.00     0.000 A 
ATOM     26  C   UNL d   1      49.499  34.376  51.800  0.00  0.00     0.000 A 
ATOM     27  C   UNL d   1      50.211  34.272  51.328  0.00  0.00     0.000 A 
ATOM     28  C   UNL d   1      50.932  34.261  51.701  0.00  0.00     0.001 A 
ENDBRANCH   4  23
TORSDOF 7
ENDMDL
MODEL 3
REMARK VINA RESULT:      -7.9      1.463      2.835
REMARK  7 active torsions:
REMARK  status: ('A' for Active; 'I' for Inactive)
REMARK    1  A    between atoms: C_8  and  C_1 
REMARK    2  A    between atoms: N_7  and  C_2 
REMARK    3  A    between atoms: C_10  and  C_4 
REMARK       I    between atoms: C_6  and  N_7 
REMARK       I    between atoms: N_9  and  C_6 
REMARK    4  A    between atoms: O_14  and  C_8 
REMARK    5  A    between atoms: C_13  and  N_9 
REMARK    6  A    between atoms: O_20  and  C_15 
REMARK    7  A    between atoms: C_23  and  O_20 
ROOT
ATOM      1  C   UNL d   1      53.619  31.279  53.664  0.00  0.00     0.110 A 
ATOM      2  C   UNL d   1      53.241  31.912  53.204  0.00  0.00     0.098 A 
ATOM      3  S   UNL d   1      54.111  31.602  54.195  0.00  0.00    -0.080 SA
ATOM      4  C   UNL d   1      54.086  32.443  54.118  0.00  0.00     0.031 A 
ATOM      5  C   UNL d   1      53.533  32.625  53.488  0.00  0.00     0.026 A 
ENDROOT
BRANCH   2   6
ATOM      6  N   UNL d   1      52.693  31.852  52.595  0.00  0.00    -0.190 NA
ATOM      7  C   UNL d   1      52.065  32.404  52.541  0.00  0.00     0.369 C 
ATOM      8  N   UNL d   1      51.986  32.995  53.075  0.00  0.00    -0.191 NA
ATOM      9  O   UNL d   1      51.511  32.328  51.908  0.00  0.00    -0.242 OA
BRANCH   8  10
ATOM     10  C   UNL d   1      51.370  33.526  53.011  0.00  0.00     0.086 A 
ATOM     11  C   UNL d   1      50.712  33.438  53.481  0.00  0.00     0.021 A 
ATOM     12  C   UNL d   1      50.083  33.969  53.425  0.00  0.00     0.026 A 
ATOM     13  C   UNL d   1      50.122  34.590  52.892  0.00  0.00     0.100 A 
ATOM     14  C   UNL d   1      50.780  34.677  52.423  0.00  0.00     0.026 A 
ATOM     15  C   UNL d   1      51.407  34.144  52.481  0.00  0.00     0.021 A 
BRANCH  13  16
ATOM     16  O   UNL d   1      49.498  35.114  52.839  0.00  0.00    -0.305 OA
BRANCH  16  17
ATOM     17  C   UNL d   1      48.890  34.973  52.304  0.00  0.00     0.123 C 
ATOM     18  C   UNL d   1      48.269  35.525  52.233  0.00  0.00     0.029 C 
ENDBRANCH  16  17
ENDBRANCH  13  16
ENDBRANCH   8  10
ENDBRANCH   2   6
BRANCH   1  19
ATOM     19  C   UNL d   1      53.496  30.457  53.574  0.00  0.00     0.303 C 
ATOM     20  O   UNL d   1      53.687  30.094  52.871  0.00  0.00    -0.259 OA
BRANCH  19  21
ATOM     21  O   UNL d   1      53.179  30.063  54.226  0.00  0.00    -0.295 OA
ATOM     22  C   UNL d   1      53.168  29.236  54.294  0.00  0.00     0.185 C 
ENDBRANCH  19  21
ENDBRANCH   1  19
BRANCH   4  23
ATOM     23  C   UNL d   1      54.524  32.985  54.576  0.00  0.00     0.006 A 
ATOM     24  C   UNL d   1      54.350  33.114  55.380  0.00  0.00     0.001 A 
ATOM     25  C   UNL d   1      54.785  33.650  55.828  0.00  0.00     0.000 A 
ATOM     26  C   UNL d   1      55.414  34.075  55.474  0.00  0.00     0.000 A 
ATOM     27  C   UNL d   1      55.597  33.945  54.643  0.00  0.00     0.000 A 
ATOM     28  C   UNL d   1      55.154  33.411  54.222  0.00  0.00     0.001 A 
ENDBRANCH   4  23
TORSDOF 7
ENDMDL
