MODEL 1
REMARK VINA RESULT:      14.4      0.000      0.000
REMARK  3 active torsions:
REMARK  status: ('A' for Active; 'I' for Inactive)
REMARK    1  A    between atoms: N_2  and  S_1 
REMARK    2  A    between atoms: C_4  and  S_1 
REMARK       I    between atoms: C_8  and  N_10 
REMARK    3  A    between atoms: N_10  and  C_16 
ROOT
ATOM      1  S   UNL d   1      45.987 -16.877  44.339  0.00  0.00     0.271 S 
ATOM      2  O   UNL d   1      46.492 -16.662  43.726  0.00  0.00    -0.200 OA
ATOM      3  O   UNL d   1      45.480 -17.089  44.955  0.00  0.00    -0.200 OA
ENDROOT
BRANCH   1   4
ATOM      4  N   UNL d   1      46.141 -17.672  44.187  0.00  0.00    -0.229 N 
ATOM      5  C   UNL d   1      46.167 -17.937  43.404  0.00  0.00     0.092 A 
ATOM      6  C   UNL d   1      46.321 -18.729  43.249  0.00  0.00     0.018 A 
ATOM      7  C   UNL d   1      46.346 -18.991  42.468  0.00  0.00     0.002 A 
ATOM      8  C   UNL d   1      46.449 -19.258  43.868  0.00  0.00     0.003 A 
ATOM      9  C   UNL d   1      46.500 -19.783  42.314  0.00  0.00     0.000 A 
ATOM     10  C   UNL d   1      46.629 -20.315  42.930  0.00  0.00     0.000 A 
ATOM     11  C   UNL d   1      46.602 -20.047  43.710  0.00  0.00     0.000 A 
ATOM     12  C   UNL d   1      46.422 -18.987  44.646  0.00  0.00     0.020 A 
ATOM     13  C   UNL d   1      46.267 -18.189  44.805  0.00  0.00     0.092 A 
ENDBRANCH   1   4
BRANCH   1  14
ATOM     14  C   UNL d   1      45.836 -16.077  44.486  0.00  0.00     0.104 A 
ATOM     15  C   UNL d   1      46.415 -15.514  44.305  0.00  0.00     0.014 A 
ATOM     16  C   UNL d   1      46.259 -14.717  44.453  0.00  0.00     0.020 A 
ATOM     17  C   UNL d   1      45.537 -14.485  44.778  0.00  0.00     0.085 A 
ATOM     18  C   UNL d   1      44.967 -15.060  44.954  0.00  0.00     0.020 A 
ATOM     19  C   UNL d   1      45.119 -15.852  44.808  0.00  0.00     0.014 A 
BRANCH  17  20
ATOM     20  N   UNL d   1      45.392 -13.691  44.922  0.00  0.00    -0.208 NA
ATOM     21  C   UNL d   1      45.497 -13.133  44.329  0.00  0.00     0.279 C 
ATOM     22  O   UNL d   1      45.751 -13.369  43.580  0.00  0.00    -0.265 OA
ATOM     23  C   UNL d   1      45.351 -12.334  44.474  0.00  0.00     0.068 C 
ENDBRANCH  17  20
ENDBRANCH   1  14
TORSDOF 3
ENDMDL
