MODEL 1
REMARK VINA RESULT:      42.6      0.000      0.000
REMARK  5 active torsions:
REMARK  status: ('A' for Active; 'I' for Inactive)
REMARK    1  A    between atoms: N_10  and  C_3 
REMARK    2  A    between atoms: N_11  and  C_6 
REMARK    3  A    between atoms: C_12  and  N_10 
REMARK    4  A    between atoms: C_13  and  N_11 
REMARK    5  A    between atoms: C_21  and  C_13 
ROOT
ATOM      1  C   UNL d   1      14.644  13.094  -1.146  0.00  0.00     0.187 A 
ATOM      2  C   UNL d   1      14.108  12.641  -1.505  0.00  0.00     0.094 A 
ATOM      3  C   UNL d   1      13.832  12.842  -2.218  0.00  0.00     0.185 A 
ATOM      4  N   UNL d   1      14.907  13.745  -1.492  0.00  0.00    -0.040 NA
ATOM      5  N   UNL d   1      14.101  13.498  -2.560  0.00  0.00    -0.040 NA
ATOM      6  C   UNL d   1      14.637  13.948  -2.198  0.00  0.00     0.753 A 
ATOM      7  N   UNL d   1      14.651  12.230  -0.083  0.00  0.00    -0.162 NA
ATOM      8  N   UNL d   1      14.919  12.893  -0.434  0.00  0.00    -0.208 N 
ATOM      9  C   UNL d   1      14.115  11.780  -0.445  0.00  0.00     0.127 A 
ATOM     10  C   UNL d   1      15.452  13.341  -0.073  0.00  0.00     0.123 C 
ENDROOT
BRANCH   3  11
ATOM     11  N   UNL d   1      13.275  12.379  -2.601  0.00  0.00    -0.226 NA
BRANCH  11  12
ATOM     12  C   UNL d   1      13.217  12.391  -3.421  0.00  0.00     0.083 A 
ATOM     13  C   UNL d   1      12.827  13.013  -3.812  0.00  0.00     0.021 A 
ATOM     14  C   UNL d   1      12.769  13.026  -4.635  0.00  0.00     0.031 A 
ATOM     15  C   UNL d   1      13.106  12.408  -5.078  0.00  0.00     0.140 A 
ATOM     16  C   UNL d   1      13.492  11.791  -4.697  0.00  0.00     0.031 A 
ATOM     17  F   UNL d   1      13.053  12.412  -5.898  0.00  0.00    -0.204 F 
ATOM     18  C   UNL d   1      13.548  11.782  -3.866  0.00  0.00     0.021 A 
ENDBRANCH  11  12
ENDBRANCH   3  11
BRANCH   6  19
ATOM     19  N   UNL d   1      14.913  14.638  -2.568  0.00  0.00    -0.058 NA
BRANCH  19  20
ATOM     20  C   UNL d   1      14.571  15.373  -2.380  0.00  0.00     0.118 C 
BRANCH  20  21
ATOM     21  C   UNL d   1      14.830  16.061  -2.004  0.00  0.00     0.020 A 
ATOM     22  C   UNL d   1      15.050  16.727  -2.445  0.00  0.00     0.002 A 
ATOM     23  C   UNL d   1      15.310  17.413  -2.052  0.00  0.00     0.000 A 
ATOM     24  C   UNL d   1      15.348  17.432  -1.232  0.00  0.00     0.000 A 
ATOM     25  C   UNL d   1      15.131  16.772  -0.793  0.00  0.00     0.000 A 
ATOM     26  C   UNL d   1      14.872  16.088  -1.179  0.00  0.00     0.002 A 
ENDBRANCH  20  21
ENDBRANCH  19  20
ENDBRANCH   6  19
TORSDOF 5
ENDMDL
