MODEL 1
REMARK VINA RESULT:      -0.7      0.000      0.000
REMARK  6 active torsions:
REMARK  status: ('A' for Active; 'I' for Inactive)
REMARK    1  A    between atoms: O_10  and  C_1 
REMARK    2  A    between atoms: O_9  and  C_6 
REMARK    3  A    between atoms: O_12  and  C_8 
REMARK    4  A    between atoms: C_13  and  O_9 
REMARK    5  A    between atoms: C_19  and  O_10 
REMARK    6  A    between atoms: C_14  and  O_12 
ROOT
ATOM      1  C   UNL d   1      56.842  -0.495  32.986  0.00  0.00     0.161 A 
ATOM      2  C   UNL d   1      57.779  -0.115  31.677  0.00  0.00     0.128 A 
ATOM      3  C   UNL d   1      57.154  -0.676  31.609  0.00  0.00     0.066 A 
ATOM      4  C   UNL d   1      56.694  -0.858  32.267  0.00  0.00     0.222 A 
ATOM      5  O   UNL d   1      57.932   0.254  32.401  0.00  0.00    -0.303 OA
ATOM      6  C   UNL d   1      58.245   0.072  31.021  0.00  0.00     0.149 A 
ATOM      7  C   UNL d   1      57.467   0.067  33.054  0.00  0.00     0.126 A 
ATOM      8  C   UNL d   1      58.091  -0.296  30.303  0.00  0.00     0.128 A 
ATOM      9  C   UNL d   1      57.007  -1.039  30.886  0.00  0.00     0.007 A 
ATOM     10  O   UNL d   1      56.084  -1.406  32.200  0.00  0.00    -0.284 OA
ATOM     11  C   UNL d   1      57.466  -0.857  30.235  0.00  0.00     0.027 A 
ATOM     12  C   UNL d   1      57.616   0.438  33.794  0.00  0.00     0.029 C 
ENDROOT
BRANCH   1  13
ATOM     13  O   UNL d   1      56.378  -0.674  33.660  0.00  0.00    -0.302 OA
BRANCH  13  14
ATOM     14  C   UNL d   1      55.675  -0.264  33.785  0.00  0.00     0.100 A 
ATOM     15  C   UNL d   1      55.617   0.268  34.410  0.00  0.00     0.025 A 
ATOM     16  C   UNL d   1      54.911   0.680  34.536  0.00  0.00     0.002 A 
ATOM     17  C   UNL d   1      54.266   0.558  34.036  0.00  0.00     0.000 A 
ATOM     18  C   UNL d   1      54.327   0.023  33.411  0.00  0.00     0.002 A 
ATOM     19  C   UNL d   1      55.033  -0.389  33.285  0.00  0.00     0.025 A 
ENDBRANCH  13  14
ENDBRANCH   1  13
BRANCH   6  20
ATOM     20  O   UNL d   1      58.853   0.618  31.087  0.00  0.00    -0.269 OA
BRANCH  20  21
ATOM     21  C   UNL d   1      59.621   0.364  31.245  0.00  0.00     0.300 C 
ATOM     22  O   UNL d   1      59.772  -0.090  31.917  0.00  0.00    -0.259 OA
ATOM     23  C   UNL d   1      60.238   0.565  30.733  0.00  0.00     0.074 C 
ENDBRANCH  20  21
ENDBRANCH   6  20
BRANCH   8  24
ATOM     24  O   UNL d   1      58.561  -0.111  29.628  0.00  0.00    -0.271 OA
BRANCH  24  25
ATOM     25  C   UNL d   1      58.353  -0.409  28.885  0.00  0.00     0.300 C 
ATOM     26  O   UNL d   1      57.721  -0.074  28.483  0.00  0.00    -0.259 OA
ATOM     27  C   UNL d   1      58.776  -1.032  28.554  0.00  0.00     0.074 C 
ENDBRANCH  24  25
ENDBRANCH   8  24
TORSDOF 6
ENDMDL
MODEL 2
REMARK VINA RESULT:       0.4      1.141      4.741
REMARK  6 active torsions:
REMARK  status: ('A' for Active; 'I' for Inactive)
REMARK    1  A    between atoms: O_10  and  C_1 
REMARK    2  A    between atoms: O_9  and  C_6 
REMARK    3  A    between atoms: O_12  and  C_8 
REMARK    4  A    between atoms: C_13  and  O_9 
REMARK    5  A    between atoms: C_19  and  O_10 
REMARK    6  A    between atoms: C_14  and  O_12 
ROOT
ATOM      1  C   UNL d   1      58.098   0.666  30.402  0.00  0.00     0.161 A 
ATOM      2  C   UNL d   1      57.224   0.673  31.807  0.00  0.00     0.128 A 
ATOM      3  C   UNL d   1      58.066   0.670  31.826  0.00  0.00     0.066 A 
ATOM      4  C   UNL d   1      58.491   0.667  31.121  0.00  0.00     0.222 A 
ATOM      5  O   UNL d   1      56.823   0.672  31.084  0.00  0.00    -0.303 OA
ATOM      6  C   UNL d   1      56.791   0.677  32.510  0.00  0.00     0.149 A 
ATOM      7  C   UNL d   1      57.255   0.668  30.383  0.00  0.00     0.126 A 
ATOM      8  C   UNL d   1      57.192   0.678  33.227  0.00  0.00     0.128 A 
ATOM      9  C   UNL d   1      58.459   0.671  32.548  0.00  0.00     0.007 A 
ATOM     10  O   UNL d   1      59.314   0.664  31.139  0.00  0.00    -0.284 OA
ATOM     11  C   UNL d   1      58.035   0.675  33.245  0.00  0.00     0.027 A 
ATOM     12  C   UNL d   1      56.855   0.667  29.644  0.00  0.00     0.029 C 
ENDROOT
BRANCH   1  13
ATOM     13  O   UNL d   1      58.523   0.662  29.681  0.00  0.00    -0.302 OA
BRANCH  13  14
ATOM     14  C   UNL d   1      58.772  -0.056  29.365  0.00  0.00     0.100 A 
ATOM     15  C   UNL d   1      59.514  -0.114  29.013  0.00  0.00     0.025 A 
ATOM     16  C   UNL d   1      59.764  -0.835  28.695  0.00  0.00     0.002 A 
ATOM     17  C   UNL d   1      59.271  -1.496  28.730  0.00  0.00     0.000 A 
ATOM     18  C   UNL d   1      58.527  -1.435  29.082  0.00  0.00     0.002 A 
ATOM     19  C   UNL d   1      58.277  -0.713  29.401  0.00  0.00     0.025 A 
ENDBRANCH  13  14
ENDBRANCH   1  13
BRANCH   6  20
ATOM     20  O   UNL d   1      55.971   0.680  32.492  0.00  0.00    -0.269 OA
BRANCH  20  21
ATOM     21  C   UNL d   1      55.549   0.037  32.788  0.00  0.00     0.300 C 
ATOM     22  O   UNL d   1      55.612  -0.700  32.422  0.00  0.00    -0.259 OA
ATOM     23  C   UNL d   1      55.064   0.129  33.452  0.00  0.00     0.074 C 
ENDBRANCH  20  21
ENDBRANCH   6  20
BRANCH   8  24
ATOM     24  O   UNL d   1      56.759   0.682  33.950  0.00  0.00    -0.271 OA
BRANCH  24  25
ATOM     25  C   UNL d   1      57.160   0.680  34.673  0.00  0.00     0.300 C 
ATOM     26  O   UNL d   1      56.727   0.678  35.370  0.00  0.00    -0.259 OA
ATOM     27  C   UNL d   1      57.983   0.679  34.692  0.00  0.00     0.074 C 
ENDBRANCH  24  25
ENDBRANCH   8  24
TORSDOF 6
ENDMDL
MODEL 3
REMARK VINA RESULT:       1.0      1.190      2.197
REMARK  6 active torsions:
REMARK  status: ('A' for Active; 'I' for Inactive)
REMARK    1  A    between atoms: O_10  and  C_1 
REMARK    2  A    between atoms: O_9  and  C_6 
REMARK    3  A    between atoms: O_12  and  C_8 
REMARK    4  A    between atoms: C_13  and  O_9 
REMARK    5  A    between atoms: C_19  and  O_10 
REMARK    6  A    between atoms: C_14  and  O_12 
ROOT
ATOM      1  C   UNL d   1      57.117   0.649  32.522  0.00  0.00     0.161 A 
ATOM      2  C   UNL d   1      58.065   0.658  31.166  0.00  0.00     0.128 A 
ATOM      3  C   UNL d   1      58.414   0.665  31.933  0.00  0.00     0.066 A 
ATOM      4  C   UNL d   1      57.933   0.661  32.601  0.00  0.00     0.222 A 
ATOM      5  O   UNL d   1      57.243   0.646  31.081  0.00  0.00    -0.303 OA
ATOM      6  C   UNL d   1      58.542   0.662  30.491  0.00  0.00     0.149 A 
ATOM      7  C   UNL d   1      56.769   0.642  31.754  0.00  0.00     0.126 A 
ATOM      8  C   UNL d   1      59.358   0.674  30.579  0.00  0.00     0.128 A 
ATOM      9  C   UNL d   1      59.232   0.677  32.011  0.00  0.00     0.007 A 
ATOM     10  O   UNL d   1      58.273   0.669  33.350  0.00  0.00    -0.284 OA
ATOM     11  C   UNL d   1      59.707   0.681  31.346  0.00  0.00     0.027 A 
ATOM     12  C   UNL d   1      55.932   0.629  31.676  0.00  0.00     0.029 C 
ENDROOT
BRANCH   1  13
ATOM     13  O   UNL d   1      56.622   0.645  33.196  0.00  0.00    -0.302 OA
BRANCH  13  14
ATOM     14  C   UNL d   1      56.087   0.027  33.299  0.00  0.00     0.100 A 
ATOM     15  C   UNL d   1      55.313   0.189  33.529  0.00  0.00     0.025 A 
ATOM     16  C   UNL d   1      54.776  -0.432  33.632  0.00  0.00     0.002 A 
ATOM     17  C   UNL d   1      55.015  -1.211  33.504  0.00  0.00     0.000 A 
ATOM     18  C   UNL d   1      55.791  -1.370  33.272  0.00  0.00     0.002 A 
ATOM     19  C   UNL d   1      56.328  -0.749  33.170  0.00  0.00     0.025 A 
ENDBRANCH  13  14
ENDBRANCH   1  13
BRANCH   6  20
ATOM     20  O   UNL d   1      58.203   0.654  29.745  0.00  0.00    -0.269 OA
BRANCH  20  21
ATOM     21  C   UNL d   1      58.089  -0.060  29.350  0.00  0.00     0.300 C 
ATOM     22  O   UNL d   1      57.743  -0.696  29.744  0.00  0.00    -0.259 OA
ATOM     23  C   UNL d   1      58.321  -0.139  28.560  0.00  0.00     0.074 C 
ENDBRANCH  20  21
ENDBRANCH   6  20
BRANCH   8  24
ATOM     24  O   UNL d   1      59.853   0.678  29.896  0.00  0.00    -0.271 OA
BRANCH  24  25
ATOM     25  C   UNL d   1      60.670   0.578  29.976  0.00  0.00     0.300 C 
ATOM     26  O   UNL d   1      61.130   0.495  29.302  0.00  0.00    -0.259 OA
ATOM     27  C   UNL d   1      61.015   0.563  30.723  0.00  0.00     0.074 C 
ENDBRANCH  24  25
ENDBRANCH   8  24
TORSDOF 6
ENDMDL
