MODEL 1
REMARK VINA RESULT:      -1.8      0.000      0.000
REMARK  4 active torsions:
REMARK  status: ('A' for Active; 'I' for Inactive)
REMARK    1  A    between atoms: C_2  and  N_1 
REMARK    2  A    between atoms: C_12  and  C_5 
REMARK    3  A    between atoms: O_20  and  C_12 
REMARK    4  A    between atoms: C_21  and  C_13 
ROOT
ATOM      1  N   UNL d   1     -41.610-122.578 -50.343  0.00  0.00    -0.237 N 
ATOM      2  C   UNL d   1     -41.772-121.818 -50.652  0.00  0.00     0.263 A 
ATOM      3  C   UNL d   1     -41.343-123.059 -50.968  0.00  0.00     0.263 A 
ATOM      4  C   UNL d   1     -41.339-122.602 -51.657  0.00  0.00     0.039 A 
ATOM      5  C   UNL d   1     -41.606-121.833 -51.460  0.00  0.00     0.039 A 
ATOM      6  C   UNL d   1     -41.127-122.785 -52.448  0.00  0.00     0.049 A 
ATOM      7  C   UNL d   1     -41.661-121.240 -52.052  0.00  0.00     0.049 A 
ATOM      8  C   UNL d   1     -41.186-122.181 -53.040  0.00  0.00    -0.026 A 
ATOM      9  C   UNL d   1     -41.452-121.416 -52.836  0.00  0.00    -0.026 A 
ATOM     10  C   UNL d   1     -41.390-122.239 -51.936  0.00  0.00     0.018 A 
ATOM     11  O   UNL d   1     -41.133-123.817 -50.899  0.00  0.00    -0.267 OA
ATOM     12  O   UNL d   1     -42.037-121.202 -50.237  0.00  0.00    -0.267 OA
ENDROOT
BRANCH   1  13
ATOM     13  C   UNL d   1     -41.699-122.799 -49.575  0.00  0.00     0.105 A 
ATOM     14  C   UNL d   1     -42.381-123.021 -49.235  0.00  0.00     0.086 A 
ATOM     15  C   UNL d   1     -42.228-123.195 -48.467  0.00  0.00     0.014 A 
ATOM     16  C   UNL d   1     -41.455-123.076 -48.351  0.00  0.00     0.031 A 
ATOM     17  S   UNL d   1     -41.123-122.833 -49.024  0.00  0.00    -0.069 SA
BRANCH  14  18
ATOM     18  C   UNL d   1     -43.092-123.064 -49.594  0.00  0.00     0.298 C 
ATOM     19  O   UNL d   1     -43.557-122.417 -49.647  0.00  0.00    -0.259 OA
BRANCH  18  20
ATOM     20  O   UNL d   1     -43.344-123.764 -49.906  0.00  0.00    -0.296 OA
ATOM     21  C   UNL d   1     -44.132-123.817 -49.942  0.00  0.00     0.185 C 
ENDBRANCH  18  20
ENDBRANCH  14  18
BRANCH  16  22
ATOM     22  C   UNL d   1     -41.143-123.208 -47.624  0.00  0.00     0.006 C 
ATOM     23  C   UNL d   1     -41.597-123.102 -46.956  0.00  0.00     0.001 C 
ENDBRANCH  16  22
ENDBRANCH   1  13
TORSDOF 4
ENDMDL
MODEL 2
REMARK VINA RESULT:      -0.1      1.118      3.711
REMARK  4 active torsions:
REMARK  status: ('A' for Active; 'I' for Inactive)
REMARK    1  A    between atoms: C_2  and  N_1 
REMARK    2  A    between atoms: C_12  and  C_5 
REMARK    3  A    between atoms: O_20  and  C_12 
REMARK    4  A    between atoms: C_21  and  C_13 
ROOT
ATOM      1  N   UNL d   1     -42.286-123.318 -49.859  0.00  0.00    -0.237 N 
ATOM      2  C   UNL d   1     -43.055-123.573 -49.653  0.00  0.00     0.263 A 
ATOM      3  C   UNL d   1     -41.870-123.160 -49.155  0.00  0.00     0.263 A 
ATOM      4  C   UNL d   1     -42.375-123.317 -48.520  0.00  0.00     0.039 A 
ATOM      5  C   UNL d   1     -43.110-123.573 -48.830  0.00  0.00     0.039 A 
ATOM      6  C   UNL d   1     -42.265-123.260 -47.690  0.00  0.00     0.049 A 
ATOM      7  C   UNL d   1     -43.740-123.774 -48.313  0.00  0.00     0.049 A 
ATOM      8  C   UNL d   1     -42.905-123.466 -47.175  0.00  0.00    -0.026 A 
ATOM      9  C   UNL d   1     -43.635-123.720 -47.491  0.00  0.00    -0.026 A 
ATOM     10  C   UNL d   1     -42.754-123.440 -48.288  0.00  0.00     0.018 A 
ATOM     11  O   UNL d   1     -41.123-122.907 -49.117  0.00  0.00    -0.267 OA
ATOM     12  O   UNL d   1     -43.622-123.777 -50.163  0.00  0.00    -0.267 OA
ENDROOT
BRANCH   1  13
ATOM     13  C   UNL d   1     -42.005-123.239 -50.608  0.00  0.00     0.105 A 
ATOM     14  C   UNL d   1     -42.011-122.571 -51.036  0.00  0.00     0.086 A 
ATOM     15  C   UNL d   1     -41.680-122.731 -51.749  0.00  0.00     0.014 A 
ATOM     16  C   UNL d   1     -41.477-123.496 -51.744  0.00  0.00     0.031 A 
ATOM     17  S   UNL d   1     -41.672-123.815 -51.049  0.00  0.00    -0.069 SA
BRANCH  14  18
ATOM     18  C   UNL d   1     -42.296-121.865 -50.799  0.00  0.00     0.298 C 
ATOM     19  O   UNL d   1     -43.083-121.752 -50.727  0.00  0.00    -0.259 OA
BRANCH  18  20
ATOM     20  O   UNL d   1     -41.788-121.261 -50.630  0.00  0.00    -0.296 OA
ATOM     21  C   UNL d   1     -41.672-120.778 -51.245  0.00  0.00     0.185 C 
ENDBRANCH  18  20
ENDBRANCH  14  18
BRANCH  16  22
ATOM     22  C   UNL d   1     -41.129-123.813 -52.394  0.00  0.00     0.006 C 
ATOM     23  C   UNL d   1     -41.511-123.797 -53.113  0.00  0.00     0.001 C 
ENDBRANCH  16  22
ENDBRANCH   1  13
TORSDOF 4
ENDMDL
