MODEL 1
REMARK VINA RESULT:      -4.2      0.000      0.000
REMARK  6 active torsions:
REMARK  status: ('A' for Active; 'I' for Inactive)
REMARK    1  A    between atoms: C_2  and  S_1 
REMARK    2  A    between atoms: N_4  and  S_1 
REMARK    3  A    between atoms: C_9  and  C_17 
REMARK       I    between atoms: N_20  and  C_9 
REMARK    4  A    between atoms: C_18  and  C_25 
REMARK    5  A    between atoms: C_24  and  N_20 
REMARK    6  A    between atoms: C_25  and  C_24 
ROOT
ATOM      1  N   UNL d   1      31.817  16.874 -24.333  0.00  0.00    -0.229 N 
ATOM      2  C   UNL d   1      31.951  17.497 -24.863  0.00  0.00     0.092 A 
ATOM      3  C   UNL d   1      32.009  16.969 -23.537  0.00  0.00     0.092 A 
ATOM      4  C   UNL d   1      32.467  18.299 -23.793  0.00  0.00     0.061 A 
ATOM      5  C   UNL d   1      32.333  17.678 -23.269  0.00  0.00     0.025 A 
ATOM      6  C   UNL d   1      32.275  18.206 -24.594  0.00  0.00     0.025 A 
ENDROOT
BRANCH   1   7
ATOM      7  S   UNL d   1      31.492  16.160 -24.602  0.00  0.00     0.273 S 
ATOM      8  O   UNL d   1      31.169  15.453 -24.870  0.00  0.00    -0.200 OA
ATOM      9  O   UNL d   1      32.248  15.837 -24.659  0.00  0.00    -0.200 OA
BRANCH   7  10
ATOM     10  C   UNL d   1      30.731  16.485 -24.545  0.00  0.00     0.125 A 
ATOM     11  C   UNL d   1      30.186  16.177 -24.008  0.00  0.00     0.142 A 
ATOM     12  C   UNL d   1      29.430  16.500 -23.951  0.00  0.00     0.131 A 
ATOM     13  N   UNL d   1      30.244  15.555 -23.466  0.00  0.00    -0.101 NA
ATOM     14  N   UNL d   1      29.015  16.080 -23.373  0.00  0.00    -0.102 NA
ATOM     15  C   UNL d   1      29.212  17.135 -24.431  0.00  0.00     0.023 A 
ATOM     16  O   UNL d   1      29.512  15.500 -23.074  0.00  0.00    -0.106 OA
ATOM     17  C   UNL d   1      29.759  17.449 -24.974  0.00  0.00     0.002 A 
ATOM     18  C   UNL d   1      30.515  17.126 -25.031  0.00  0.00     0.015 A 
ENDBRANCH   7  10
ENDBRANCH   1   7
BRANCH   4  19
ATOM     19  C   UNL d   1      32.789  19.002 -23.521  0.00  0.00     0.279 C 
ATOM     20  O   UNL d   1      33.221  19.480 -24.023  0.00  0.00    -0.265 OA
ATOM     21  N   UNL d   1      32.677  19.234 -22.729  0.00  0.00    -0.206 NA
BRANCH  21  22
ATOM     22  C   UNL d   1      33.004  19.949 -22.449  0.00  0.00     0.102 C 
BRANCH  22  23
ATOM     23  C   UNL d   1      32.888  20.182 -21.661  0.00  0.00     0.021 C 
BRANCH  23  24
ATOM     24  C   UNL d   1      32.873  20.989 -21.469  0.00  0.00     0.002 A 
ATOM     25  C   UNL d   1      33.077  21.549 -22.031  0.00  0.00     0.000 A 
ATOM     26  C   UNL d   1      33.062  22.356 -21.839  0.00  0.00     0.000 A 
ATOM     27  C   UNL d   1      32.844  22.599 -21.086  0.00  0.00     0.000 A 
ATOM     28  C   UNL d   1      32.636  22.033 -20.514  0.00  0.00     0.000 A 
ATOM     29  C   UNL d   1      32.651  21.226 -20.706  0.00  0.00     0.000 A 
ENDBRANCH  23  24
ENDBRANCH  22  23
ENDBRANCH  21  22
ENDBRANCH   4  19
TORSDOF 6
ENDMDL
MODEL 2
REMARK VINA RESULT:      -4.2      0.833      1.342
REMARK  6 active torsions:
REMARK  status: ('A' for Active; 'I' for Inactive)
REMARK    1  A    between atoms: C_2  and  S_1 
REMARK    2  A    between atoms: N_4  and  S_1 
REMARK    3  A    between atoms: C_9  and  C_17 
REMARK       I    between atoms: N_20  and  C_9 
REMARK    4  A    between atoms: C_18  and  C_25 
REMARK    5  A    between atoms: C_24  and  N_20 
REMARK    6  A    between atoms: C_25  and  C_24 
ROOT
ATOM      1  N   UNL d   1      30.750  16.550 -24.556  0.00  0.00    -0.229 N 
ATOM      2  C   UNL d   1      31.042  16.533 -23.780  0.00  0.00     0.092 A 
ATOM      3  C   UNL d   1      31.047  17.104 -25.089  0.00  0.00     0.092 A 
ATOM      4  C   UNL d   1      31.922  17.623 -24.085  0.00  0.00     0.061 A 
ATOM      5  C   UNL d   1      31.630  17.637 -24.855  0.00  0.00     0.025 A 
ATOM      6  C   UNL d   1      31.626  17.067 -23.546  0.00  0.00     0.025 A 
ENDROOT
BRANCH   1   7
ATOM      7  S   UNL d   1      30.164  16.014 -24.792  0.00  0.00     0.273 S 
ATOM      8  O   UNL d   1      29.582  15.482 -25.026  0.00  0.00    -0.200 OA
ATOM      9  O   UNL d   1      30.745  15.453 -24.961  0.00  0.00    -0.200 OA
BRANCH   7  10
ATOM     10  C   UNL d   1      29.580  16.577 -24.622  0.00  0.00     0.125 A 
ATOM     11  C   UNL d   1      29.017  16.430 -24.038  0.00  0.00     0.142 A 
ATOM     12  C   UNL d   1      28.437  16.990 -23.869  0.00  0.00     0.131 A 
ATOM     13  N   UNL d   1      28.902  15.779 -23.539  0.00  0.00    -0.101 NA
ATOM     14  N   UNL d   1      27.959  16.690 -23.265  0.00  0.00    -0.102 NA
ATOM     15  C   UNL d   1      28.414  17.703 -24.283  0.00  0.00     0.023 A 
ATOM     16  O   UNL d   1      28.242  15.947 -23.061  0.00  0.00    -0.106 OA
ATOM     17  C   UNL d   1      28.980  17.855 -24.874  0.00  0.00     0.002 A 
ATOM     18  C   UNL d   1      29.560  17.295 -25.043  0.00  0.00     0.015 A 
ENDBRANCH   7  10
ENDBRANCH   1   7
BRANCH   4  19
ATOM     19  C   UNL d   1      32.502  18.156 -23.857  0.00  0.00     0.279 C 
ATOM     20  O   UNL d   1      33.174  18.253 -24.311  0.00  0.00    -0.265 OA
ATOM     21  N   UNL d   1      32.409  18.601 -23.160  0.00  0.00    -0.206 NA
BRANCH  21  22
ATOM     22  C   UNL d   1      32.998  19.145 -22.926  0.00  0.00     0.102 C 
BRANCH  22  23
ATOM     23  C   UNL d   1      33.131  19.297 -22.121  0.00  0.00     0.021 C 
BRANCH  23  24
ATOM     24  C   UNL d   1      33.087  20.074 -21.837  0.00  0.00     0.002 A 
ATOM     25  C   UNL d   1      32.895  20.217 -21.054  0.00  0.00     0.000 A 
ATOM     26  C   UNL d   1      32.851  20.995 -20.770  0.00  0.00     0.000 A 
ATOM     27  C   UNL d   1      32.999  21.628 -21.271  0.00  0.00     0.000 A 
ATOM     28  C   UNL d   1      33.194  21.487 -22.067  0.00  0.00     0.000 A 
ATOM     29  C   UNL d   1      33.238  20.709 -22.350  0.00  0.00     0.000 A 
ENDBRANCH  23  24
ENDBRANCH  22  23
ENDBRANCH  21  22
ENDBRANCH   4  19
TORSDOF 6
ENDMDL
