MODEL 1
REMARK VINA RESULT:     113.1      0.000      0.000
REMARK  7 active torsions:
REMARK  status: ('A' for Active; 'I' for Inactive)
REMARK    1  A    between atoms: C_7  and  C_1 
REMARK    2  A    between atoms: S_8  and  C_3 
REMARK       I    between atoms: C_6  and  N_13 
REMARK    3  A    between atoms: C_10  and  C_6 
REMARK    4  A    between atoms: C_20  and  S_8 
REMARK    5  A    between atoms: N_13  and  C_21 
REMARK    6  A    between atoms: O_19  and  C_14 
REMARK    7  A    between atoms: C_21  and  C_20 
ROOT
ATOM      1  C   UNL d   1     -55.521-100.980 -43.393  0.00  0.00     0.087 A 
ATOM      2  N   UNL d   1     -54.984-101.274 -42.847  0.00  0.00    -0.245 NA
ATOM      3  C   UNL d   1     -56.253-101.331 -43.251  0.00  0.00     0.049 A 
ATOM      4  C   UNL d   1     -56.173-101.845 -42.616  0.00  0.00     0.025 A 
ATOM      5  C   UNL d   1     -55.384-101.811 -42.363  0.00  0.00     0.082 A 
ATOM      6  C   UNL d   1     -56.705-102.337 -42.234  0.00  0.00     0.002 A 
ATOM      7  C   UNL d   1     -55.133-102.272 -41.726  0.00  0.00     0.019 A 
ATOM      8  C   UNL d   1     -56.454-102.799 -41.597  0.00  0.00     0.000 A 
ATOM      9  C   UNL d   1     -55.673-102.764 -41.347  0.00  0.00     0.002 A 
ENDROOT
BRANCH   3  10
ATOM     10  S   UNL d   1     -56.950-101.194 -43.672  0.00  0.00    -0.083 SA
BRANCH  10  11
ATOM     11  C   UNL d   1     -57.565-100.757 -43.317  0.00  0.00     0.056 C 
BRANCH  11  12
ATOM     12  C   UNL d   1     -57.459 -99.950 -43.171  0.00  0.00     0.109 C 
BRANCH  12  13
ATOM     13  N   UNL d   1     -58.002 -99.555 -42.709  0.00  0.00    -0.206 NA
ATOM     14  C   UNL d   1     -58.636 -99.171 -43.065  0.00  0.00     0.279 C 
ATOM     15  O   UNL d   1     -59.192 -98.766 -42.591  0.00  0.00    -0.265 OA
BRANCH  14  16
ATOM     16  C   UNL d   1     -58.723 -99.184 -43.887  0.00  0.00     0.058 A 
ATOM     17  C   UNL d   1     -59.335 -99.631 -44.231  0.00  0.00     0.005 A 
ATOM     18  C   UNL d   1     -59.422 -99.644 -45.053  0.00  0.00     0.000 A 
ATOM     19  C   UNL d   1     -58.900 -99.212 -45.530  0.00  0.00     0.000 A 
ATOM     20  C   UNL d   1     -58.295 -98.770 -45.190  0.00  0.00     0.000 A 
ATOM     21  C   UNL d   1     -58.208 -98.757 -44.369  0.00  0.00     0.005 A 
ENDBRANCH  14  16
ENDBRANCH  12  13
ENDBRANCH  11  12
ENDBRANCH  10  11
ENDBRANCH   3  10
BRANCH   1  22
ATOM     22  C   UNL d   1     -55.321-100.430 -43.967  0.00  0.00     0.018 A 
ATOM     23  C   UNL d   1     -55.129 -99.654 -43.751  0.00  0.00     0.004 A 
ATOM     24  C   UNL d   1     -54.928 -99.101 -44.323  0.00  0.00     0.024 A 
ATOM     25  C   UNL d   1     -54.917 -99.319 -45.115  0.00  0.00     0.094 A 
ATOM     26  C   UNL d   1     -55.109-100.097 -45.337  0.00  0.00     0.024 A 
ATOM     27  C   UNL d   1     -55.310-100.651 -44.766  0.00  0.00     0.004 A 
BRANCH  25  28
ATOM     28  O   UNL d   1     -54.713 -98.756 -45.697  0.00  0.00    -0.328 OA
ATOM     29  C   UNL d   1     -54.989 -98.843 -46.474  0.00  0.00     0.181 C 
ENDBRANCH  25  28
ENDBRANCH   1  22
TORSDOF 7
ENDMDL
