MODEL 1
REMARK VINA RESULT:       4.4      0.000      0.000
REMARK  6 active torsions:
REMARK  status: ('A' for Active; 'I' for Inactive)
REMARK    1  A    between atoms: C_6  and  N_3 
REMARK    2  A    between atoms: C_14  and  C_6 
REMARK    3  A    between atoms: C_7  and  O_8 
REMARK    4  A    between atoms: O_8  and  C_11 
REMARK    5  A    between atoms: C_11  and  C_15 
REMARK    6  A    between atoms: C_15  and  C_14 
ROOT
ATOM      1  C   UNL d   1      46.385 -17.452  44.078  0.00  0.00     0.082 C 
ENDROOT
BRANCH   1   2
ATOM      2  N   UNL d   1      46.391 -18.271  43.960  0.00  0.00    -0.287 N 
ATOM      3  C   UNL d   1      46.289 -18.721  44.665  0.00  0.00     0.183 A 
ATOM      4  N   UNL d   1      46.308 -19.541  44.454  0.00  0.00    -0.224 NA
ATOM      5  C   UNL d   1      46.421 -19.594  43.626  0.00  0.00     0.099 A 
ATOM      6  C   UNL d   1      46.472 -18.805  43.324  0.00  0.00     0.083 A 
ATOM      7  C   UNL d   1      46.483 -20.240  43.117  0.00  0.00     0.021 A 
ATOM      8  C   UNL d   1      46.585 -18.693  42.505  0.00  0.00     0.019 A 
ATOM      9  C   UNL d   1      46.647 -19.347  41.997  0.00  0.00     0.002 A 
ATOM     10  C   UNL d   1      46.595 -20.121  42.310  0.00  0.00     0.002 A 
ENDBRANCH   1   2
BRANCH   1  11
ATOM     11  C   UNL d   1      45.699 -17.076  44.333  0.00  0.00     0.021 C 
BRANCH  11  12
ATOM     12  C   UNL d   1      45.744 -16.395  44.774  0.00  0.00     0.028 C 
BRANCH  12  13
ATOM     13  C   UNL d   1      45.593 -15.652  44.426  0.00  0.00     0.123 C 
BRANCH  13  14
ATOM     14  O   UNL d   1      45.440 -15.000  44.901  0.00  0.00    -0.305 OA
BRANCH  14  15
ATOM     15  C   UNL d   1      45.447 -14.243  44.574  0.00  0.00     0.100 A 
ATOM     16  C   UNL d   1      45.876 -13.641  44.945  0.00  0.00     0.025 A 
ATOM     17  C   UNL d   1      45.879 -12.896  44.617  0.00  0.00     0.002 A 
ATOM     18  C   UNL d   1      45.467 -12.735  43.931  0.00  0.00     0.000 A 
ATOM     19  C   UNL d   1      45.036 -13.340  43.559  0.00  0.00     0.002 A 
ATOM     20  C   UNL d   1      45.027 -14.095  43.882  0.00  0.00     0.025 A 
ENDBRANCH  14  15
ENDBRANCH  13  14
ENDBRANCH  12  13
ENDBRANCH  11  12
ENDBRANCH   1  11
TORSDOF 6
ENDMDL
MODEL 2
REMARK VINA RESULT:       5.5      1.640      5.452
REMARK  6 active torsions:
REMARK  status: ('A' for Active; 'I' for Inactive)
REMARK    1  A    between atoms: C_6  and  N_3 
REMARK    2  A    between atoms: C_14  and  C_6 
REMARK    3  A    between atoms: C_7  and  O_8 
REMARK    4  A    between atoms: O_8  and  C_11 
REMARK    5  A    between atoms: C_11  and  C_15 
REMARK    6  A    between atoms: C_15  and  C_14 
ROOT
ATOM      1  C   UNL d   1      45.202 -15.421  44.347  0.00  0.00     0.082 C 
ENDROOT
BRANCH   1   2
ATOM      2  N   UNL d   1      45.483 -14.646  44.416  0.00  0.00    -0.287 N 
ATOM      3  C   UNL d   1      46.134 -14.561  44.944  0.00  0.00     0.183 A 
ATOM      4  N   UNL d   1      46.355 -13.743  44.955  0.00  0.00    -0.224 NA
ATOM      5  C   UNL d   1      45.843 -13.330  44.437  0.00  0.00     0.099 A 
ATOM      6  C   UNL d   1      45.304 -13.892  44.105  0.00  0.00     0.083 A 
ATOM      7  C   UNL d   1      45.795 -12.533  44.227  0.00  0.00     0.021 A 
ATOM      8  C   UNL d   1      44.727 -13.627  43.564  0.00  0.00     0.019 A 
ATOM      9  C   UNL d   1      44.684 -12.825  43.356  0.00  0.00     0.002 A 
ATOM     10  C   UNL d   1      45.222 -12.280  43.692  0.00  0.00     0.002 A 
ENDBRANCH   1   2
BRANCH   1  11
ATOM     11  C   UNL d   1      45.724 -16.056  44.399  0.00  0.00     0.021 C 
BRANCH  11  12
ATOM     12  C   UNL d   1      45.515 -16.784  44.105  0.00  0.00     0.028 C 
BRANCH  12  13
ATOM     13  C   UNL d   1      46.076 -17.399  44.055  0.00  0.00     0.123 C 
BRANCH  13  14
ATOM     14  O   UNL d   1      46.199 -17.786  43.341  0.00  0.00    -0.305 OA
BRANCH  14  15
ATOM     15  C   UNL d   1      46.328 -18.600  43.332  0.00  0.00     0.100 A 
ATOM     16  C   UNL d   1      46.266 -19.017  42.620  0.00  0.00     0.025 A 
ATOM     17  C   UNL d   1      46.395 -19.821  42.618  0.00  0.00     0.002 A 
ATOM     18  C   UNL d   1      46.584 -20.220  43.305  0.00  0.00     0.000 A 
ATOM     19  C   UNL d   1      46.646 -19.801  44.019  0.00  0.00     0.002 A 
ATOM     20  C   UNL d   1      46.518 -18.989  44.031  0.00  0.00     0.025 A 
ENDBRANCH  14  15
ENDBRANCH  13  14
ENDBRANCH  12  13
ENDBRANCH  11  12
ENDBRANCH   1  11
TORSDOF 6
ENDMDL
