MODEL 1
REMARK VINA RESULT:      -6.6      0.000      0.000
REMARK  3 active torsions:
REMARK  status: ('A' for Active; 'I' for Inactive)
REMARK    1  A    between atoms: N_4  and  C_1 
REMARK       I    between atoms: C_8  and  N_4 
REMARK    2  A    between atoms: C_16  and  C_8 
REMARK       I    between atoms: C_9  and  N_10 
REMARK    3  A    between atoms: N_10  and  C_11 
ROOT
ATOM      1  C   UNL d   1     -41.291-122.932 -51.090  0.00  0.00     0.197 A 
ATOM      2  N   UNL d   1     -41.209-123.601 -51.518  0.00  0.00    -0.221 NA
ATOM      3  S   UNL d   1     -41.352-122.299 -51.564  0.00  0.00    -0.047 SA
ATOM      4  C   UNL d   1     -41.311-122.548 -52.320  0.00  0.00     0.051 A 
ATOM      5  C   UNL d   1     -41.221-123.367 -52.291  0.00  0.00     0.090 A 
ATOM      6  C   UNL d   1     -41.339-122.171 -53.047  0.00  0.00     0.027 A 
ATOM      7  C   UNL d   1     -41.279-122.594 -53.744  0.00  0.00     0.085 A 
ATOM      8  C   UNL d   1     -41.159-123.815 -52.989  0.00  0.00     0.021 A 
ATOM      9  C   UNL d   1     -41.190-123.414 -53.715  0.00  0.00     0.021 A 
ENDROOT
BRANCH   1  10
ATOM     10  N   UNL d   1     -41.306-122.928 -50.259  0.00  0.00    -0.183 NA
ATOM     11  C   UNL d   1     -42.010-123.003 -49.824  0.00  0.00     0.281 C 
ATOM     12  O   UNL d   1     -42.723-123.083 -50.244  0.00  0.00    -0.265 OA
BRANCH  11  13
ATOM     13  C   UNL d   1     -42.002-122.997 -49.023  0.00  0.00     0.063 C 
ATOM     14  C   UNL d   1     -42.710-123.024 -48.588  0.00  0.00     0.005 C 
ENDBRANCH  11  13
ENDBRANCH   1  10
BRANCH   7  15
ATOM     15  N   UNL d   1     -41.307-122.218 -54.500  0.00  0.00    -0.208 NA
ATOM     16  C   UNL d   1     -42.026-122.175 -54.889  0.00  0.00     0.279 C 
ATOM     17  O   UNL d   1     -42.716-122.494 -54.550  0.00  0.00    -0.265 OA
ATOM     18  C   UNL d   1     -42.089-121.813 -55.634  0.00  0.00     0.068 C 
ENDBRANCH   7  15
TORSDOF 3
ENDMDL
MODEL 2
REMARK VINA RESULT:      -6.5      0.736      4.105
REMARK  3 active torsions:
REMARK  status: ('A' for Active; 'I' for Inactive)
REMARK    1  A    between atoms: N_4  and  C_1 
REMARK       I    between atoms: C_8  and  N_4 
REMARK    2  A    between atoms: C_16  and  C_8 
REMARK       I    between atoms: C_9  and  N_10 
REMARK    3  A    between atoms: N_10  and  C_11 
ROOT
ATOM      1  C   UNL d   1     -41.272-122.485 -53.085  0.00  0.00     0.197 A 
ATOM      2  N   UNL d   1     -41.123-123.227 -52.829  0.00  0.00    -0.221 NA
ATOM      3  S   UNL d   1     -41.492-122.017 -52.484  0.00  0.00    -0.047 SA
ATOM      4  C   UNL d   1     -41.490-122.451 -51.815  0.00  0.00     0.051 A 
ATOM      5  C   UNL d   1     -41.258-123.212 -52.032  0.00  0.00     0.090 A 
ATOM      6  C   UNL d   1     -41.660-122.290 -51.031  0.00  0.00     0.027 A 
ATOM      7  C   UNL d   1     -41.604-122.873 -50.459  0.00  0.00     0.085 A 
ATOM      8  C   UNL d   1     -41.195-123.817 -51.466  0.00  0.00     0.021 A 
ATOM      9  C   UNL d   1     -41.372-123.634 -50.676  0.00  0.00     0.021 A 
ENDROOT
BRANCH   1  10
ATOM     10  N   UNL d   1     -41.199-122.262 -53.882  0.00  0.00    -0.183 NA
ATOM     11  C   UNL d   1     -41.855-122.160 -54.381  0.00  0.00     0.281 C 
ATOM     12  O   UNL d   1     -42.612-122.289 -54.063  0.00  0.00    -0.265 OA
BRANCH  11  13
ATOM     13  C   UNL d   1     -41.762-121.944 -55.147  0.00  0.00     0.063 C 
ATOM     14  C   UNL d   1     -42.402-121.959 -55.677  0.00  0.00     0.005 C 
ENDBRANCH  11  13
ENDBRANCH   1  10
BRANCH   7  15
ATOM     15  N   UNL d   1     -41.777-122.720 -49.647  0.00  0.00    -0.208 NA
ATOM     16  C   UNL d   1     -42.534-122.870 -49.373  0.00  0.00     0.279 C 
ATOM     17  O   UNL d   1     -43.122-123.165 -49.882  0.00  0.00    -0.265 OA
ATOM     18  C   UNL d   1     -42.738-122.731 -48.580  0.00  0.00     0.068 C 
ENDBRANCH   7  15
TORSDOF 3
ENDMDL
