MODEL 1
REMARK VINA RESULT:      52.2      0.000      0.000
REMARK  8 active torsions:
REMARK  status: ('A' for Active; 'I' for Inactive)
REMARK    1  A    between atoms: C_13  and  C_4 
REMARK    2  A    between atoms: N_16  and  C_5 
REMARK    3  A    between atoms: C_20  and  C_9 
REMARK    4  A    between atoms: N_11  and  C_18 
REMARK    5  A    between atoms: C_21  and  N_16 
REMARK    6  A    between atoms: C_18  and  C_19 
REMARK    7  A    between atoms: C_19  and  C_21 
REMARK    8  A    between atoms: C_24  and  C_20 
ROOT
ATOM      1  N   UNL d   1      13.655  14.219  -4.351  0.00  0.00    -0.184 N 
ATOM      2  C   UNL d   1      13.780  13.802  -3.641  0.00  0.00     0.168 A 
ATOM      3  N   UNL d   1      13.184  13.033  -4.964  0.00  0.00    -0.162 NA
ATOM      4  C   UNL d   1      13.608  13.014  -3.599  0.00  0.00     0.055 A 
ATOM      5  C   UNL d   1      13.835  15.012  -4.371  0.00  0.00     0.218 A 
ATOM      6  C   UNL d   1      13.309  12.616  -4.254  0.00  0.00     0.104 A 
ATOM      7  N   UNL d   1      14.079  14.199  -2.987  0.00  0.00    -0.227 NA
ATOM      8  C   UNL d   1      14.128  15.412  -3.735  0.00  0.00     0.071 A 
ATOM      9  C   UNL d   1      14.254  14.995  -3.024  0.00  0.00     0.087 A 
ATOM     10  C   UNL d   1      13.134  11.823  -4.219  0.00  0.00     0.023 C 
ENDROOT
BRANCH   5  11
ATOM     11  N   UNL d   1      13.705  15.442  -5.104  0.00  0.00    -0.380 NA
BRANCH  11  12
ATOM     12  C   UNL d   1      13.615  15.926  -5.806  0.00  0.00     0.164 C 
BRANCH  12  13
ATOM     13  C   UNL d   1      13.341  16.729  -5.731  0.00  0.00     0.054 C 
BRANCH  13  14
ATOM     14  C   UNL d   1      13.418  17.263  -6.388  0.00  0.00     0.084 C 
BRANCH  14  15
ATOM     15  N   UNL d   1      13.638  18.065  -6.254  0.00  0.00    -0.285 N 
ATOM     16  C   UNL d   1      14.387  18.344  -5.972  0.00  0.00     0.183 A 
ATOM     17  N   UNL d   1      14.358  19.194  -5.922  0.00  0.00    -0.222 NA
ATOM     18  C   UNL d   1      13.593  19.450  -6.171  0.00  0.00     0.120 A 
ATOM     19  C   UNL d   1      13.145  18.760  -6.377  0.00  0.00     0.102 A 
ENDBRANCH  14  15
ENDBRANCH  13  14
ENDBRANCH  12  13
ENDBRANCH  11  12
ENDBRANCH   5  11
BRANCH   9  20
ATOM     20  C   UNL d   1      14.565  15.403  -2.340  0.00  0.00     0.019 C 
BRANCH  20  21
ATOM     21  C   UNL d   1      14.800  16.233  -2.392  0.00  0.00     0.002 C 
ATOM     22  C   UNL d   1      14.871  16.703  -1.690  0.00  0.00     0.000 C 
ENDBRANCH  20  21
ENDBRANCH   9  20
BRANCH   4  23
ATOM     23  C   UNL d   1      13.732  12.603  -2.899  0.00  0.00     0.004 A 
ATOM     24  C   UNL d   1      14.491  12.531  -2.603  0.00  0.00     0.000 A 
ATOM     25  C   UNL d   1      14.614  12.120  -1.903  0.00  0.00     0.000 A 
ATOM     26  C   UNL d   1      13.978  11.782  -1.500  0.00  0.00     0.000 A 
ATOM     27  C   UNL d   1      13.215  11.854  -1.797  0.00  0.00     0.000 A 
ATOM     28  C   UNL d   1      13.090  12.271  -2.508  0.00  0.00     0.000 A 
ENDBRANCH   4  23
TORSDOF 8
ENDMDL
MODEL 2
REMARK VINA RESULT:      52.3      1.186      2.723
REMARK  8 active torsions:
REMARK  status: ('A' for Active; 'I' for Inactive)
REMARK    1  A    between atoms: C_13  and  C_4 
REMARK    2  A    between atoms: N_16  and  C_5 
REMARK    3  A    between atoms: C_20  and  C_9 
REMARK    4  A    between atoms: N_11  and  C_18 
REMARK    5  A    between atoms: C_21  and  N_16 
REMARK    6  A    between atoms: C_18  and  C_19 
REMARK    7  A    between atoms: C_19  and  C_21 
REMARK    8  A    between atoms: C_24  and  C_20 
ROOT
ATOM      1  N   UNL d   1      14.093  14.391  -2.657  0.00  0.00    -0.184 N 
ATOM      2  C   UNL d   1      14.217  13.713  -2.190  0.00  0.00     0.168 A 
ATOM      3  N   UNL d   1      14.616  15.201  -1.622  0.00  0.00    -0.162 NA
ATOM      4  C   UNL d   1      14.535  13.784  -1.451  0.00  0.00     0.055 A 
ATOM      5  C   UNL d   1      13.770  14.297  -3.399  0.00  0.00     0.218 A 
ATOM      6  C   UNL d   1      14.740  14.523  -1.154  0.00  0.00     0.104 A 
ATOM      7  N   UNL d   1      14.012  12.974  -2.487  0.00  0.00    -0.227 NA
ATOM      8  C   UNL d   1      13.566  13.577  -3.700  0.00  0.00     0.071 A 
ATOM      9  C   UNL d   1      13.690  12.898  -3.232  0.00  0.00     0.087 A 
ATOM     10  C   UNL d   1      15.061  14.602  -0.411  0.00  0.00     0.023 C 
ENDROOT
BRANCH   5  11
ATOM     11  N   UNL d   1      13.643  14.996  -3.881  0.00  0.00    -0.380 NA
BRANCH  11  12
ATOM     12  C   UNL d   1      13.465  15.656  -4.400  0.00  0.00     0.164 C 
BRANCH  12  13
ATOM     13  C   UNL d   1      14.077  15.976  -4.897  0.00  0.00     0.054 C 
BRANCH  13  14
ATOM     14  C   UNL d   1      13.910  16.148  -5.713  0.00  0.00     0.084 C 
BRANCH  14  15
ATOM     15  N   UNL d   1      13.812  16.945  -5.963  0.00  0.00    -0.285 N 
ATOM     16  C   UNL d   1      13.084  17.326  -6.170  0.00  0.00     0.183 A 
ATOM     17  N   UNL d   1      13.250  18.133  -6.388  0.00  0.00    -0.222 NA
ATOM     18  C   UNL d   1      14.082  18.261  -6.320  0.00  0.00     0.120 A 
ATOM     19  C   UNL d   1      14.434  17.534  -6.058  0.00  0.00     0.102 A 
ENDBRANCH  14  15
ENDBRANCH  13  14
ENDBRANCH  12  13
ENDBRANCH  11  12
ENDBRANCH   5  11
BRANCH   9  20
ATOM     20  C   UNL d   1      13.479  12.127  -3.536  0.00  0.00     0.019 C 
BRANCH  20  21
ATOM     21  C   UNL d   1      12.810  12.034  -4.076  0.00  0.00     0.002 C 
ATOM     22  C   UNL d   1      12.938  11.796  -4.879  0.00  0.00     0.000 C 
ENDBRANCH  20  21
ENDBRANCH   9  20
BRANCH   4  23
ATOM     23  C   UNL d   1      14.657  13.116  -0.991  0.00  0.00     0.004 A 
ATOM     24  C   UNL d   1      14.070  12.866  -0.479  0.00  0.00     0.000 A 
ATOM     25  C   UNL d   1      14.192  12.198  -0.018  0.00  0.00     0.000 A 
ATOM     26  C   UNL d   1      14.901  11.780  -0.070  0.00  0.00     0.000 A 
ATOM     27  C   UNL d   1      15.493  12.030  -0.583  0.00  0.00     0.000 A 
ATOM     28  C   UNL d   1      15.368  12.709  -1.052  0.00  0.00     0.000 A 
ENDBRANCH   4  23
TORSDOF 8
ENDMDL
MODEL 3
REMARK VINA RESULT:      53.2      1.358      2.643
REMARK  8 active torsions:
REMARK  status: ('A' for Active; 'I' for Inactive)
REMARK    1  A    between atoms: C_13  and  C_4 
REMARK    2  A    between atoms: N_16  and  C_5 
REMARK    3  A    between atoms: C_20  and  C_9 
REMARK    4  A    between atoms: N_11  and  C_18 
REMARK    5  A    between atoms: C_21  and  N_16 
REMARK    6  A    between atoms: C_18  and  C_19 
REMARK    7  A    between atoms: C_19  and  C_21 
REMARK    8  A    between atoms: C_24  and  C_20 
ROOT
ATOM      1  N   UNL d   1      14.634  14.987  -2.230  0.00  0.00    -0.184 N 
ATOM      2  C   UNL d   1      14.453  14.232  -1.929  0.00  0.00     0.168 A 
ATOM      3  N   UNL d   1      15.356  15.284  -1.050  0.00  0.00    -0.162 NA
ATOM      4  C   UNL d   1      14.722  14.012  -1.200  0.00  0.00     0.055 A 
ATOM      5  C   UNL d   1      14.353  15.188  -2.967  0.00  0.00     0.218 A 
ATOM      6  C   UNL d   1      15.175  14.529  -0.749  0.00  0.00     0.104 A 
ATOM      7  N   UNL d   1      14.000  13.715  -2.380  0.00  0.00    -0.227 NA
ATOM      8  C   UNL d   1      13.907  14.688  -3.418  0.00  0.00     0.071 A 
ATOM      9  C   UNL d   1      13.726  13.933  -3.117  0.00  0.00     0.087 A 
ATOM     10  C   UNL d   1      15.449  14.315  -0.014  0.00  0.00     0.023 C 
ENDROOT
BRANCH   5  11
ATOM     11  N   UNL d   1      14.539  15.967  -3.277  0.00  0.00    -0.380 NA
BRANCH  11  12
ATOM     12  C   UNL d   1      14.756  16.711  -3.645  0.00  0.00     0.164 C 
BRANCH  12  13
ATOM     13  C   UNL d   1      14.593  16.836  -4.470  0.00  0.00     0.054 C 
BRANCH  13  14
ATOM     14  C   UNL d   1      15.035  17.419  -4.904  0.00  0.00     0.084 C 
BRANCH  14  15
ATOM     15  N   UNL d   1      14.633  17.974  -5.392  0.00  0.00    -0.285 N 
ATOM     16  C   UNL d   1      13.932  17.834  -5.848  0.00  0.00     0.183 A 
ATOM     17  N   UNL d   1      13.723  18.554  -6.254  0.00  0.00    -0.222 NA
ATOM     18  C   UNL d   1      14.291  19.146  -6.055  0.00  0.00     0.120 A 
ATOM     19  C   UNL d   1      14.854  18.796  -5.524  0.00  0.00     0.102 A 
ENDBRANCH  14  15
ENDBRANCH  13  14
ENDBRANCH  12  13
ENDBRANCH  11  12
ENDBRANCH   5  11
BRANCH   9  20
ATOM     20  C   UNL d   1      13.255  13.391  -3.582  0.00  0.00     0.019 C 
BRANCH  20  21
ATOM     21  C   UNL d   1      13.599  12.978  -4.259  0.00  0.00     0.002 C 
ATOM     22  C   UNL d   1      13.334  12.200  -4.465  0.00  0.00     0.000 C 
ENDBRANCH  20  21
ENDBRANCH   9  20
BRANCH   4  23
ATOM     23  C   UNL d   1      14.543  13.268  -0.904  0.00  0.00     0.004 A 
ATOM     24  C   UNL d   1      15.007  12.628  -1.116  0.00  0.00     0.000 A 
ATOM     25  C   UNL d   1      14.828  11.883  -0.819  0.00  0.00     0.000 A 
ATOM     26  C   UNL d   1      14.186  11.780  -0.311  0.00  0.00     0.000 A 
ATOM     27  C   UNL d   1      13.720  12.422  -0.097  0.00  0.00     0.000 A 
ATOM     28  C   UNL d   1      13.901  13.179  -0.398  0.00  0.00     0.000 A 
ENDBRANCH   4  23
TORSDOF 8
ENDMDL
