MODEL 1
REMARK VINA RESULT:      -6.3      0.000      0.000
REMARK  5 active torsions:
REMARK  status: ('A' for Active; 'I' for Inactive)
REMARK    1  A    between atoms: C_3  and  C_1 
REMARK    2  A    between atoms: N_2  and  C_10 
REMARK    3  A    between atoms: N_6  and  C_3 
REMARK    4  A    between atoms: C_11  and  C_5 
REMARK    5  A    between atoms: C_20  and  N_7 
ROOT
ATOM      1  C   UNL d   1     -40.267  15.034  18.683  0.00  0.00     0.126 A 
ATOM      2  O   UNL d   1     -39.654  14.515  18.493  0.00  0.00    -0.305 OA
ATOM      3  C   UNL d   1     -39.620  14.444  17.667  0.00  0.00     0.100 A 
ATOM      4  C   UNL d   1     -40.613  15.283  17.976  0.00  0.00     0.029 A 
ATOM      5  C   UNL d   1     -40.221  14.925  17.349  0.00  0.00     0.027 A 
ENDROOT
BRANCH   1   6
ATOM      6  C   UNL d   1     -40.509  15.276  19.475  0.00  0.00     0.143 C 
ATOM      7  S   UNL d   1     -41.112  15.832  19.564  0.00  0.00    -0.057 SA
BRANCH   6   8
ATOM      8  N   UNL d   1     -40.118  14.934  20.141  0.00  0.00    -0.291 N 
ATOM      9  C   UNL d   1     -39.331  15.092  20.308  0.00  0.00     0.100 A 
ATOM     10  C   UNL d   1     -38.980  14.746  20.959  0.00  0.00     0.100 A 
ATOM     11  N   UNL d   1     -39.381  14.248  21.453  0.00  0.00    -0.301 N 
ATOM     12  C   UNL d   1     -40.191  14.072  21.300  0.00  0.00     0.100 A 
ATOM     13  C   UNL d   1     -40.560  14.419  20.639  0.00  0.00     0.100 A 
BRANCH  11  14
ATOM     14  C   UNL d   1     -39.003  13.908  22.109  0.00  0.00     0.064 A 
ATOM     15  C   UNL d   1     -38.352  13.432  21.988  0.00  0.00     0.018 A 
ATOM     16  C   UNL d   1     -37.957  13.082  22.622  0.00  0.00     0.002 A 
ATOM     17  C   UNL d   1     -38.226  13.216  23.386  0.00  0.00     0.000 A 
ATOM     18  C   UNL d   1     -38.889  13.700  23.516  0.00  0.00     0.002 A 
ATOM     19  C   UNL d   1     -39.272  14.042  22.873  0.00  0.00     0.018 A 
ENDBRANCH  11  14
ENDBRANCH   6   8
ENDBRANCH   1   6
BRANCH   3  20
ATOM     20  C   UNL d   1     -39.123  14.006  17.166  0.00  0.00     0.024 A 
ATOM     21  C   UNL d   1     -38.872  14.328  16.443  0.00  0.00     0.025 A 
ATOM     22  C   UNL d   1     -38.379  13.892  15.945  0.00  0.00     0.127 A 
ATOM     23  C   UNL d   1     -38.125  13.126  16.160  0.00  0.00     0.024 A 
ATOM     24  C   UNL d   1     -38.382  12.817  16.883  0.00  0.00     0.002 A 
ATOM     25  C   UNL d   1     -38.875  13.252  17.381  0.00  0.00     0.002 A 
BRANCH  22  26
ATOM     26  N   UNL d   1     -38.139  14.217  15.239  0.00  0.00    -0.114 N 
ATOM     27  O   UNL d   1     -37.951  15.029  15.109  0.00  0.00    -0.532 OA
ATOM     28  O   UNL d   1     -38.048  13.776  14.546  0.00  0.00    -0.532 OA
ENDBRANCH  22  26
ENDBRANCH   3  20
TORSDOF 5
ENDMDL
MODEL 2
REMARK VINA RESULT:      -5.9      8.349     10.197
REMARK  5 active torsions:
REMARK  status: ('A' for Active; 'I' for Inactive)
REMARK    1  A    between atoms: C_3  and  C_1 
REMARK    2  A    between atoms: N_2  and  C_10 
REMARK    3  A    between atoms: N_6  and  C_3 
REMARK    4  A    between atoms: C_11  and  C_5 
REMARK    5  A    between atoms: C_20  and  N_7 
ROOT
ATOM      1  C   UNL d   1     -47.406  14.644  22.644  0.00  0.00     0.126 A 
ATOM      2  O   UNL d   1     -47.991  14.254  23.075  0.00  0.00    -0.305 OA
ATOM      3  C   UNL d   1     -48.730  14.544  22.833  0.00  0.00     0.100 A 
ATOM      4  C   UNL d   1     -47.781  15.176  22.136  0.00  0.00     0.029 A 
ATOM      5  C   UNL d   1     -48.592  15.120  22.247  0.00  0.00     0.027 A 
ENDROOT
BRANCH   1   6
ATOM      6  C   UNL d   1     -46.553  14.525  22.708  0.00  0.00     0.143 C 
ATOM      7  S   UNL d   1     -46.044  15.167  22.618  0.00  0.00    -0.057 SA
BRANCH   6   8
ATOM      8  N   UNL d   1     -46.264  13.746  22.862  0.00  0.00    -0.291 N 
ATOM      9  C   UNL d   1     -46.448  13.345  23.553  0.00  0.00     0.100 A 
ATOM     10  C   UNL d   1     -46.154  12.594  23.674  0.00  0.00     0.100 A 
ATOM     11  N   UNL d   1     -45.682  12.222  23.134  0.00  0.00    -0.301 N 
ATOM     12  C   UNL d   1     -45.480  12.615  22.416  0.00  0.00     0.100 A 
ATOM     13  C   UNL d   1     -45.774  13.383  22.282  0.00  0.00     0.100 A 
BRANCH  11  14
ATOM     14  C   UNL d   1     -45.395  11.457  23.279  0.00  0.00     0.064 A 
ATOM     15  C   UNL d   1     -45.910  10.884  23.546  0.00  0.00     0.018 A 
ATOM     16  C   UNL d   1     -45.651  10.116  23.698  0.00  0.00     0.002 A 
ATOM     17  C   UNL d   1     -44.861   9.927  23.578  0.00  0.00     0.000 A 
ATOM     18  C   UNL d   1     -44.331  10.507  23.306  0.00  0.00     0.002 A 
ATOM     19  C   UNL d   1     -44.605  11.268  23.159  0.00  0.00     0.018 A 
ENDBRANCH  11  14
ENDBRANCH   6   8
ENDBRANCH   1   6
BRANCH   3  20
ATOM     20  C   UNL d   1     -49.504  14.361  23.068  0.00  0.00     0.024 A 
ATOM     21  C   UNL d   1     -49.811  13.600  22.937  0.00  0.00     0.025 A 
ATOM     22  C   UNL d   1     -50.580  13.417  23.171  0.00  0.00     0.127 A 
ATOM     23  C   UNL d   1     -51.061  13.991  23.541  0.00  0.00     0.024 A 
ATOM     24  C   UNL d   1     -50.745  14.745  23.667  0.00  0.00     0.002 A 
ATOM     25  C   UNL d   1     -49.975  14.928  23.433  0.00  0.00     0.002 A 
BRANCH  22  26
ATOM     26  N   UNL d   1     -50.870  12.670  23.037  0.00  0.00    -0.114 N 
ATOM     27  O   UNL d   1     -51.013  12.084  23.627  0.00  0.00    -0.532 OA
ATOM     28  O   UNL d   1     -51.064  12.387  22.285  0.00  0.00    -0.532 OA
ENDBRANCH  22  26
ENDBRANCH   3  20
TORSDOF 5
ENDMDL
MODEL 3
REMARK VINA RESULT:      -5.3      7.634      9.406
REMARK  5 active torsions:
REMARK  status: ('A' for Active; 'I' for Inactive)
REMARK    1  A    between atoms: C_3  and  C_1 
REMARK    2  A    between atoms: N_2  and  C_10 
REMARK    3  A    between atoms: N_6  and  C_3 
REMARK    4  A    between atoms: C_11  and  C_5 
REMARK    5  A    between atoms: C_20  and  N_7 
ROOT
ATOM      1  C   UNL d   1     -45.881  13.484  22.520  0.00  0.00     0.126 A 
ATOM      2  O   UNL d   1     -45.488  12.919  22.975  0.00  0.00    -0.305 OA
ATOM      3  C   UNL d   1     -44.920  12.549  22.497  0.00  0.00     0.100 A 
ATOM      4  C   UNL d   1     -45.557  13.465  21.761  0.00  0.00     0.029 A 
ATOM      5  C   UNL d   1     -44.967  12.894  21.740  0.00  0.00     0.027 A 
ENDROOT
BRANCH   1   6
ATOM      6  C   UNL d   1     -46.517  14.006  22.783  0.00  0.00     0.143 C 
ATOM      7  S   UNL d   1     -46.367  14.810  22.886  0.00  0.00    -0.057 SA
BRANCH   6   8
ATOM      8  N   UNL d   1     -47.280  13.673  22.927  0.00  0.00    -0.291 N 
ATOM      9  C   UNL d   1     -47.380  13.010  23.400  0.00  0.00     0.100 A 
ATOM     10  C   UNL d   1     -48.130  12.711  23.521  0.00  0.00     0.100 A 
ATOM     11  N   UNL d   1     -48.787  13.045  23.191  0.00  0.00    -0.301 N 
ATOM     12  C   UNL d   1     -48.707  13.727  22.701  0.00  0.00     0.100 A 
ATOM     13  C   UNL d   1     -47.947  14.041  22.570  0.00  0.00     0.100 A 
BRANCH  11  14
ATOM     14  C   UNL d   1     -49.540  12.723  23.328  0.00  0.00     0.064 A 
ATOM     15  C   UNL d   1     -50.177  13.226  23.409  0.00  0.00     0.018 A 
ATOM     16  C   UNL d   1     -50.935  12.933  23.546  0.00  0.00     0.002 A 
ATOM     17  C   UNL d   1     -51.048  12.122  23.602  0.00  0.00     0.000 A 
ATOM     18  C   UNL d   1     -50.403  11.604  23.521  0.00  0.00     0.002 A 
ATOM     19  C   UNL d   1     -49.653  11.912  23.384  0.00  0.00     0.018 A 
ENDBRANCH  11  14
ENDBRANCH   6   8
ENDBRANCH   1   6
BRANCH   3  20
ATOM     20  C   UNL d   1     -44.370  11.947  22.651  0.00  0.00     0.024 A 
ATOM     21  C   UNL d   1     -44.617  11.235  22.999  0.00  0.00     0.025 A 
ATOM     22  C   UNL d   1     -44.070  10.637  23.152  0.00  0.00     0.127 A 
ATOM     23  C   UNL d   1     -43.263  10.738  22.961  0.00  0.00     0.024 A 
ATOM     24  C   UNL d   1     -43.029  11.452  22.615  0.00  0.00     0.002 A 
ATOM     25  C   UNL d   1     -43.576  12.050  22.462  0.00  0.00     0.002 A 
BRANCH  22  26
ATOM     26  N   UNL d   1     -44.323   9.943  23.493  0.00  0.00    -0.114 N 
ATOM     27  O   UNL d   1     -45.122   9.752  23.686  0.00  0.00    -0.532 OA
ATOM     28  O   UNL d   1     -43.812   9.326  23.697  0.00  0.00    -0.532 OA
ENDBRANCH  22  26
ENDBRANCH   3  20
TORSDOF 5
ENDMDL
MODEL 4
REMARK VINA RESULT:      -4.5      2.691      5.616
REMARK  5 active torsions:
REMARK  status: ('A' for Active; 'I' for Inactive)
REMARK    1  A    between atoms: C_3  and  C_1 
REMARK    2  A    between atoms: N_2  and  C_10 
REMARK    3  A    between atoms: N_6  and  C_3 
REMARK    4  A    between atoms: C_11  and  C_5 
REMARK    5  A    between atoms: C_20  and  N_7 
ROOT
ATOM      1  C   UNL d   1     -41.130  14.542  20.427  0.00  0.00     0.126 A 
ATOM      2  O   UNL d   1     -41.848  14.138  20.392  0.00  0.00    -0.305 OA
ATOM      3  C   UNL d   1     -41.949  13.724  21.104  0.00  0.00     0.100 A 
ATOM      4  C   UNL d   1     -40.786  14.379  21.159  0.00  0.00     0.029 A 
ATOM      5  C   UNL d   1     -41.283  13.879  21.579  0.00  0.00     0.027 A 
ENDROOT
BRANCH   1   6
ATOM      6  C   UNL d   1     -40.792  15.046  19.812  0.00  0.00     0.143 C 
ATOM      7  S   UNL d   1     -40.954  15.855  19.814  0.00  0.00    -0.057 SA
BRANCH   6   8
ATOM      8  N   UNL d   1     -40.301  14.692  19.223  0.00  0.00    -0.291 N 
ATOM      9  C   UNL d   1     -39.504  14.549  19.353  0.00  0.00     0.100 A 
ATOM     10  C   UNL d   1     -39.055  14.205  18.764  0.00  0.00     0.100 A 
ATOM     11  N   UNL d   1     -39.366  13.997  18.048  0.00  0.00    -0.301 N 
ATOM     12  C   UNL d   1     -40.184  14.136  17.893  0.00  0.00     0.100 A 
ATOM     13  C   UNL d   1     -40.652  14.486  18.486  0.00  0.00     0.100 A 
BRANCH  11  14
ATOM     14  C   UNL d   1     -38.890  13.649  17.465  0.00  0.00     0.064 A 
ATOM     15  C   UNL d   1     -38.587  12.903  17.593  0.00  0.00     0.018 A 
ATOM     16  C   UNL d   1     -38.111  12.534  17.031  0.00  0.00     0.002 A 
ATOM     17  C   UNL d   1     -37.940  12.926  16.330  0.00  0.00     0.000 A 
ATOM     18  C   UNL d   1     -38.246  13.686  16.193  0.00  0.00     0.002 A 
ATOM     19  C   UNL d   1     -38.719  14.041  16.764  0.00  0.00     0.018 A 
ENDBRANCH  11  14
ENDBRANCH   6   8
ENDBRANCH   1   6
BRANCH   3  20
ATOM     20  C   UNL d   1     -42.557  13.231  21.379  0.00  0.00     0.024 A 
ATOM     21  C   UNL d   1     -43.333  13.520  21.442  0.00  0.00     0.025 A 
ATOM     22  C   UNL d   1     -43.937  13.030  21.716  0.00  0.00     0.127 A 
ATOM     23  C   UNL d   1     -43.779  12.239  21.933  0.00  0.00     0.024 A 
ATOM     24  C   UNL d   1     -43.002  11.962  21.867  0.00  0.00     0.002 A 
ATOM     25  C   UNL d   1     -42.398  12.453  21.593  0.00  0.00     0.002 A 
BRANCH  22  26
ATOM     26  N   UNL d   1     -44.693  13.323  21.773  0.00  0.00    -0.114 N 
ATOM     27  O   UNL d   1     -44.920  14.022  22.188  0.00  0.00    -0.532 OA
ATOM     28  O   UNL d   1     -45.347  12.961  21.420  0.00  0.00    -0.532 OA
ENDBRANCH  22  26
ENDBRANCH   3  20
TORSDOF 5
ENDMDL
MODEL 5
REMARK VINA RESULT:      -4.4      7.866      9.749
REMARK  5 active torsions:
REMARK  status: ('A' for Active; 'I' for Inactive)
REMARK    1  A    between atoms: C_3  and  C_1 
REMARK    2  A    between atoms: N_2  and  C_10 
REMARK    3  A    between atoms: N_6  and  C_3 
REMARK    4  A    between atoms: C_11  and  C_5 
REMARK    5  A    between atoms: C_20  and  N_7 
ROOT
ATOM      1  C   UNL d   1     -47.791  12.562  22.571  0.00  0.00     0.126 A 
ATOM      2  O   UNL d   1     -48.316  13.147  22.822  0.00  0.00    -0.305 OA
ATOM      3  C   UNL d   1     -48.890  13.252  22.232  0.00  0.00     0.100 A 
ATOM      4  C   UNL d   1     -48.039  12.305  21.826  0.00  0.00     0.029 A 
ATOM      5  C   UNL d   1     -48.712  12.724  21.613  0.00  0.00     0.027 A 
ENDROOT
BRANCH   1   6
ATOM      6  C   UNL d   1     -47.104  12.267  23.003  0.00  0.00     0.143 C 
ATOM      7  S   UNL d   1     -47.214  11.835  23.697  0.00  0.00    -0.057 SA
BRANCH   6   8
ATOM      8  N   UNL d   1     -46.333  12.431  22.698  0.00  0.00    -0.291 N 
ATOM      9  C   UNL d   1     -46.139  13.163  22.384  0.00  0.00     0.100 A 
ATOM     10  C   UNL d   1     -45.386  13.292  22.097  0.00  0.00     0.100 A 
ATOM     11  N   UNL d   1     -44.815  12.720  22.110  0.00  0.00    -0.301 N 
ATOM     12  C   UNL d   1     -44.993  11.960  22.429  0.00  0.00     0.100 A 
ATOM     13  C   UNL d   1     -45.758  11.817  22.724  0.00  0.00     0.100 A 
BRANCH  11  14
ATOM     14  C   UNL d   1     -44.056  12.874  21.813  0.00  0.00     0.064 A 
ATOM     15  C   UNL d   1     -43.424  12.441  22.093  0.00  0.00     0.018 A 
ATOM     16  C   UNL d   1     -42.660  12.573  21.815  0.00  0.00     0.002 A 
ATOM     17  C   UNL d   1     -42.534  13.152  21.246  0.00  0.00     0.000 A 
ATOM     18  C   UNL d   1     -43.173  13.597  20.956  0.00  0.00     0.002 A 
ATOM     19  C   UNL d   1     -43.930  13.453  21.244  0.00  0.00     0.018 A 
ENDBRANCH  11  14
ENDBRANCH   6   8
ENDBRANCH   1   6
BRANCH   3  20
ATOM     20  C   UNL d   1     -49.547  13.756  22.178  0.00  0.00     0.024 A 
ATOM     21  C   UNL d   1     -49.619  14.403  22.693  0.00  0.00     0.025 A 
ATOM     22  C   UNL d   1     -50.273  14.904  22.640  0.00  0.00     0.127 A 
ATOM     23  C   UNL d   1     -50.868  14.769  22.070  0.00  0.00     0.024 A 
ATOM     24  C   UNL d   1     -50.785  14.122  21.562  0.00  0.00     0.002 A 
ATOM     25  C   UNL d   1     -50.132  13.621  21.616  0.00  0.00     0.002 A 
BRANCH  22  26
ATOM     26  N   UNL d   1     -50.333  15.535  23.150  0.00  0.00    -0.114 N 
ATOM     27  O   UNL d   1     -51.049  15.922  23.372  0.00  0.00    -0.532 OA
ATOM     28  O   UNL d   1     -49.680  15.880  23.522  0.00  0.00    -0.532 OA
ENDBRANCH  22  26
ENDBRANCH   3  20
TORSDOF 5
ENDMDL
MODEL 6
REMARK VINA RESULT:      -4.2      2.277      5.420
REMARK  5 active torsions:
REMARK  status: ('A' for Active; 'I' for Inactive)
REMARK    1  A    between atoms: C_3  and  C_1 
REMARK    2  A    between atoms: N_2  and  C_10 
REMARK    3  A    between atoms: N_6  and  C_3 
REMARK    4  A    between atoms: C_11  and  C_5 
REMARK    5  A    between atoms: C_20  and  N_7 
ROOT
ATOM      1  C   UNL d   1     -39.078  14.947  20.232  0.00  0.00     0.126 A 
ATOM      2  O   UNL d   1     -39.888  15.072  20.135  0.00  0.00    -0.305 OA
ATOM      3  C   UNL d   1     -40.290  14.613  20.697  0.00  0.00     0.100 A 
ATOM      4  C   UNL d   1     -38.979  14.411  20.852  0.00  0.00     0.029 A 
ATOM      5  C   UNL d   1     -39.718  14.202  21.142  0.00  0.00     0.027 A 
ENDROOT
BRANCH   1   6
ATOM      6  C   UNL d   1     -38.443  15.307  19.771  0.00  0.00     0.143 C 
ATOM      7  S   UNL d   1     -37.941  15.856  20.129  0.00  0.00    -0.057 SA
BRANCH   6   8
ATOM      8  N   UNL d   1     -38.353  15.085  18.961  0.00  0.00    -0.291 N 
ATOM      9  C   UNL d   1     -38.014  14.370  18.744  0.00  0.00     0.100 A 
ATOM     10  C   UNL d   1     -37.941  14.182  17.953  0.00  0.00     0.100 A 
ATOM     11  N   UNL d   1     -38.192  14.678  17.366  0.00  0.00    -0.301 N 
ATOM     12  C   UNL d   1     -38.543  15.418  17.567  0.00  0.00     0.100 A 
ATOM     13  C   UNL d   1     -38.623  15.620  18.371  0.00  0.00     0.100 A 
BRANCH  11  14
ATOM     14  C   UNL d   1     -38.107  14.465  16.569  0.00  0.00     0.064 A 
ATOM     15  C   UNL d   1     -38.083  13.675  16.369  0.00  0.00     0.018 A 
ATOM     16  C   UNL d   1     -37.999  13.436  15.585  0.00  0.00     0.002 A 
ATOM     17  C   UNL d   1     -37.940  14.005  14.996  0.00  0.00     0.000 A 
ATOM     18  C   UNL d   1     -37.963  14.812  15.192  0.00  0.00     0.002 A 
ATOM     19  C   UNL d   1     -38.047  15.034  15.980  0.00  0.00     0.018 A 
ENDBRANCH  11  14
ENDBRANCH   6   8
ENDBRANCH   1   6
BRANCH   3  20
ATOM     20  C   UNL d   1     -41.098  14.516  20.860  0.00  0.00     0.024 A 
ATOM     21  C   UNL d   1     -41.409  13.757  20.994  0.00  0.00     0.025 A 
ATOM     22  C   UNL d   1     -42.212  13.661  21.156  0.00  0.00     0.127 A 
ATOM     23  C   UNL d   1     -42.722  14.321  21.188  0.00  0.00     0.024 A 
ATOM     24  C   UNL d   1     -42.402  15.072  21.054  0.00  0.00     0.002 A 
ATOM     25  C   UNL d   1     -41.599  15.168  20.892  0.00  0.00     0.002 A 
BRANCH  22  26
ATOM     26  N   UNL d   1     -42.505  12.914  21.285  0.00  0.00    -0.114 N 
ATOM     27  O   UNL d   1     -42.481  12.494  22.017  0.00  0.00    -0.532 OA
ATOM     28  O   UNL d   1     -42.872  12.463  20.696  0.00  0.00    -0.532 OA
ENDBRANCH  22  26
ENDBRANCH   3  20
TORSDOF 5
ENDMDL
MODEL 7
REMARK VINA RESULT:      -3.4      1.766      2.636
REMARK  5 active torsions:
REMARK  status: ('A' for Active; 'I' for Inactive)
REMARK    1  A    between atoms: C_3  and  C_1 
REMARK    2  A    between atoms: N_2  and  C_10 
REMARK    3  A    between atoms: N_6  and  C_3 
REMARK    4  A    between atoms: C_11  and  C_5 
REMARK    5  A    between atoms: C_20  and  N_7 
ROOT
ATOM      1  C   UNL d   1     -39.823  15.538  19.197  0.00  0.00     0.126 A 
ATOM      2  O   UNL d   1     -39.192  15.238  18.757  0.00  0.00    -0.305 OA
ATOM      3  C   UNL d   1     -39.314  15.435  17.960  0.00  0.00     0.100 A 
ATOM      4  C   UNL d   1     -40.335  15.920  18.673  0.00  0.00     0.029 A 
ATOM      5  C   UNL d   1     -40.029  15.861  17.914  0.00  0.00     0.027 A 
ENDROOT
BRANCH   1   6
ATOM      6  C   UNL d   1     -39.935  15.469  20.050  0.00  0.00     0.143 C 
ATOM      7  S   UNL d   1     -39.444  15.892  20.561  0.00  0.00    -0.057 SA
BRANCH   6   8
ATOM      8  N   UNL d   1     -40.549  14.966  20.338  0.00  0.00    -0.291 N 
ATOM      9  C   UNL d   1     -41.275  15.263  20.576  0.00  0.00     0.100 A 
ATOM     10  C   UNL d   1     -41.850  14.752  20.851  0.00  0.00     0.100 A 
ATOM     11  N   UNL d   1     -41.732  13.955  20.899  0.00  0.00    -0.301 N 
ATOM     12  C   UNL d   1     -40.993  13.627  20.659  0.00  0.00     0.100 A 
ATOM     13  C   UNL d   1     -40.399  14.139  20.377  0.00  0.00     0.100 A 
BRANCH  11  14
ATOM     14  C   UNL d   1     -42.331  13.455  21.181  0.00  0.00     0.064 A 
ATOM     15  C   UNL d   1     -43.110  13.677  21.087  0.00  0.00     0.018 A 
ATOM     16  C   UNL d   1     -43.725  13.200  21.357  0.00  0.00     0.002 A 
ATOM     17  C   UNL d   1     -43.548  12.489  21.728  0.00  0.00     0.000 A 
ATOM     18  C   UNL d   1     -42.756  12.256  21.828  0.00  0.00     0.002 A 
ATOM     19  C   UNL d   1     -42.154  12.744  21.552  0.00  0.00     0.018 A 
ENDBRANCH  11  14
ENDBRANCH   6   8
ENDBRANCH   1   6
BRANCH   3  20
ATOM     20  C   UNL d   1     -38.870  15.284  17.275  0.00  0.00     0.024 A 
ATOM     21  C   UNL d   1     -38.707  14.502  17.049  0.00  0.00     0.025 A 
ATOM     22  C   UNL d   1     -38.265  14.351  16.369  0.00  0.00     0.127 A 
ATOM     23  C   UNL d   1     -37.978  14.979  15.900  0.00  0.00     0.024 A 
ATOM     24  C   UNL d   1     -38.147  15.753  16.135  0.00  0.00     0.002 A 
ATOM     25  C   UNL d   1     -38.588  15.904  16.815  0.00  0.00     0.002 A 
BRANCH  22  26
ATOM     26  N   UNL d   1     -38.111  13.581  16.157  0.00  0.00    -0.114 N 
ATOM     27  O   UNL d   1     -37.984  12.939  16.690  0.00  0.00    -0.532 OA
ATOM     28  O   UNL d   1     -38.059  13.330  15.371  0.00  0.00    -0.532 OA
ENDBRANCH  22  26
ENDBRANCH   3  20
TORSDOF 5
ENDMDL
