MODEL 1
REMARK VINA RESULT:      -8.8      0.000      0.000
REMARK  2 active torsions:
REMARK  status: ('A' for Active; 'I' for Inactive)
REMARK    1  A    between atoms: C_2  and  N_1 
REMARK    2  A    between atoms: C_5  and  C_7 
ROOT
ATOM      1  C   UNL d   1      53.679  32.207  53.737  0.00  0.00     0.070 A 
ATOM      2  C   UNL d   1      53.733  31.384  53.818  0.00  0.00     0.024 A 
ATOM      3  C   UNL d   1      53.214  30.898  53.414  0.00  0.00     0.066 A 
ATOM      4  C   UNL d   1      53.107  32.544  53.252  0.00  0.00     0.018 A 
ATOM      5  C   UNL d   1      52.635  31.234  52.923  0.00  0.00     0.006 A 
ATOM      6  C   UNL d   1      52.581  32.057  52.842  0.00  0.00     0.002 A 
ENDROOT
BRANCH   1   7
ATOM      7  N   UNL d   1      54.200  32.701  54.143  0.00  0.00    -0.242 N 
ATOM      8  C   UNL d   1      54.134  32.970  54.923  0.00  0.00     0.267 A 
ATOM      9  C   UNL d   1      54.778  33.448  55.092  0.00  0.00     0.066 A 
ATOM     10  O   UNL d   1      53.533  32.810  55.482  0.00  0.00    -0.267 OA
ATOM     11  C   UNL d   1      55.258  33.484  54.418  0.00  0.00     0.066 A 
ATOM     12  C   UNL d   1      54.900  33.024  53.834  0.00  0.00     0.267 A 
ATOM     13  O   UNL d   1      55.224  32.928  53.076  0.00  0.00    -0.267 OA
ENDBRANCH   1   7
BRANCH   3  14
ATOM     14  C   UNL d   1      53.257  30.082  53.485  0.00  0.00     0.211 C 
ATOM     15  O   UNL d   1      53.971  29.690  53.397  0.00  0.00    -0.644 OA
ATOM     16  O   UNL d   1      52.565  29.654  53.649  0.00  0.00    -0.644 OA
ENDBRANCH   3  14
TORSDOF 2
ENDMDL
MODEL 2
REMARK VINA RESULT:      -8.8      1.826      3.146
REMARK  2 active torsions:
REMARK  status: ('A' for Active; 'I' for Inactive)
REMARK    1  A    between atoms: C_2  and  N_1 
REMARK    2  A    between atoms: C_5  and  C_7 
ROOT
ATOM      1  C   UNL d   1      52.954  33.249  53.497  0.00  0.00     0.070 A 
ATOM      2  C   UNL d   1      53.309  33.427  54.225  0.00  0.00     0.024 A 
ATOM      3  C   UNL d   1      54.017  33.076  54.432  0.00  0.00     0.066 A 
ATOM      4  C   UNL d   1      53.308  32.720  52.978  0.00  0.00     0.018 A 
ATOM      5  C   UNL d   1      54.378  32.541  53.910  0.00  0.00     0.006 A 
ATOM      6  C   UNL d   1      54.023  32.363  53.183  0.00  0.00     0.002 A 
ENDROOT
BRANCH   1   7
ATOM      7  N   UNL d   1      52.240  33.602  53.285  0.00  0.00    -0.242 N 
ATOM      8  C   UNL d   1      51.484  33.263  53.308  0.00  0.00     0.267 A 
ATOM      9  C   UNL d   1      50.939  33.816  53.047  0.00  0.00     0.066 A 
ATOM     10  O   UNL d   1      51.264  32.493  53.550  0.00  0.00    -0.267 OA
ATOM     11  C   UNL d   1      51.347  34.511  52.855  0.00  0.00     0.066 A 
ATOM     12  C   UNL d   1      52.147  34.377  53.002  0.00  0.00     0.267 A 
ATOM     13  O   UNL d   1      52.731  34.954  52.874  0.00  0.00    -0.267 OA
ENDBRANCH   1   7
BRANCH   3  14
ATOM     14  C   UNL d   1      54.379  33.244  55.149  0.00  0.00     0.211 C 
ATOM     15  O   UNL d   1      54.268  32.757  55.799  0.00  0.00    -0.644 OA
ATOM     16  O   UNL d   1      54.861  33.917  55.210  0.00  0.00    -0.644 OA
ENDBRANCH   3  14
TORSDOF 2
ENDMDL
MODEL 3
REMARK VINA RESULT:      -8.6      2.041      2.820
REMARK  2 active torsions:
REMARK  status: ('A' for Active; 'I' for Inactive)
REMARK    1  A    between atoms: C_2  and  N_1 
REMARK    2  A    between atoms: C_5  and  C_7 
ROOT
ATOM      1  C   UNL d   1      52.962  33.915  53.703  0.00  0.00     0.070 A 
ATOM      2  C   UNL d   1      52.211  33.567  53.742  0.00  0.00     0.024 A 
ATOM      3  C   UNL d   1      51.623  33.802  53.226  0.00  0.00     0.066 A 
ATOM      4  C   UNL d   1      53.125  34.499  53.148  0.00  0.00     0.018 A 
ATOM      5  C   UNL d   1      51.784  34.391  52.663  0.00  0.00     0.006 A 
ATOM      6  C   UNL d   1      52.534  34.739  52.624  0.00  0.00     0.002 A 
ENDROOT
BRANCH   1   7
ATOM      7  N   UNL d   1      53.558  33.680  54.223  0.00  0.00    -0.242 N 
ATOM      8  C   UNL d   1      54.088  33.050  54.130  0.00  0.00     0.267 A 
ATOM      9  C   UNL d   1      54.582  33.024  54.783  0.00  0.00     0.066 A 
ATOM     10  O   UNL d   1      54.148  32.508  53.497  0.00  0.00    -0.267 OA
ATOM     11  C   UNL d   1      54.368  33.638  55.296  0.00  0.00     0.066 A 
ATOM     12  C   UNL d   1      53.737  34.041  54.949  0.00  0.00     0.267 A 
ATOM     13  O   UNL d   1      53.371  34.695  55.306  0.00  0.00    -0.267 OA
ENDBRANCH   1   7
BRANCH   3  14
ATOM     14  C   UNL d   1      50.875  33.466  53.254  0.00  0.00     0.211 C 
ATOM     15  O   UNL d   1      50.782  32.659  53.364  0.00  0.00    -0.644 OA
ATOM     16  O   UNL d   1      50.209  33.954  53.169  0.00  0.00    -0.644 OA
ENDBRANCH   3  14
TORSDOF 2
ENDMDL
MODEL 4
REMARK VINA RESULT:      -8.6      1.077      3.177
REMARK  2 active torsions:
REMARK  status: ('A' for Active; 'I' for Inactive)
REMARK    1  A    between atoms: C_2  and  N_1 
REMARK    2  A    between atoms: C_5  and  C_7 
ROOT
ATOM      1  C   UNL d   1      53.933  32.228  53.647  0.00  0.00     0.070 A 
ATOM      2  C   UNL d   1      53.818  32.616  54.370  0.00  0.00     0.024 A 
ATOM      3  C   UNL d   1      54.350  33.184  54.620  0.00  0.00     0.066 A 
ATOM      4  C   UNL d   1      54.581  32.408  53.175  0.00  0.00     0.018 A 
ATOM      5  C   UNL d   1      55.005  33.368  54.145  0.00  0.00     0.006 A 
ATOM      6  C   UNL d   1      55.121  32.980  53.423  0.00  0.00     0.002 A 
ENDROOT
BRANCH   1   7
ATOM      7  N   UNL d   1      53.399  31.655  53.392  0.00  0.00    -0.242 N 
ATOM      8  C   UNL d   1      53.419  30.841  53.549  0.00  0.00     0.267 A 
ATOM      9  C   UNL d   1      52.777  30.487  53.183  0.00  0.00     0.066 A 
ATOM     10  O   UNL d   1      53.977  30.410  53.998  0.00  0.00    -0.267 OA
ATOM     11  C   UNL d   1      52.344  31.074  52.791  0.00  0.00     0.066 A 
ATOM     12  C   UNL d   1      52.729  31.793  52.921  0.00  0.00     0.267 A 
ATOM     13  O   UNL d   1      52.455  32.512  52.610  0.00  0.00    -0.267 OA
ENDBRANCH   1   7
BRANCH   3  14
ATOM     14  C   UNL d   1      54.247  33.576  55.333  0.00  0.00     0.211 C 
ATOM     15  O   UNL d   1      53.826  34.278  55.370  0.00  0.00    -0.644 OA
ATOM     16  O   UNL d   1      54.576  33.252  56.023  0.00  0.00    -0.644 OA
ENDBRANCH   3  14
TORSDOF 2
ENDMDL
MODEL 5
REMARK VINA RESULT:      -8.1      1.662      2.216
REMARK  2 active torsions:
REMARK  status: ('A' for Active; 'I' for Inactive)
REMARK    1  A    between atoms: C_2  and  N_1 
REMARK    2  A    between atoms: C_5  and  C_7 
ROOT
ATOM      1  C   UNL d   1      53.620  33.391  53.750  0.00  0.00     0.070 A 
ATOM      2  C   UNL d   1      53.133  32.743  53.582  0.00  0.00     0.024 A 
ATOM      3  C   UNL d   1      53.462  32.037  53.334  0.00  0.00     0.066 A 
ATOM      4  C   UNL d   1      54.436  33.334  53.670  0.00  0.00     0.018 A 
ATOM      5  C   UNL d   1      54.286  31.975  53.252  0.00  0.00     0.006 A 
ATOM      6  C   UNL d   1      54.773  32.624  53.420  0.00  0.00     0.002 A 
ENDROOT
BRANCH   1   7
ATOM      7  N   UNL d   1      53.291  34.105  54.001  0.00  0.00    -0.242 N 
ATOM      8  C   UNL d   1      52.917  34.679  53.535  0.00  0.00     0.267 A 
ATOM      9  C   UNL d   1      52.678  35.295  54.019  0.00  0.00     0.066 A 
ATOM     10  O   UNL d   1      52.784  34.675  52.710  0.00  0.00    -0.267 OA
ATOM     11  C   UNL d   1      52.898  35.116  54.797  0.00  0.00     0.066 A 
ATOM     12  C   UNL d   1      53.276  34.383  54.784  0.00  0.00     0.267 A 
ATOM     13  O   UNL d   1      53.577  34.019  55.467  0.00  0.00    -0.267 OA
ENDBRANCH   1   7
BRANCH   3  14
ATOM     14  C   UNL d   1      52.991  31.387  53.164  0.00  0.00     0.211 C 
ATOM     15  O   UNL d   1      52.540  31.362  52.480  0.00  0.00    -0.644 OA
ATOM     16  O   UNL d   1      52.975  30.750  53.696  0.00  0.00    -0.644 OA
ENDBRANCH   3  14
TORSDOF 2
ENDMDL
