MODEL 1
REMARK VINA RESULT:      14.5      0.000      0.000
REMARK  2 active torsions:
REMARK  status: ('A' for Active; 'I' for Inactive)
REMARK    1  A    between atoms: C_6  and  C_4 
REMARK    2  A    between atoms: C_7  and  C_6 
ROOT
ATOM      1  N   UNL d   1      59.249  49.707  49.981  0.00  0.00    -0.163 NA
ATOM      2  C   UNL d   1      60.034  49.690  50.221  0.00  0.00     0.288 A 
ATOM      3  C   UNL d   1      58.776  49.684  50.656  0.00  0.00     0.313 A 
ATOM      4  C   UNL d   1      60.050  49.656  51.046  0.00  0.00     0.098 A 
ATOM      5  S   UNL d   1      59.269  49.652  51.315  0.00  0.00    -0.020 SA
ATOM      6  O   UNL d   1      60.693  49.703  49.733  0.00  0.00    -0.265 OA
ATOM      7  O   UNL d   1      57.951  49.692  50.668  0.00  0.00    -0.258 OA
ENDROOT
BRANCH   4   8
ATOM      8  C   UNL d   1      60.439  49.622  51.777  0.00  0.00     0.075 C 
ATOM      9  C   UNL d   1      60.015  49.693  52.479  0.00  0.00     0.007 C 
BRANCH   8  10
ATOM     10  C   UNL d   1      61.257  49.516  51.805  0.00  0.00     0.211 C 
ATOM     11  O   UNL d   1      61.660  49.256  51.135  0.00  0.00    -0.644 OA
ATOM     12  O   UNL d   1      61.673  49.668  52.497  0.00  0.00    -0.644 OA
ENDBRANCH   8  10
ENDBRANCH   4   8
TORSDOF 2
ENDMDL
MODEL 2
REMARK VINA RESULT:      15.2      1.814      2.724
REMARK  2 active torsions:
REMARK  status: ('A' for Active; 'I' for Inactive)
REMARK    1  A    between atoms: C_6  and  C_4 
REMARK    2  A    between atoms: C_7  and  C_6 
ROOT
ATOM      1  N   UNL d   1      56.583  49.581  50.428  0.00  0.00    -0.163 NA
ATOM      2  C   UNL d   1      57.303  49.584  50.824  0.00  0.00     0.288 A 
ATOM      3  C   UNL d   1      56.739  49.631  49.619  0.00  0.00     0.313 A 
ATOM      4  C   UNL d   1      57.906  49.635  50.262  0.00  0.00     0.098 A 
ATOM      5  S   UNL d   1      57.555  49.664  49.515  0.00  0.00    -0.020 SA
ATOM      6  O   UNL d   1      57.411  49.543  51.636  0.00  0.00    -0.265 OA
ATOM      7  O   UNL d   1      56.173  49.644  49.019  0.00  0.00    -0.258 OA
ENDROOT
BRANCH   4   8
ATOM      8  C   UNL d   1      58.701  49.674  50.034  0.00  0.00     0.075 C 
ATOM      9  C   UNL d   1      58.905  49.705  49.237  0.00  0.00     0.007 C 
BRANCH   8  10
ATOM     10  C   UNL d   1      59.296  49.682  50.606  0.00  0.00     0.211 C 
ATOM     11  O   UNL d   1      59.095  49.700  51.406  0.00  0.00    -0.644 OA
ATOM     12  O   UNL d   1      60.087  49.672  50.385  0.00  0.00    -0.644 OA
ENDBRANCH   8  10
ENDBRANCH   4   8
TORSDOF 2
ENDMDL
MODEL 3
REMARK VINA RESULT:      16.7      1.030      1.509
REMARK  2 active torsions:
REMARK  status: ('A' for Active; 'I' for Inactive)
REMARK    1  A    between atoms: C_6  and  C_4 
REMARK    2  A    between atoms: C_7  and  C_6 
ROOT
ATOM      1  N   UNL d   1      58.145  49.704  51.001  0.00  0.00    -0.163 NA
ATOM      2  C   UNL d   1      58.830  49.670  51.454  0.00  0.00     0.288 A 
ATOM      3  C   UNL d   1      58.366  49.683  50.206  0.00  0.00     0.313 A 
ATOM      4  C   UNL d   1      59.476  49.627  50.941  0.00  0.00     0.098 A 
ATOM      5  S   UNL d   1      59.187  49.635  50.167  0.00  0.00    -0.020 SA
ATOM      6  O   UNL d   1      58.871  49.677  52.273  0.00  0.00    -0.265 OA
ATOM      7  O   UNL d   1      57.851  49.705  49.562  0.00  0.00    -0.258 OA
ENDROOT
BRANCH   4   8
ATOM      8  C   UNL d   1      60.286  49.578  50.777  0.00  0.00     0.075 C 
ATOM      9  C   UNL d   1      60.556  49.602  49.999  0.00  0.00     0.007 C 
BRANCH   8  10
ATOM     10  C   UNL d   1      60.830  49.506  51.394  0.00  0.00     0.211 C 
ATOM     11  O   UNL d   1      61.594  49.237  51.237  0.00  0.00    -0.644 OA
ATOM     12  O   UNL d   1      60.616  49.699  52.163  0.00  0.00    -0.644 OA
ENDBRANCH   8  10
ENDBRANCH   4   8
TORSDOF 2
ENDMDL
MODEL 4
REMARK VINA RESULT:      16.8      1.230      3.237
REMARK  2 active torsions:
REMARK  status: ('A' for Active; 'I' for Inactive)
REMARK    1  A    between atoms: C_6  and  C_4 
REMARK    2  A    between atoms: C_7  and  C_6 
ROOT
ATOM      1  N   UNL d   1      59.584  49.678  51.592  0.00  0.00    -0.163 NA
ATOM      2  C   UNL d   1      58.766  49.687  51.511  0.00  0.00     0.288 A 
ATOM      3  C   UNL d   1      59.914  49.662  50.836  0.00  0.00     0.313 A 
ATOM      4  C   UNL d   1      58.588  49.678  50.704  0.00  0.00     0.098 A 
ATOM      5  S   UNL d   1      59.300  49.663  50.287  0.00  0.00    -0.020 SA
ATOM      6  O   UNL d   1      58.217  49.703  52.119  0.00  0.00    -0.265 OA
ATOM      7  O   UNL d   1      60.720  49.649  50.662  0.00  0.00    -0.258 OA
ENDROOT
BRANCH   4   8
ATOM      8  C   UNL d   1      58.063  49.676  50.064  0.00  0.00     0.075 C 
ATOM      9  C   UNL d   1      58.346  49.696  49.291  0.00  0.00     0.007 C 
BRANCH   8  10
ATOM     10  C   UNL d   1      57.248  49.654  50.198  0.00  0.00     0.211 C 
ATOM     11  O   UNL d   1      56.959  49.669  50.970  0.00  0.00    -0.644 OA
ATOM     12  O   UNL d   1      56.723  49.617  49.567  0.00  0.00    -0.644 OA
ENDBRANCH   8  10
ENDBRANCH   4   8
TORSDOF 2
ENDMDL
