MODEL 1
REMARK VINA RESULT:      16.4      0.000      0.000
REMARK  4 active torsions:
REMARK  status: ('A' for Active; 'I' for Inactive)
REMARK    1  A    between atoms: C_4  and  C_1 
REMARK       I    between atoms: N_9  and  C_4 
REMARK    2  A    between atoms: C_7  and  C_13 
REMARK    3  A    between atoms: C_12  and  N_9 
REMARK    4  A    between atoms: C_13  and  C_12 
ROOT
ATOM      1  C   UNL d   1      13.307  12.491  -3.558  0.00  0.00     0.302 C 
ATOM      2  O   UNL d   1      13.279  11.781  -3.948  0.00  0.00    -0.263 OA
ATOM      3  N   UNL d   1      13.410  12.504  -2.725  0.00  0.00    -0.205 NA
ENDROOT
BRANCH   3   4
ATOM      4  C   UNL d   1      13.479  11.795  -2.323  0.00  0.00     0.102 C 
BRANCH   4   5
ATOM      5  C   UNL d   1      13.449  11.779  -1.496  0.00  0.00     0.021 C 
BRANCH   5   6
ATOM      6  C   UNL d   1      14.072  12.079  -1.053  0.00  0.00     0.002 A 
ATOM      7  C   UNL d   1      14.849  11.816  -1.206  0.00  0.00     0.000 A 
ATOM      8  C   UNL d   1      15.483  12.110  -0.768  0.00  0.00     0.000 A 
ATOM      9  C   UNL d   1      15.355  12.668  -0.172  0.00  0.00     0.000 A 
ATOM     10  C   UNL d   1      14.592  12.926  -0.023  0.00  0.00     0.000 A 
ATOM     11  C   UNL d   1      13.953  12.630  -0.465  0.00  0.00     0.000 A 
ENDBRANCH   5   6
ENDBRANCH   4   5
ENDBRANCH   3   4
BRANCH   1  12
ATOM     12  C   UNL d   1      13.237  13.202  -3.968  0.00  0.00     0.158 A 
ATOM     13  O   UNL d   1      13.566  13.942  -3.790  0.00  0.00    -0.296 OA
ATOM     14  C   UNL d   1      13.336  14.488  -4.370  0.00  0.00     0.134 A 
ATOM     15 BR   UNL d   1      13.550  15.290  -4.393  0.00  0.00    -0.022 Br
ATOM     16  C   UNL d   1      12.861  14.081  -4.909  0.00  0.00     0.034 A 
ATOM     17  C   UNL d   1      12.799  13.301  -4.668  0.00  0.00     0.032 A 
ENDBRANCH   1  12
TORSDOF 4
ENDMDL
MODEL 2
REMARK VINA RESULT:      18.5      0.973      1.438
REMARK  4 active torsions:
REMARK  status: ('A' for Active; 'I' for Inactive)
REMARK    1  A    between atoms: C_4  and  C_1 
REMARK       I    between atoms: N_9  and  C_4 
REMARK    2  A    between atoms: C_7  and  C_13 
REMARK    3  A    between atoms: C_12  and  N_9 
REMARK    4  A    between atoms: C_13  and  C_12 
ROOT
ATOM      1  C   UNL d   1      13.362  12.321  -2.722  0.00  0.00     0.302 C 
ATOM      2  O   UNL d   1      12.826  11.782  -2.439  0.00  0.00    -0.263 OA
ATOM      3  N   UNL d   1      14.003  12.563  -2.237  0.00  0.00    -0.205 NA
ENDROOT
BRANCH   3   4
ATOM      4  C   UNL d   1      14.074  12.249  -1.486  0.00  0.00     0.102 C 
BRANCH   4   5
ATOM      5  C   UNL d   1      14.796  12.288  -1.083  0.00  0.00     0.021 C 
BRANCH   5   6
ATOM      6  C   UNL d   1      15.035  12.989  -0.728  0.00  0.00     0.002 A 
ATOM      7  C   UNL d   1      14.518  13.643  -0.721  0.00  0.00     0.000 A 
ATOM      8  C   UNL d   1      14.746  14.352  -0.368  0.00  0.00     0.000 A 
ATOM      9  C   UNL d   1      15.491  14.422  -0.016  0.00  0.00     0.000 A 
ATOM     10  C   UNL d   1      15.998  13.779  -0.024  0.00  0.00     0.000 A 
ATOM     11  C   UNL d   1      15.767  13.064  -0.380  0.00  0.00     0.000 A 
ENDBRANCH   5   6
ENDBRANCH   4   5
ENDBRANCH   3   4
BRANCH   1  12
ATOM     12  C   UNL d   1      13.287  12.634  -3.480  0.00  0.00     0.158 A 
ATOM     13  O   UNL d   1      13.445  13.402  -3.745  0.00  0.00    -0.296 OA
ATOM     14  C   UNL d   1      13.283  13.450  -4.557  0.00  0.00     0.134 A 
ATOM     15 BR   UNL d   1      13.370  14.125  -5.031  0.00  0.00    -0.022 Br
ATOM     16  C   UNL d   1      13.022  12.703  -4.793  0.00  0.00     0.034 A 
ATOM     17  C   UNL d   1      13.023  12.205  -4.143  0.00  0.00     0.032 A 
ENDBRANCH   1  12
TORSDOF 4
ENDMDL
