MODEL 1
REMARK VINA RESULT:      61.6      0.000      0.000
REMARK  2 active torsions:
REMARK  status: ('A' for Active; 'I' for Inactive)
REMARK    1  A    between atoms: C_2  and  C_1 
REMARK    2  A    between atoms: C_14  and  N_5 
ROOT
ATOM      1  C   UNL d   1     -50.749  25.497  33.598  0.00  0.00     0.117 A 
ATOM      2  N   UNL d   1     -50.865  26.319  33.484  0.00  0.00    -0.164 NA
ATOM      3  C   UNL d   1     -49.959  25.371  33.760  0.00  0.00     0.107 A 
ATOM      4  N   UNL d   1     -50.147  26.683  33.578  0.00  0.00    -0.228 N 
ATOM      5  C   UNL d   1     -49.580  26.095  33.750  0.00  0.00     0.112 A 
ATOM      6  C   UNL d   1     -49.587  24.641  33.912  0.00  0.00     0.104 C 
ATOM      7  N   UNL d   1     -49.219  23.912  34.062  0.00  0.00    -0.191 NA
ENDROOT
BRANCH   1   8
ATOM      8  C   UNL d   1     -51.371  24.941  33.544  0.00  0.00     0.084 A 
ATOM      9  C   UNL d   1     -51.186  24.128  33.404  0.00  0.00     0.302 A 
ATOM     10  O   UNL d   1     -51.776  23.578  33.349  0.00  0.00    -0.273 OA
ATOM     11  O   UNL d   1     -50.403  23.889  33.322  0.00  0.00    -0.259 OA
ATOM     12  C   UNL d   1     -52.574  23.800  33.428  0.00  0.00     0.103 A 
ATOM     13  C   UNL d   1     -52.752  24.597  33.565  0.00  0.00     0.023 A 
ATOM     14  C   UNL d   1     -53.160  23.241  33.371  0.00  0.00     0.025 A 
ATOM     15  C   UNL d   1     -52.154  25.162  33.622  0.00  0.00     0.009 A 
ATOM     16  C   UNL d   1     -53.546  24.816  33.644  0.00  0.00     0.002 A 
ATOM     17  C   UNL d   1     -54.129  24.250  33.586  0.00  0.00     0.000 A 
ATOM     18  C   UNL d   1     -53.950  23.461  33.450  0.00  0.00     0.002 A 
ENDBRANCH   1   8
BRANCH   4  19
ATOM     19  C   UNL d   1     -50.026  27.498  33.510  0.00  0.00     0.083 A 
ATOM     20  C   UNL d   1     -50.662  28.010  33.381  0.00  0.00     0.019 A 
ATOM     21  C   UNL d   1     -50.532  28.815  33.315  0.00  0.00     0.002 A 
ATOM     22  C   UNL d   1     -49.774  29.112  33.376  0.00  0.00     0.000 A 
ATOM     23  C   UNL d   1     -49.111  28.605  33.508  0.00  0.00     0.002 A 
ATOM     24  C   UNL d   1     -49.257  27.788  33.573  0.00  0.00     0.019 A 
ENDBRANCH   4  19
TORSDOF 2
ENDMDL
