MODEL 1
REMARK VINA RESULT:      12.5      0.000      0.000
REMARK  3 active torsions:
REMARK  status: ('A' for Active; 'I' for Inactive)
REMARK    1  A    between atoms: C_6  and  C_1 
REMARK    2  A    between atoms: O_10  and  C_6 
REMARK    3  A    between atoms: C_13  and  O_10 
ROOT
ATOM      1  C   UNL d   1      13.876  12.414  -2.917  0.00  0.00     0.121 A 
ATOM      2  C   UNL d   1      13.529  12.105  -2.235  0.00  0.00     0.204 A 
ATOM      3  C   UNL d   1      14.635  12.741  -2.884  0.00  0.00     0.107 A 
ATOM      4  C   UNL d   1      13.941  12.124  -1.520  0.00  0.00     0.057 A 
ATOM      5  N   UNL d   1      15.046  12.758  -2.161  0.00  0.00    -0.244 NA
ATOM      6  C   UNL d   1      14.700  12.449  -1.479  0.00  0.00     0.085 A 
ATOM      7  O   UNL d   1      12.771  11.779  -2.273  0.00  0.00    -0.286 OA
ATOM      8  C   UNL d   1      13.590  11.814  -0.838  0.00  0.00     0.005 A 
ATOM      9  C   UNL d   1      15.107  12.468  -0.772  0.00  0.00     0.019 A 
ATOM     10  C   UNL d   1      14.005  11.835  -0.128  0.00  0.00     0.000 A 
ATOM     11  C   UNL d   1      14.764  12.162  -0.095  0.00  0.00     0.002 A 
ENDROOT
BRANCH   1  12
ATOM     12  C   UNL d   1      13.472  12.400  -3.636  0.00  0.00     0.305 C 
ATOM     13  O   UNL d   1      12.880  12.957  -3.779  0.00  0.00    -0.259 OA
BRANCH  12  14
ATOM     14  O   UNL d   1      13.659  11.832  -4.207  0.00  0.00    -0.271 OA
BRANCH  14  15
ATOM     15  C   UNL d   1      13.346  11.893  -4.970  0.00  0.00     0.126 C 
ATOM     16  C   UNL d   1      13.841  11.807  -5.624  0.00  0.00     0.029 C 
ENDBRANCH  14  15
ENDBRANCH  12  14
ENDBRANCH   1  12
TORSDOF 3
ENDMDL
MODEL 2
REMARK VINA RESULT:      13.2      9.282     10.018
REMARK  3 active torsions:
REMARK  status: ('A' for Active; 'I' for Inactive)
REMARK    1  A    between atoms: C_6  and  C_1 
REMARK    2  A    between atoms: O_10  and  C_6 
REMARK    3  A    between atoms: C_13  and  O_10 
ROOT
ATOM      1  C   UNL d   1      24.095  12.303  -2.772  0.00  0.00     0.121 A 
ATOM      2  C   UNL d   1      23.469  12.724  -2.438  0.00  0.00     0.204 A 
ATOM      3  C   UNL d   1      24.718  12.041  -2.296  0.00  0.00     0.107 A 
ATOM      4  C   UNL d   1      23.466  12.884  -1.629  0.00  0.00     0.057 A 
ATOM      5  N   UNL d   1      24.712  12.204  -1.481  0.00  0.00    -0.244 NA
ATOM      6  C   UNL d   1      24.086  12.625  -1.147  0.00  0.00     0.085 A 
ATOM      7  O   UNL d   1      22.848  12.984  -2.918  0.00  0.00    -0.286 OA
ATOM      8  C   UNL d   1      22.837  13.306  -1.298  0.00  0.00     0.005 A 
ATOM      9  C   UNL d   1      24.084  12.783  -0.346  0.00  0.00     0.019 A 
ATOM     10  C   UNL d   1      22.840  13.463  -0.490  0.00  0.00     0.000 A 
ATOM     11  C   UNL d   1      23.463  13.201  -0.014  0.00  0.00     0.002 A 
ENDROOT
BRANCH   1  12
ATOM     12  C   UNL d   1      24.106  12.139  -3.581  0.00  0.00     0.305 C 
ATOM     13  O   UNL d   1      23.449  11.779  -3.931  0.00  0.00    -0.259 OA
BRANCH  12  14
ATOM     14  O   UNL d   1      24.768  12.333  -4.036  0.00  0.00    -0.271 OA
BRANCH  14  15
ATOM     15  C   UNL d   1      24.761  12.206  -4.853  0.00  0.00     0.126 C 
ATOM     16  C   UNL d   1      24.542  12.818  -5.360  0.00  0.00     0.029 C 
ENDBRANCH  14  15
ENDBRANCH  12  14
ENDBRANCH   1  12
TORSDOF 3
ENDMDL
