MODEL 1
REMARK VINA RESULT:      -3.0      0.000      0.000
REMARK  5 active torsions:
REMARK  status: ('A' for Active; 'I' for Inactive)
REMARK    1  A    between atoms: C_6  and  C_1 
REMARK    2  A    between atoms: C_8  and  N_3 
REMARK    3  A    between atoms: O_7  and  C_6 
REMARK    4  A    between atoms: C_9  and  O_7 
REMARK    5  A    between atoms: O_16  and  C_10 
ROOT
ATOM      1  C   UNL d   1      32.938  18.936 -22.743  0.00  0.00     0.173 A 
ATOM      2  N   UNL d   1      32.823  18.195 -22.462  0.00  0.00    -0.225 NA
ATOM      3  N   UNL d   1      33.032  18.944 -23.544  0.00  0.00    -0.287 N 
ATOM      4  C   UNL d   1      32.972  18.120 -23.815  0.00  0.00     0.083 A 
ATOM      5  C   UNL d   1      32.846  17.669 -23.162  0.00  0.00     0.099 A 
ATOM      6  C   UNL d   1      33.016  17.745 -24.546  0.00  0.00     0.019 A 
ATOM      7  C   UNL d   1      32.755  16.810 -23.195  0.00  0.00     0.021 A 
ATOM      8  C   UNL d   1      32.937  16.932 -24.645  0.00  0.00     0.002 A 
ATOM      9  C   UNL d   1      32.811  16.480 -23.992  0.00  0.00     0.002 A 
ENDROOT
BRANCH   1  10
ATOM     10  C   UNL d   1      33.020  19.741 -22.685  0.00  0.00     0.160 C 
BRANCH  10  11
ATOM     11  O   UNL d   1      33.240  20.074 -21.950  0.00  0.00    -0.302 OA
BRANCH  11  12
ATOM     12  C   UNL d   1      32.912  20.804 -21.706  0.00  0.00     0.100 A 
ATOM     13  C   UNL d   1      32.274  20.817 -21.164  0.00  0.00     0.027 A 
ATOM     14  C   UNL d   1      31.946  21.547 -20.920  0.00  0.00     0.026 A 
ATOM     15  C   UNL d   1      32.245  22.240 -21.207  0.00  0.00     0.094 A 
ATOM     16  C   UNL d   1      32.883  22.228 -21.749  0.00  0.00     0.026 A 
ATOM     17  C   UNL d   1      33.211  21.498 -21.993  0.00  0.00     0.027 A 
BRANCH  15  18
ATOM     18  O   UNL d   1      31.787  22.849 -20.847  0.00  0.00    -0.328 OA
ATOM     19  C   UNL d   1      32.098  23.626 -20.755  0.00  0.00     0.181 C 
ENDBRANCH  15  18
ENDBRANCH  11  12
ENDBRANCH  10  11
ENDBRANCH   1  10
BRANCH   3  20
ATOM     20  C   UNL d   1      33.151  19.660 -23.886  0.00  0.00     0.082 C 
ATOM     21  C   UNL d   1      33.112  19.766 -24.703  0.00  0.00     0.021 C 
ENDBRANCH   3  20
TORSDOF 5
ENDMDL
MODEL 2
REMARK VINA RESULT:      -0.5      2.852      4.210
REMARK  5 active torsions:
REMARK  status: ('A' for Active; 'I' for Inactive)
REMARK    1  A    between atoms: C_6  and  C_1 
REMARK    2  A    between atoms: C_8  and  N_3 
REMARK    3  A    between atoms: O_7  and  C_6 
REMARK    4  A    between atoms: C_9  and  O_7 
REMARK    5  A    between atoms: O_16  and  C_10 
ROOT
ATOM      1  C   UNL d   1      30.517  17.119 -24.248  0.00  0.00     0.173 A 
ATOM      2  N   UNL d   1      29.785  17.435 -24.322  0.00  0.00    -0.225 NA
ATOM      3  N   UNL d   1      30.493  16.361 -23.974  0.00  0.00    -0.287 N 
ATOM      4  C   UNL d   1      29.656  16.159 -23.857  0.00  0.00     0.083 A 
ATOM      5  C   UNL d   1      29.228  16.807 -24.067  0.00  0.00     0.099 A 
ATOM      6  C   UNL d   1      29.250  15.493 -23.596  0.00  0.00     0.019 A 
ATOM      7  C   UNL d   1      28.365  16.833 -24.030  0.00  0.00     0.021 A 
ATOM      8  C   UNL d   1      28.430  15.453 -23.538  0.00  0.00     0.002 A 
ATOM      9  C   UNL d   1      28.003  16.101 -23.747  0.00  0.00     0.002 A 
ENDROOT
BRANCH   1  10
ATOM     10  C   UNL d   1      31.327  17.121 -24.292  0.00  0.00     0.160 C 
BRANCH  10  11
ATOM     11  O   UNL d   1      31.698  17.521 -24.926  0.00  0.00    -0.302 OA
BRANCH  11  12
ATOM     12  C   UNL d   1      32.128  18.225 -24.783  0.00  0.00     0.100 A 
ATOM     13  C   UNL d   1      31.858  18.952 -25.097  0.00  0.00     0.027 A 
ATOM     14  C   UNL d   1      32.288  19.656 -24.954  0.00  0.00     0.026 A 
ATOM     15  C   UNL d   1      32.964  19.633 -24.512  0.00  0.00     0.094 A 
ATOM     16  C   UNL d   1      33.234  18.906 -24.198  0.00  0.00     0.026 A 
ATOM     17  C   UNL d   1      32.804  18.202 -24.341  0.00  0.00     0.027 A 
BRANCH  15  18
ATOM     18  O   UNL d   1      33.241  20.428 -24.485  0.00  0.00    -0.328 OA
ATOM     19  C   UNL d   1      33.224  20.868 -23.767  0.00  0.00     0.181 C 
ENDBRANCH  15  18
ENDBRANCH  11  12
ENDBRANCH  10  11
ENDBRANCH   1  10
BRANCH   3  20
ATOM     20  C   UNL d   1      31.198  15.990 -23.879  0.00  0.00     0.082 C 
ATOM     21  C   UNL d   1      31.356  15.512 -23.225  0.00  0.00     0.021 C 
ENDBRANCH   3  20
TORSDOF 5
ENDMDL
