MODEL 1
REMARK VINA RESULT:      -7.3      0.000      0.000
REMARK  4 active torsions:
REMARK  status: ('A' for Active; 'I' for Inactive)
REMARK    1  A    between atoms: C_6  and  C_1 
REMARK    2  A    between atoms: S_7  and  C_3 
REMARK    3  A    between atoms: C_17  and  S_7 
REMARK    4  A    between atoms: C_18  and  C_17 
ROOT
ATOM      1  C   UNL d   1     -48.400  14.203  22.865  0.00  0.00     0.087 A 
ATOM      2  N   UNL d   1     -48.511  15.006  23.033  0.00  0.00    -0.245 NA
ATOM      3  C   UNL d   1     -49.140  13.832  22.868  0.00  0.00     0.049 A 
ATOM      4  C   UNL d   1     -49.714  14.399  23.036  0.00  0.00     0.025 A 
ATOM      5  C   UNL d   1     -49.323  15.127  23.138  0.00  0.00     0.082 A 
ATOM      6  C   UNL d   1     -50.527  14.356  23.110  0.00  0.00     0.002 A 
ATOM      7  C   UNL d   1     -49.757  15.805  23.314  0.00  0.00     0.019 A 
ATOM      8  C   UNL d   1     -50.961  15.036  23.286  0.00  0.00     0.000 A 
ATOM      9  C   UNL d   1     -50.576  15.756  23.388  0.00  0.00     0.002 A 
ENDROOT
BRANCH   1  10
ATOM     10  C   UNL d   1     -47.666  13.881  22.728  0.00  0.00     0.018 A 
ATOM     11  C   UNL d   1     -47.128  13.796  23.359  0.00  0.00     0.004 A 
ATOM     12  C   UNL d   1     -46.385  13.469  23.219  0.00  0.00     0.030 A 
ATOM     13  C   UNL d   1     -46.170  13.226  22.459  0.00  0.00     0.140 A 
ATOM     14  C   UNL d   1     -46.703  13.309  21.828  0.00  0.00     0.030 A 
ATOM     15  F   UNL d   1     -45.421  12.895  22.311  0.00  0.00    -0.204 F 
ATOM     16  C   UNL d   1     -47.446  13.636  21.968  0.00  0.00     0.004 A 
ENDBRANCH   1  10
BRANCH   3  17
ATOM     17  S   UNL d   1     -49.280  13.033  22.726  0.00  0.00    -0.083 SA
BRANCH  17  18
ATOM     18  C   UNL d   1     -49.677  12.581  23.309  0.00  0.00     0.058 C 
BRANCH  18  19
ATOM     19  C   UNL d   1     -49.892  11.796  23.129  0.00  0.00     0.129 C 
ATOM     20  N   UNL d   1     -49.788  11.222  23.698  0.00  0.00    -0.146 N 
ENDBRANCH  18  19
ENDBRANCH  17  18
ENDBRANCH   3  17
TORSDOF 4
ENDMDL
MODEL 2
REMARK VINA RESULT:      -7.3      1.828      3.668
REMARK  4 active torsions:
REMARK  status: ('A' for Active; 'I' for Inactive)
REMARK    1  A    between atoms: C_6  and  C_1 
REMARK    2  A    between atoms: S_7  and  C_3 
REMARK    3  A    between atoms: C_17  and  S_7 
REMARK    4  A    between atoms: C_18  and  C_17 
ROOT
ATOM      1  C   UNL d   1     -48.126  12.888  22.780  0.00  0.00     0.087 A 
ATOM      2  N   UNL d   1     -47.442  12.477  22.556  0.00  0.00    -0.245 NA
ATOM      3  C   UNL d   1     -47.924  13.683  22.895  0.00  0.00     0.049 A 
ATOM      4  C   UNL d   1     -47.118  13.772  22.745  0.00  0.00     0.025 A 
ATOM      5  C   UNL d   1     -46.821  13.023  22.535  0.00  0.00     0.082 A 
ATOM      6  C   UNL d   1     -46.619  14.419  22.769  0.00  0.00     0.002 A 
ATOM      7  C   UNL d   1     -46.022  12.935  22.351  0.00  0.00     0.019 A 
ATOM      8  C   UNL d   1     -45.819  14.330  22.585  0.00  0.00     0.000 A 
ATOM      9  C   UNL d   1     -45.524  13.591  22.377  0.00  0.00     0.002 A 
ENDROOT
BRANCH   1  10
ATOM     10  C   UNL d   1     -48.850  12.527  22.859  0.00  0.00     0.018 A 
ATOM     11  C   UNL d   1     -49.127  12.321  23.618  0.00  0.00     0.004 A 
ATOM     12  C   UNL d   1     -49.861  11.955  23.697  0.00  0.00     0.030 A 
ATOM     13  C   UNL d   1     -50.323  11.792  23.031  0.00  0.00     0.140 A 
ATOM     14  C   UNL d   1     -50.049  11.995  22.274  0.00  0.00     0.030 A 
ATOM     15  F   UNL d   1     -51.064  11.422  23.104  0.00  0.00    -0.204 F 
ATOM     16  C   UNL d   1     -49.315  12.361  22.195  0.00  0.00     0.004 A 
ENDBRANCH   1  10
BRANCH   3  17
ATOM     17  S   UNL d   1     -48.439  14.285  23.122  0.00  0.00    -0.083 SA
BRANCH  17  18
ATOM     18  C   UNL d   1     -48.563  14.930  22.603  0.00  0.00     0.058 C 
BRANCH  18  19
ATOM     19  C   UNL d   1     -49.027  15.571  22.866  0.00  0.00     0.129 C 
ATOM     20  N   UNL d   1     -49.770  15.672  22.546  0.00  0.00    -0.146 N 
ENDBRANCH  18  19
ENDBRANCH  17  18
ENDBRANCH   3  17
TORSDOF 4
ENDMDL
MODEL 3
REMARK VINA RESULT:      -7.2      1.636      3.394
REMARK  4 active torsions:
REMARK  status: ('A' for Active; 'I' for Inactive)
REMARK    1  A    between atoms: C_6  and  C_1 
REMARK    2  A    between atoms: S_7  and  C_3 
REMARK    3  A    between atoms: C_17  and  S_7 
REMARK    4  A    between atoms: C_18  and  C_17 
ROOT
ATOM      1  C   UNL d   1     -48.308  14.107  22.949  0.00  0.00     0.087 A 
ATOM      2  N   UNL d   1     -47.593  14.377  22.631  0.00  0.00    -0.245 NA
ATOM      3  C   UNL d   1     -48.188  13.343  23.245  0.00  0.00     0.049 A 
ATOM      4  C   UNL d   1     -47.401  13.134  23.115  0.00  0.00     0.025 A 
ATOM      5  C   UNL d   1     -47.033  13.777  22.734  0.00  0.00     0.082 A 
ATOM      6  C   UNL d   1     -46.973  12.459  23.286  0.00  0.00     0.002 A 
ATOM      7  C   UNL d   1     -46.236  13.731  22.530  0.00  0.00     0.019 A 
ATOM      8  C   UNL d   1     -46.174  12.414  23.082  0.00  0.00     0.000 A 
ATOM      9  C   UNL d   1     -45.809  13.048  22.706  0.00  0.00     0.002 A 
ENDROOT
BRANCH   1  10
ATOM     10  C   UNL d   1     -48.987  14.554  22.946  0.00  0.00     0.018 A 
ATOM     11  C   UNL d   1     -49.439  14.612  22.248  0.00  0.00     0.004 A 
ATOM     12  C   UNL d   1     -50.128  15.065  22.246  0.00  0.00     0.030 A 
ATOM     13  C   UNL d   1     -50.371  15.462  22.930  0.00  0.00     0.140 A 
ATOM     14  C   UNL d   1     -49.922  15.406  23.626  0.00  0.00     0.030 A 
ATOM     15  F   UNL d   1     -51.064  15.921  22.934  0.00  0.00    -0.204 F 
ATOM     16  C   UNL d   1     -49.234  14.952  23.628  0.00  0.00     0.004 A 
ENDBRANCH   1  10
BRANCH   3  17
ATOM     17  S   UNL d   1     -48.756  12.870  23.608  0.00  0.00    -0.083 SA
BRANCH  17  18
ATOM     18  C   UNL d   1     -48.947  12.129  23.267  0.00  0.00     0.058 C 
BRANCH  18  19
ATOM     19  C   UNL d   1     -49.430  11.604  23.698  0.00  0.00     0.129 C 
ATOM     20  N   UNL d   1     -50.169  11.422  23.404  0.00  0.00    -0.146 N 
ENDBRANCH  18  19
ENDBRANCH  17  18
ENDBRANCH   3  17
TORSDOF 4
ENDMDL
MODEL 4
REMARK VINA RESULT:      -6.4      8.463     10.358
REMARK  4 active torsions:
REMARK  status: ('A' for Active; 'I' for Inactive)
REMARK    1  A    between atoms: C_6  and  C_1 
REMARK    2  A    between atoms: S_7  and  C_3 
REMARK    3  A    between atoms: C_17  and  S_7 
REMARK    4  A    between atoms: C_18  and  C_17 
ROOT
ATOM      1  C   UNL d   1     -39.804  14.553  18.770  0.00  0.00     0.087 A 
ATOM      2  N   UNL d   1     -39.299  13.899  18.825  0.00  0.00    -0.245 NA
ATOM      3  C   UNL d   1     -39.837  14.789  17.977  0.00  0.00     0.049 A 
ATOM      4  C   UNL d   1     -39.355  14.286  17.536  0.00  0.00     0.025 A 
ATOM      5  C   UNL d   1     -39.023  13.734  18.063  0.00  0.00     0.082 A 
ATOM      6  C   UNL d   1     -39.175  14.252  16.739  0.00  0.00     0.002 A 
ATOM      7  C   UNL d   1     -38.510  13.153  17.780  0.00  0.00     0.019 A 
ATOM      8  C   UNL d   1     -38.662  13.670  16.457  0.00  0.00     0.000 A 
ATOM      9  C   UNL d   1     -38.332  13.124  16.976  0.00  0.00     0.002 A 
ENDROOT
BRANCH   1  10
ATOM     10  C   UNL d   1     -40.180  14.873  19.416  0.00  0.00     0.018 A 
ATOM     11  C   UNL d   1     -40.821  14.468  19.762  0.00  0.00     0.004 A 
ATOM     12  C   UNL d   1     -41.202  14.793  20.416  0.00  0.00     0.030 A 
ATOM     13  C   UNL d   1     -40.953  15.516  20.730  0.00  0.00     0.140 A 
ATOM     14  C   UNL d   1     -40.315  15.922  20.388  0.00  0.00     0.030 A 
ATOM     15  F   UNL d   1     -41.334  15.850  21.391  0.00  0.00    -0.204 F 
ATOM     16  C   UNL d   1     -39.934  15.597  19.733  0.00  0.00     0.004 A 
ENDBRANCH   1  10
BRANCH   3  17
ATOM     17  S   UNL d   1     -40.275  15.419  17.678  0.00  0.00    -0.083 SA
BRANCH  17  18
ATOM     18  C   UNL d   1     -40.852  15.269  17.089  0.00  0.00     0.058 C 
BRANCH  18  19
ATOM     19  C   UNL d   1     -41.238  15.917  16.735  0.00  0.00     0.129 C 
ATOM     20  N   UNL d   1     -42.003  15.818  16.468  0.00  0.00    -0.146 N 
ENDBRANCH  18  19
ENDBRANCH  17  18
ENDBRANCH   3  17
TORSDOF 4
ENDMDL
MODEL 5
REMARK VINA RESULT:      -6.4      2.189      3.473
REMARK  4 active torsions:
REMARK  status: ('A' for Active; 'I' for Inactive)
REMARK    1  A    between atoms: C_6  and  C_1 
REMARK    2  A    between atoms: S_7  and  C_3 
REMARK    3  A    between atoms: C_17  and  S_7 
REMARK    4  A    between atoms: C_18  and  C_17 
ROOT
ATOM      1  C   UNL d   1     -48.235  13.123  22.953  0.00  0.00     0.087 A 
ATOM      2  N   UNL d   1     -48.193  13.886  22.633  0.00  0.00    -0.245 NA
ATOM      3  C   UNL d   1     -47.474  12.898  23.187  0.00  0.00     0.049 A 
ATOM      4  C   UNL d   1     -46.955  13.514  23.016  0.00  0.00     0.025 A 
ATOM      5  C   UNL d   1     -47.402  14.127  22.672  0.00  0.00     0.082 A 
ATOM      6  C   UNL d   1     -46.150  13.604  23.122  0.00  0.00     0.002 A 
ATOM      7  C   UNL d   1     -47.031  14.825  22.439  0.00  0.00     0.019 A 
ATOM      8  C   UNL d   1     -45.778  14.304  22.889  0.00  0.00     0.000 A 
ATOM      9  C   UNL d   1     -46.219  14.911  22.549  0.00  0.00     0.002 A 
ENDROOT
BRANCH   1  10
ATOM     10  C   UNL d   1     -48.932  12.708  23.006  0.00  0.00     0.018 A 
ATOM     11  C   UNL d   1     -49.448  12.848  23.645  0.00  0.00     0.004 A 
ATOM     12  C   UNL d   1     -50.154  12.426  23.698  0.00  0.00     0.030 A 
ATOM     13  C   UNL d   1     -50.352  11.866  23.122  0.00  0.00     0.140 A 
ATOM     14  C   UNL d   1     -49.840  11.724  22.485  0.00  0.00     0.030 A 
ATOM     15  F   UNL d   1     -51.064  11.437  23.170  0.00  0.00    -0.204 F 
ATOM     16  C   UNL d   1     -49.135  12.146  22.432  0.00  0.00     0.004 A 
ENDBRANCH   1  10
BRANCH   3  17
ATOM     17  S   UNL d   1     -47.268  12.178  23.533  0.00  0.00    -0.083 SA
BRANCH  17  18
ATOM     18  C   UNL d   1     -46.514  11.852  23.372  0.00  0.00     0.058 C 
BRANCH  18  19
ATOM     19  C   UNL d   1     -46.322  11.109  23.698  0.00  0.00     0.129 C 
ATOM     20  N   UNL d   1     -45.633  10.744  23.461  0.00  0.00    -0.146 N 
ENDBRANCH  18  19
ENDBRANCH  17  18
ENDBRANCH   3  17
TORSDOF 4
ENDMDL
MODEL 6
REMARK VINA RESULT:      -6.3      1.446      2.414
REMARK  4 active torsions:
REMARK  status: ('A' for Active; 'I' for Inactive)
REMARK    1  A    between atoms: C_6  and  C_1 
REMARK    2  A    between atoms: S_7  and  C_3 
REMARK    3  A    between atoms: C_17  and  S_7 
REMARK    4  A    between atoms: C_18  and  C_17 
ROOT
ATOM      1  C   UNL d   1     -49.297  13.266  23.098  0.00  0.00     0.087 A 
ATOM      2  N   UNL d   1     -50.040  13.348  23.454  0.00  0.00    -0.245 NA
ATOM      3  C   UNL d   1     -49.047  14.012  22.843  0.00  0.00     0.049 A 
ATOM      4  C   UNL d   1     -49.629  14.562  23.038  0.00  0.00     0.025 A 
ATOM      5  C   UNL d   1     -50.245  14.148  23.417  0.00  0.00     0.082 A 
ATOM      6  C   UNL d   1     -49.687  15.370  22.925  0.00  0.00     0.002 A 
ATOM      7  C   UNL d   1     -50.912  14.555  23.679  0.00  0.00     0.019 A 
ATOM      8  C   UNL d   1     -50.356  15.777  23.188  0.00  0.00     0.000 A 
ATOM      9  C   UNL d   1     -50.965  15.369  23.563  0.00  0.00     0.002 A 
ENDROOT
BRANCH   1  10
ATOM     10  C   UNL d   1     -48.918  12.549  23.033  0.00  0.00     0.018 A 
ATOM     11  C   UNL d   1     -48.529  12.227  23.697  0.00  0.00     0.004 A 
ATOM     12  C   UNL d   1     -48.145  11.501  23.630  0.00  0.00     0.030 A 
ATOM     13  C   UNL d   1     -48.143  11.092  22.912  0.00  0.00     0.140 A 
ATOM     14  C   UNL d   1     -48.528  11.410  22.249  0.00  0.00     0.030 A 
ATOM     15  F   UNL d   1     -47.757  10.358  22.838  0.00  0.00    -0.204 F 
ATOM     16  C   UNL d   1     -48.912  12.136  22.316  0.00  0.00     0.004 A 
ENDBRANCH   1  10
BRANCH   3  17
ATOM     17  S   UNL d   1     -48.338  14.180  22.459  0.00  0.00    -0.083 SA
BRANCH  17  18
ATOM     18  C   UNL d   1     -47.796  14.708  22.820  0.00  0.00     0.058 C 
BRANCH  18  19
ATOM     19  C   UNL d   1     -47.103  14.914  22.405  0.00  0.00     0.129 C 
ATOM     20  N   UNL d   1     -46.383  14.817  22.774  0.00  0.00    -0.146 N 
ENDBRANCH  18  19
ENDBRANCH  17  18
ENDBRANCH   3  17
TORSDOF 4
ENDMDL
MODEL 7
REMARK VINA RESULT:      -5.7      8.948     10.160
REMARK  4 active torsions:
REMARK  status: ('A' for Active; 'I' for Inactive)
REMARK    1  A    between atoms: C_6  and  C_1 
REMARK    2  A    between atoms: S_7  and  C_3 
REMARK    3  A    between atoms: C_17  and  S_7 
REMARK    4  A    between atoms: C_18  and  C_17 
ROOT
ATOM      1  C   UNL d   1     -39.534  14.444  18.681  0.00  0.00     0.087 A 
ATOM      2  N   UNL d   1     -39.479  14.220  19.476  0.00  0.00    -0.245 NA
ATOM      3  C   UNL d   1     -40.035  15.101  18.630  0.00  0.00     0.049 A 
ATOM      4  C   UNL d   1     -40.295  15.289  19.388  0.00  0.00     0.025 A 
ATOM      5  C   UNL d   1     -39.950  14.742  19.913  0.00  0.00     0.082 A 
ATOM      6  C   UNL d   1     -40.791  15.873  19.674  0.00  0.00     0.002 A 
ATOM      7  C   UNL d   1     -40.109  14.791  20.720  0.00  0.00     0.019 A 
ATOM      8  C   UNL d   1     -40.950  15.921  20.483  0.00  0.00     0.000 A 
ATOM      9  C   UNL d   1     -40.609  15.382  21.002  0.00  0.00     0.002 A 
ENDROOT
BRANCH   1  10
ATOM     10  C   UNL d   1     -39.141  14.053  18.086  0.00  0.00     0.018 A 
ATOM     11  C   UNL d   1     -39.353  13.269  17.898  0.00  0.00     0.004 A 
ATOM     12  C   UNL d   1     -38.954  12.873  17.295  0.00  0.00     0.030 A 
ATOM     13  C   UNL d   1     -38.346  13.247  16.878  0.00  0.00     0.140 A 
ATOM     14  C   UNL d   1     -38.132  14.027  17.063  0.00  0.00     0.030 A 
ATOM     15  F   UNL d   1     -37.940  12.853  16.269  0.00  0.00    -0.204 F 
ATOM     16  C   UNL d   1     -38.531  14.423  17.666  0.00  0.00     0.004 A 
ENDBRANCH   1  10
BRANCH   3  17
ATOM     17  S   UNL d   1     -40.241  15.500  17.939  0.00  0.00    -0.083 SA
BRANCH  17  18
ATOM     18  C   UNL d   1     -41.038  15.483  17.682  0.00  0.00     0.058 C 
BRANCH  18  19
ATOM     19  C   UNL d   1     -41.249  15.921  17.005  0.00  0.00     0.129 C 
ATOM     20  N   UNL d   1     -41.765  15.588  16.469  0.00  0.00    -0.146 N 
ENDBRANCH  18  19
ENDBRANCH  17  18
ENDBRANCH   3  17
TORSDOF 4
ENDMDL
MODEL 8
REMARK VINA RESULT:      -5.6      8.927      9.931
REMARK  4 active torsions:
REMARK  status: ('A' for Active; 'I' for Inactive)
REMARK    1  A    between atoms: C_6  and  C_1 
REMARK    2  A    between atoms: S_7  and  C_3 
REMARK    3  A    between atoms: C_17  and  S_7 
REMARK    4  A    between atoms: C_18  and  C_17 
ROOT
ATOM      1  C   UNL d   1     -40.264  15.137  19.084  0.00  0.00     0.087 A 
ATOM      2  N   UNL d   1     -40.917  15.580  18.831  0.00  0.00    -0.245 NA
ATOM      3  C   UNL d   1     -39.860  14.865  18.415  0.00  0.00     0.049 A 
ATOM      4  C   UNL d   1     -40.256  15.134  17.744  0.00  0.00     0.025 A 
ATOM      5  C   UNL d   1     -40.911  15.577  18.003  0.00  0.00     0.082 A 
ATOM      6  C   UNL d   1     -40.115  15.040  16.944  0.00  0.00     0.002 A 
ATOM      7  C   UNL d   1     -41.418  15.922  17.452  0.00  0.00     0.019 A 
ATOM      8  C   UNL d   1     -40.623  15.385  16.392  0.00  0.00     0.000 A 
ATOM      9  C   UNL d   1     -41.272  15.824  16.647  0.00  0.00     0.002 A 
ENDROOT
BRANCH   1  10
ATOM     10  C   UNL d   1     -40.092  15.019  19.870  0.00  0.00     0.018 A 
ATOM     11  C   UNL d   1     -40.516  14.447  20.303  0.00  0.00     0.004 A 
ATOM     12  C   UNL d   1     -40.340  14.329  21.100  0.00  0.00     0.030 A 
ATOM     13  C   UNL d   1     -39.748  14.772  21.470  0.00  0.00     0.140 A 
ATOM     14  C   UNL d   1     -39.324  15.342  21.040  0.00  0.00     0.030 A 
ATOM     15  F   UNL d   1     -39.566  14.657  22.273  0.00  0.00    -0.204 F 
ATOM     16  C   UNL d   1     -39.500  15.460  20.244  0.00  0.00     0.004 A 
ENDBRANCH   1  10
BRANCH   3  17
ATOM     17  S   UNL d   1     -39.178  14.403  18.417  0.00  0.00    -0.083 SA
BRANCH  17  18
ATOM     18  C   UNL d   1     -39.187  13.663  18.024  0.00  0.00     0.058 C 
BRANCH  18  19
ATOM     19  C   UNL d   1     -38.490  13.207  18.015  0.00  0.00     0.129 C 
ATOM     20  N   UNL d   1     -38.534  12.430  17.772  0.00  0.00    -0.146 N 
ENDBRANCH  18  19
ENDBRANCH  17  18
ENDBRANCH   3  17
TORSDOF 4
ENDMDL
MODEL 9
REMARK VINA RESULT:      -5.4      9.559     10.472
REMARK  4 active torsions:
REMARK  status: ('A' for Active; 'I' for Inactive)
REMARK    1  A    between atoms: C_6  and  C_1 
REMARK    2  A    between atoms: S_7  and  C_3 
REMARK    3  A    between atoms: C_17  and  S_7 
REMARK    4  A    between atoms: C_18  and  C_17 
ROOT
ATOM      1  C   UNL d   1     -39.704  14.688  19.149  0.00  0.00     0.087 A 
ATOM      2  N   UNL d   1     -40.038  14.855  19.889  0.00  0.00    -0.245 NA
ATOM      3  C   UNL d   1     -39.035  14.215  19.268  0.00  0.00     0.049 A 
ATOM      4  C   UNL d   1     -38.948  14.085  20.077  0.00  0.00     0.025 A 
ATOM      5  C   UNL d   1     -39.570  14.483  20.461  0.00  0.00     0.082 A 
ATOM      6  C   UNL d   1     -38.397  13.667  20.514  0.00  0.00     0.002 A 
ATOM      7  C   UNL d   1     -39.631  14.455  21.283  0.00  0.00     0.019 A 
ATOM      8  C   UNL d   1     -38.459  13.639  21.337  0.00  0.00     0.000 A 
ATOM      9  C   UNL d   1     -39.073  14.032  21.718  0.00  0.00     0.002 A 
ENDROOT
BRANCH   1  10
ATOM     10  C   UNL d   1     -40.018  14.965  18.453  0.00  0.00     0.018 A 
ATOM     11  C   UNL d   1     -39.691  15.642  18.093  0.00  0.00     0.004 A 
ATOM     12  C   UNL d   1     -40.010  15.922  17.387  0.00  0.00     0.030 A 
ATOM     13  C   UNL d   1     -40.652  15.537  17.034  0.00  0.00     0.140 A 
ATOM     14  C   UNL d   1     -40.980  14.863  17.390  0.00  0.00     0.030 A 
ATOM     15  F   UNL d   1     -40.979  15.814  16.322  0.00  0.00    -0.204 F 
ATOM     16  C   UNL d   1     -40.661  14.583  18.096  0.00  0.00     0.004 A 
ENDBRANCH   1  10
BRANCH   3  17
ATOM     17  S   UNL d   1     -38.539  13.923  18.678  0.00  0.00    -0.083 SA
BRANCH  17  18
ATOM     18  C   UNL d   1     -38.447  13.094  18.599  0.00  0.00     0.058 C 
BRANCH  18  19
ATOM     19  C   UNL d   1     -37.940  12.804  18.005  0.00  0.00     0.129 C 
ATOM     20  N   UNL d   1     -38.080  12.060  17.701  0.00  0.00    -0.146 N 
ENDBRANCH  18  19
ENDBRANCH  17  18
ENDBRANCH   3  17
TORSDOF 4
ENDMDL
