MODEL 1
REMARK VINA RESULT:      -9.6      0.000      0.000
REMARK  1 active torsions:
REMARK  status: ('A' for Active; 'I' for Inactive)
REMARK    1  A    between atoms: C_6  and  C_2 
ROOT
ATOM      1  C   UNL d   1      53.365  32.290  53.886  0.00  0.00     0.018 A 
ATOM      2  C   UNL d   1      52.818  32.839  53.589  0.00  0.00     0.002 A 
ATOM      3  C   UNL d   1      52.893  33.643  53.780  0.00  0.00     0.000 A 
ATOM      4  C   UNL d   1      53.975  32.540  54.364  0.00  0.00     0.002 A 
ATOM      5  C   UNL d   1      53.523  33.901  54.274  0.00  0.00     0.000 A 
ATOM      6  C   UNL d   1      54.062  33.349  54.564  0.00  0.00     0.000 A 
ATOM      7  C   UNL d   1      52.350  34.182  53.484  0.00  0.00     0.000 A 
ATOM      8  C   UNL d   1      53.593  34.692  54.458  0.00  0.00     0.000 A 
ATOM      9  C   UNL d   1      52.425  34.985  53.674  0.00  0.00     0.000 A 
ATOM     10  C   UNL d   1      53.035  35.235  54.152  0.00  0.00     0.000 A 
ENDROOT
BRANCH   1  11
ATOM     11  C   UNL d   1      53.289  31.490  53.695  0.00  0.00     0.090 A 
ATOM     12  N   UNL d   1      53.467  30.833  54.108  0.00  0.00    -0.219 NA
ATOM     13  C   UNL d   1      53.275  30.177  53.646  0.00  0.00     0.215 A 
ATOM     14  S   UNL d   1      52.972  30.473  52.933  0.00  0.00    -0.045 SA
ATOM     15  N   UNL d   1      53.369  29.363  53.856  0.00  0.00    -0.120 N 
ATOM     16  C   UNL d   1      52.984  31.269  52.973  0.00  0.00     0.058 A 
ENDBRANCH   1  11
TORSDOF 1
ENDMDL
MODEL 2
REMARK VINA RESULT:      -9.5      2.220      3.170
REMARK  1 active torsions:
REMARK  status: ('A' for Active; 'I' for Inactive)
REMARK    1  A    between atoms: C_6  and  C_2 
ROOT
ATOM      1  C   UNL d   1      52.277  33.539  53.386  0.00  0.00     0.018 A 
ATOM      2  C   UNL d   1      52.676  33.994  53.952  0.00  0.00     0.002 A 
ATOM      3  C   UNL d   1      53.357  33.695  54.320  0.00  0.00     0.000 A 
ATOM      4  C   UNL d   1      52.553  32.798  53.191  0.00  0.00     0.002 A 
ATOM      5  C   UNL d   1      53.642  32.930  54.118  0.00  0.00     0.000 A 
ATOM      6  C   UNL d   1      53.239  32.484  53.555  0.00  0.00     0.000 A 
ATOM      7  C   UNL d   1      53.749  34.149  54.880  0.00  0.00     0.000 A 
ATOM      8  C   UNL d   1      54.311  32.639  54.482  0.00  0.00     0.000 A 
ATOM      9  C   UNL d   1      54.429  33.850  55.247  0.00  0.00     0.000 A 
ATOM     10  C   UNL d   1      54.705  33.109  55.052  0.00  0.00     0.000 A 
ENDROOT
BRANCH   1  11
ATOM     11  C   UNL d   1      51.600  33.838  53.021  0.00  0.00     0.090 A 
ATOM     12  N   UNL d   1      50.882  34.021  53.316  0.00  0.00    -0.219 NA
ATOM     13  C   UNL d   1      50.413  34.301  52.698  0.00  0.00     0.215 A 
ATOM     14  S   UNL d   1      50.884  34.278  52.016  0.00  0.00    -0.045 SA
ATOM     15  N   UNL d   1      49.610  34.561  52.748  0.00  0.00    -0.120 N 
ATOM     16  C   UNL d   1      51.601  33.996  52.222  0.00  0.00     0.058 A 
ENDBRANCH   1  11
TORSDOF 1
ENDMDL
MODEL 3
REMARK VINA RESULT:      -9.5      1.956      3.565
REMARK  1 active torsions:
REMARK  status: ('A' for Active; 'I' for Inactive)
REMARK    1  A    between atoms: C_6  and  C_2 
ROOT
ATOM      1  C   UNL d   1      53.266  32.981  53.805  0.00  0.00     0.018 A 
ATOM      2  C   UNL d   1      52.781  32.469  53.369  0.00  0.00     0.002 A 
ATOM      3  C   UNL d   1      52.963  31.661  53.327  0.00  0.00     0.000 A 
ATOM      4  C   UNL d   1      53.921  32.691  54.192  0.00  0.00     0.002 A 
ATOM      5  C   UNL d   1      53.640  31.362  53.727  0.00  0.00     0.000 A 
ATOM      6  C   UNL d   1      54.116  31.878  54.158  0.00  0.00     0.000 A 
ATOM      7  C   UNL d   1      52.480  31.158  52.894  0.00  0.00     0.000 A 
ATOM      8  C   UNL d   1      53.816  30.567  53.683  0.00  0.00     0.000 A 
ATOM      9  C   UNL d   1      52.663  30.351  52.853  0.00  0.00     0.000 A 
ATOM     10  C   UNL d   1      53.318  30.060  53.240  0.00  0.00     0.000 A 
ENDROOT
BRANCH   1  11
ATOM     11  C   UNL d   1      53.082  33.785  53.845  0.00  0.00     0.090 A 
ATOM     12  N   UNL d   1      53.182  34.318  54.430  0.00  0.00    -0.219 NA
ATOM     13  C   UNL d   1      52.897  35.046  54.167  0.00  0.00     0.215 A 
ATOM     14  S   UNL d   1      52.621  34.925  53.395  0.00  0.00    -0.045 SA
ATOM     15  N   UNL d   1      52.888  35.773  54.599  0.00  0.00    -0.120 N 
ATOM     16  C   UNL d   1      52.737  34.159  53.210  0.00  0.00     0.058 A 
ENDBRANCH   1  11
TORSDOF 1
ENDMDL
MODEL 4
REMARK VINA RESULT:      -8.7      2.115      2.885
REMARK  1 active torsions:
REMARK  status: ('A' for Active; 'I' for Inactive)
REMARK    1  A    between atoms: C_6  and  C_2 
ROOT
ATOM      1  C   UNL d   1      53.034  33.947  53.774  0.00  0.00     0.018 A 
ATOM      2  C   UNL d   1      52.353  33.475  53.815  0.00  0.00     0.002 A 
ATOM      3  C   UNL d   1      51.676  33.687  53.385  0.00  0.00     0.000 A 
ATOM      4  C   UNL d   1      53.039  34.616  53.312  0.00  0.00     0.002 A 
ATOM      5  C   UNL d   1      51.681  34.379  52.907  0.00  0.00     0.000 A 
ATOM      6  C   UNL d   1      52.362  34.841  52.872  0.00  0.00     0.000 A 
ATOM      7  C   UNL d   1      51.005  33.217  53.428  0.00  0.00     0.000 A 
ATOM      8  C   UNL d   1      51.014  34.583  52.485  0.00  0.00     0.000 A 
ATOM      9  C   UNL d   1      50.328  33.429  52.998  0.00  0.00     0.000 A 
ATOM     10  C   UNL d   1      50.333  34.099  52.535  0.00  0.00     0.000 A 
ENDROOT
BRANCH   1  11
ATOM     11  C   UNL d   1      53.707  33.734  54.204  0.00  0.00     0.090 A 
ATOM     12  N   UNL d   1      54.042  34.061  54.848  0.00  0.00    -0.219 NA
ATOM     13  C   UNL d   1      54.710  33.618  55.044  0.00  0.00     0.215 A 
ATOM     14  S   UNL d   1      54.759  33.008  54.485  0.00  0.00    -0.045 SA
ATOM     15  N   UNL d   1      55.241  33.757  55.688  0.00  0.00    -0.120 N 
ATOM     16  C   UNL d   1      54.147  33.087  53.981  0.00  0.00     0.058 A 
ENDBRANCH   1  11
TORSDOF 1
ENDMDL
MODEL 5
REMARK VINA RESULT:      -8.0      1.857      2.714
REMARK  1 active torsions:
REMARK  status: ('A' for Active; 'I' for Inactive)
REMARK    1  A    between atoms: C_6  and  C_2 
ROOT
ATOM      1  C   UNL d   1      52.909  33.247  53.667  0.00  0.00     0.018 A 
ATOM      2  C   UNL d   1      52.513  33.963  53.532  0.00  0.00     0.002 A 
ATOM      3  C   UNL d   1      51.780  33.964  53.143  0.00  0.00     0.000 A 
ATOM      4  C   UNL d   1      52.579  32.546  53.419  0.00  0.00     0.002 A 
ATOM      5  C   UNL d   1      51.439  33.239  52.887  0.00  0.00     0.000 A 
ATOM      6  C   UNL d   1      51.840  32.532  53.026  0.00  0.00     0.000 A 
ATOM      7  C   UNL d   1      51.392  34.674  53.011  0.00  0.00     0.000 A 
ATOM      8  C   UNL d   1      50.719  33.243  52.505  0.00  0.00     0.000 A 
ATOM      9  C   UNL d   1      50.659  34.675  52.622  0.00  0.00     0.000 A 
ATOM     10  C   UNL d   1      50.329  33.973  52.374  0.00  0.00     0.000 A 
ENDROOT
BRANCH   1  11
ATOM     11  C   UNL d   1      53.639  33.249  54.055  0.00  0.00     0.090 A 
ATOM     12  N   UNL d   1      53.827  33.377  54.818  0.00  0.00    -0.219 NA
ATOM     13  C   UNL d   1      54.645  33.310  54.897  0.00  0.00     0.215 A 
ATOM     14  S   UNL d   1      54.940  33.136  54.142  0.00  0.00    -0.045 SA
ATOM     15  N   UNL d   1      55.096  33.402  55.606  0.00  0.00    -0.120 N 
ATOM     16  C   UNL d   1      54.323  33.101  53.639  0.00  0.00     0.058 A 
ENDBRANCH   1  11
TORSDOF 1
ENDMDL
MODEL 6
REMARK VINA RESULT:      -7.3      3.013      3.919
REMARK  1 active torsions:
REMARK  status: ('A' for Active; 'I' for Inactive)
REMARK    1  A    between atoms: C_6  and  C_2 
ROOT
ATOM      1  C   UNL d   1      50.930  34.094  52.889  0.00  0.00     0.018 A 
ATOM      2  C   UNL d   1      51.531  34.641  53.057  0.00  0.00     0.002 A 
ATOM      3  C   UNL d   1      52.215  34.394  53.455  0.00  0.00     0.000 A 
ATOM      4  C   UNL d   1      51.012  33.316  53.115  0.00  0.00     0.002 A 
ATOM      5  C   UNL d   1      52.300  33.591  53.688  0.00  0.00     0.000 A 
ATOM      6  C   UNL d   1      51.699  33.055  53.517  0.00  0.00     0.000 A 
ATOM      7  C   UNL d   1      52.807  34.939  53.619  0.00  0.00     0.000 A 
ATOM      8  C   UNL d   1      52.975  33.353  54.080  0.00  0.00     0.000 A 
ATOM      9  C   UNL d   1      53.491  34.692  54.017  0.00  0.00     0.000 A 
ATOM     10  C   UNL d   1      53.573  33.915  54.243  0.00  0.00     0.000 A 
ENDROOT
BRANCH   1  11
ATOM     11  C   UNL d   1      50.249  34.341  52.492  0.00  0.00     0.090 A 
ATOM     12  N   UNL d   1      50.020  34.247  51.734  0.00  0.00    -0.219 NA
ATOM     13  C   UNL d   1      49.285  34.609  51.641  0.00  0.00     0.215 A 
ATOM     14  S   UNL d   1      49.083  34.925  52.380  0.00  0.00    -0.045 SA
ATOM     15  N   UNL d   1      48.826  34.650  50.931  0.00  0.00    -0.120 N 
ATOM     16  C   UNL d   1      49.673  34.757  52.889  0.00  0.00     0.058 A 
ENDBRANCH   1  11
TORSDOF 1
ENDMDL
