MODEL 1
REMARK VINA RESULT:      36.6      0.000      0.000
REMARK  3 active torsions:
REMARK  status: ('A' for Active; 'I' for Inactive)
REMARK    1  A    between atoms: O_10  and  C_9 
REMARK    2  A    between atoms: C_13  and  O_10 
REMARK    3  A    between atoms: C_12  and  C_13 
ROOT
ATOM      1  C   UNL d   1      57.370  49.594  50.290  0.00  0.00     0.066 A 
ATOM      2  O   UNL d   1      56.108  49.522  50.726  0.00  0.00    -0.302 OA
ATOM      3  C   UNL d   1      56.873  49.565  49.630  0.00  0.00     0.222 A 
ATOM      4  C   UNL d   1      56.894  49.567  50.963  0.00  0.00     0.103 A 
ATOM      5  C   UNL d   1      58.184  49.641  50.372  0.00  0.00     0.030 A 
ATOM      6  C   UNL d   1      56.095  49.521  49.901  0.00  0.00     0.165 A 
ATOM      7  O   UNL d   1      57.121  49.579  48.840  0.00  0.00    -0.284 OA
ATOM      8  C   UNL d   1      57.233  49.587  51.708  0.00  0.00     0.027 A 
ATOM      9  C   UNL d   1      58.524  49.661  51.123  0.00  0.00     0.100 A 
ATOM     10  C   UNL d   1      58.044  49.633  51.794  0.00  0.00     0.027 A 
ENDROOT
BRANCH   9  11
ATOM     11  O   UNL d   1      59.349  49.708  51.203  0.00  0.00    -0.305 OA
BRANCH  11  12
ATOM     12  C   UNL d   1      59.762  49.113  51.595  0.00  0.00     0.122 C 
BRANCH  12  13
ATOM     13  C   UNL d   1      60.543  49.254  51.834  0.00  0.00     0.025 A 
ATOM     14  C   UNL d   1      60.687  49.545  52.595  0.00  0.00     0.004 A 
ATOM     15  C   UNL d   1      61.460  49.686  52.836  0.00  0.00     0.030 A 
ATOM     16  C   UNL d   1      62.092  49.535  52.315  0.00  0.00     0.140 A 
ATOM     17  C   UNL d   1      61.942  49.246  51.558  0.00  0.00     0.030 A 
ATOM     18  F   UNL d   1      62.865  49.679  52.562  0.00  0.00    -0.204 F 
ATOM     19  C   UNL d   1      61.169  49.105  51.317  0.00  0.00     0.004 A 
ENDBRANCH  12  13
ENDBRANCH  11  12
ENDBRANCH   9  11
TORSDOF 3
ENDMDL
MODEL 2
REMARK VINA RESULT:      37.5      1.235      1.472
REMARK  3 active torsions:
REMARK  status: ('A' for Active; 'I' for Inactive)
REMARK    1  A    between atoms: O_10  and  C_9 
REMARK    2  A    between atoms: C_13  and  O_10 
REMARK    3  A    between atoms: C_12  and  C_13 
ROOT
ATOM      1  C   UNL d   1      57.354  49.656  50.263  0.00  0.00     0.066 A 
ATOM      2  O   UNL d   1      56.165  49.626  50.877  0.00  0.00    -0.302 OA
ATOM      3  C   UNL d   1      56.765  49.643  49.682  0.00  0.00     0.222 A 
ATOM      4  C   UNL d   1      56.979  49.645  50.998  0.00  0.00     0.103 A 
ATOM      5  C   UNL d   1      58.171  49.676  50.227  0.00  0.00     0.030 A 
ATOM      6  C   UNL d   1      56.034  49.624  50.062  0.00  0.00     0.165 A 
ATOM      7  O   UNL d   1      56.897  49.648  48.865  0.00  0.00    -0.284 OA
ATOM      8  C   UNL d   1      57.422  49.655  51.687  0.00  0.00     0.027 A 
ATOM      9  C   UNL d   1      58.616  49.685  50.921  0.00  0.00     0.100 A 
ATOM     10  C   UNL d   1      58.238  49.674  51.654  0.00  0.00     0.027 A 
ENDROOT
BRANCH   9  11
ATOM     11  O   UNL d   1      59.445  49.705  50.881  0.00  0.00    -0.305 OA
BRANCH  11  12
ATOM     12  C   UNL d   1      59.896  49.226  51.377  0.00  0.00     0.122 C 
BRANCH  12  13
ATOM     13  C   UNL d   1      60.469  48.728  51.045  0.00  0.00     0.025 A 
ATOM     14  C   UNL d   1      60.902  48.989  50.390  0.00  0.00     0.004 A 
ATOM     15  C   UNL d   1      61.471  48.498  50.058  0.00  0.00     0.030 A 
ATOM     16  C   UNL d   1      61.608  47.743  50.381  0.00  0.00     0.140 A 
ATOM     17  C   UNL d   1      61.174  47.489  51.033  0.00  0.00     0.030 A 
ATOM     18  F   UNL d   1      62.180  47.255  50.044  0.00  0.00    -0.204 F 
ATOM     19  C   UNL d   1      60.605  47.979  51.365  0.00  0.00     0.004 A 
ENDBRANCH  12  13
ENDBRANCH  11  12
ENDBRANCH   9  11
TORSDOF 3
ENDMDL
