MODEL 1
REMARK VINA RESULT:      -4.4      0.000      0.000
REMARK  6 active torsions:
REMARK  status: ('A' for Active; 'I' for Inactive)
REMARK    1  A    between atoms: C_6  and  C_1 
REMARK    2  A    between atoms: C_9  and  N_3 
REMARK       I    between atoms: N_7  and  C_6 
REMARK    3  A    between atoms: C_8  and  N_7 
REMARK    4  A    between atoms: C_14  and  C_9 
REMARK    5  A    between atoms: O_21  and  C_12 
REMARK    6  A    between atoms: O_22  and  C_19 
ROOT
ATOM      1  C   UNL d   1     -41.499-122.912 -51.026  0.00  0.00     0.199 A 
ATOM      2  C   UNL d   1     -41.448-122.261 -51.540  0.00  0.00     0.211 A 
ATOM      3  N   UNL d   1     -41.238-122.544 -52.287  0.00  0.00    -0.190 N 
ATOM      4  N   UNL d   1     -41.321-123.592 -51.458  0.00  0.00    -0.122 NA
ATOM      5  N   UNL d   1     -41.159-123.363 -52.240  0.00  0.00    -0.058 NA
ATOM      6  N   UNL d   1     -41.583-121.470 -51.340  0.00  0.00    -0.125 N 
ENDROOT
BRANCH   1   7
ATOM      7  C   UNL d   1     -41.695-122.877 -50.227  0.00  0.00     0.302 C 
ATOM      8  N   UNL d   1     -41.918-123.568 -49.830  0.00  0.00    -0.205 NA
ATOM      9  O   UNL d   1     -41.668-122.158 -49.824  0.00  0.00    -0.263 OA
BRANCH   8  10
ATOM     10  C   UNL d   1     -42.115-123.535 -49.024  0.00  0.00     0.108 A 
ATOM     11  C   UNL d   1     -41.525-123.430 -48.458  0.00  0.00     0.033 A 
ATOM     12  C   UNL d   1     -41.721-123.398 -47.657  0.00  0.00     0.059 A 
ATOM     13 CL   UNL d   1     -41.124-123.292 -47.094  0.00  0.00    -0.082 Cl
ATOM     14  C   UNL d   1     -42.511-123.470 -47.420  0.00  0.00     0.013 A 
ATOM     15  C   UNL d   1     -43.108-123.576 -47.993  0.00  0.00     0.027 A 
ATOM     16  C   UNL d   1     -42.903-123.608 -48.794  0.00  0.00     0.112 A 
BRANCH  16  17
ATOM     17  O   UNL d   1     -43.494-123.713 -49.363  0.00  0.00    -0.327 OA
ATOM     18  C   UNL d   1     -44.280-123.798 -49.128  0.00  0.00     0.181 C 
ENDBRANCH  16  17
ENDBRANCH   8  10
ENDBRANCH   1   7
BRANCH   3  19
ATOM     19  C   UNL d   1     -41.125-122.093 -52.968  0.00  0.00     0.104 C 
BRANCH  19  20
ATOM     20  C   UNL d   1     -41.428-122.335 -53.692  0.00  0.00     0.021 A 
ATOM     21  C   UNL d   1     -42.030-121.910 -54.060  0.00  0.00     0.026 A 
ATOM     22  C   UNL d   1     -42.331-122.155 -54.783  0.00  0.00     0.094 A 
ATOM     23  C   UNL d   1     -42.031-122.834 -55.154  0.00  0.00     0.024 A 
ATOM     24  C   UNL d   1     -41.420-123.266 -54.780  0.00  0.00     0.002 A 
ATOM     25  C   UNL d   1     -41.125-123.015 -54.058  0.00  0.00     0.002 A 
BRANCH  22  26
ATOM     26  O   UNL d   1     -42.934-121.724 -55.145  0.00  0.00    -0.328 OA
ATOM     27  C   UNL d   1     -43.097-121.830 -55.946  0.00  0.00     0.181 C 
ENDBRANCH  22  26
ENDBRANCH  19  20
ENDBRANCH   3  19
TORSDOF 6
ENDMDL
MODEL 2
REMARK VINA RESULT:      -3.3      0.790      1.111
REMARK  6 active torsions:
REMARK  status: ('A' for Active; 'I' for Inactive)
REMARK    1  A    between atoms: C_6  and  C_1 
REMARK    2  A    between atoms: C_9  and  N_3 
REMARK       I    between atoms: N_7  and  C_6 
REMARK    3  A    between atoms: C_8  and  N_7 
REMARK    4  A    between atoms: C_14  and  C_9 
REMARK    5  A    between atoms: O_21  and  C_12 
REMARK    6  A    between atoms: O_22  and  C_19 
ROOT
ATOM      1  C   UNL d   1     -41.615-122.403 -51.595  0.00  0.00     0.199 A 
ATOM      2  C   UNL d   1     -41.357-122.946 -52.169  0.00  0.00     0.211 A 
ATOM      3  N   UNL d   1     -41.374-122.567 -52.902  0.00  0.00    -0.190 N 
ATOM      4  N   UNL d   1     -41.788-121.692 -51.977  0.00  0.00    -0.122 NA
ATOM      5  N   UNL d   1     -41.639-121.796 -52.788  0.00  0.00    -0.058 NA
ATOM      6  N   UNL d   1     -41.125-123.728 -52.030  0.00  0.00    -0.125 N 
ENDROOT
BRANCH   1   7
ATOM      7  C   UNL d   1     -41.682-122.554 -50.788  0.00  0.00     0.302 C 
ATOM      8  N   UNL d   1     -42.292-123.042 -50.514  0.00  0.00    -0.205 NA
ATOM      9  O   UNL d   1     -41.145-122.222 -50.257  0.00  0.00    -0.263 OA
BRANCH   8  10
ATOM     10  C   UNL d   1     -42.362-123.196 -49.700  0.00  0.00     0.108 A 
ATOM     11  C   UNL d   1     -41.711-123.096 -49.204  0.00  0.00     0.033 A 
ATOM     12  C   UNL d   1     -41.781-123.249 -48.395  0.00  0.00     0.059 A 
ATOM     13 CL   UNL d   1     -41.124-123.147 -47.902  0.00  0.00    -0.082 Cl
ATOM     14  C   UNL d   1     -42.504-123.503 -48.082  0.00  0.00     0.013 A 
ATOM     15  C   UNL d   1     -43.162-123.603 -48.585  0.00  0.00     0.027 A 
ATOM     16  C   UNL d   1     -43.083-123.448 -49.394  0.00  0.00     0.112 A 
BRANCH  16  17
ATOM     17  O   UNL d   1     -43.736-123.547 -49.894  0.00  0.00    -0.327 OA
ATOM     18  C   UNL d   1     -44.451-123.817 -49.586  0.00  0.00     0.181 C 
ENDBRANCH  16  17
ENDBRANCH   8  10
ENDBRANCH   1   7
BRANCH   3  19
ATOM     19  C   UNL d   1     -41.164-122.896 -53.629  0.00  0.00     0.104 C 
BRANCH  19  20
ATOM     20  C   UNL d   1     -41.590-122.727 -54.310  0.00  0.00     0.021 A 
ATOM     21  C   UNL d   1     -41.375-122.098 -54.796  0.00  0.00     0.026 A 
ATOM     22  C   UNL d   1     -41.803-121.932 -55.476  0.00  0.00     0.094 A 
ATOM     23  C   UNL d   1     -42.460-122.396 -55.682  0.00  0.00     0.024 A 
ATOM     24  C   UNL d   1     -42.679-123.034 -55.188  0.00  0.00     0.002 A 
ATOM     25  C   UNL d   1     -42.246-123.194 -54.511  0.00  0.00     0.002 A 
BRANCH  22  26
ATOM     26  O   UNL d   1     -41.581-121.301 -55.958  0.00  0.00    -0.328 OA
ATOM     27  C   UNL d   1     -41.922-121.206 -56.703  0.00  0.00     0.181 C 
ENDBRANCH  22  26
ENDBRANCH  19  20
ENDBRANCH   3  19
TORSDOF 6
ENDMDL
MODEL 3
REMARK VINA RESULT:      -1.6      1.928      5.664
REMARK  6 active torsions:
REMARK  status: ('A' for Active; 'I' for Inactive)
REMARK    1  A    between atoms: C_6  and  C_1 
REMARK    2  A    between atoms: C_9  and  N_3 
REMARK       I    between atoms: N_7  and  C_6 
REMARK    3  A    between atoms: C_8  and  N_7 
REMARK    4  A    between atoms: C_14  and  C_9 
REMARK    5  A    between atoms: O_21  and  C_12 
REMARK    6  A    between atoms: O_22  and  C_19 
ROOT
ATOM      1  C   UNL d   1     -41.923-122.649 -51.785  0.00  0.00     0.199 A 
ATOM      2  C   UNL d   1     -41.578-123.125 -51.197  0.00  0.00     0.211 A 
ATOM      3  N   UNL d   1     -41.769-122.800 -50.462  0.00  0.00    -0.190 N 
ATOM      4  N   UNL d   1     -42.326-122.033 -51.409  0.00  0.00    -0.122 NA
ATOM      5  N   UNL d   1     -42.229-122.128 -50.589  0.00  0.00    -0.058 NA
ATOM      6  N   UNL d   1     -41.123-123.804 -51.326  0.00  0.00    -0.125 N 
ENDROOT
BRANCH   1   7
ATOM      7  C   UNL d   1     -41.869-122.775 -52.596  0.00  0.00     0.302 C 
ATOM      8  N   UNL d   1     -41.843-122.126 -53.109  0.00  0.00    -0.205 NA
ATOM      9  O   UNL d   1     -41.841-123.543 -52.897  0.00  0.00    -0.263 OA
BRANCH   8  10
ATOM     10  C   UNL d   1     -41.788-122.251 -53.929  0.00  0.00     0.108 A 
ATOM     11  C   UNL d   1     -41.507-122.969 -54.220  0.00  0.00     0.033 A 
ATOM     12  C   UNL d   1     -41.453-123.093 -55.035  0.00  0.00     0.059 A 
ATOM     13 CL   UNL d   1     -41.170-123.816 -55.320  0.00  0.00    -0.082 Cl
ATOM     14  C   UNL d   1     -41.681-122.496 -55.560  0.00  0.00     0.013 A 
ATOM     15  C   UNL d   1     -41.965-121.770 -55.266  0.00  0.00     0.027 A 
ATOM     16  C   UNL d   1     -42.016-121.654 -54.448  0.00  0.00     0.112 A 
BRANCH  16  17
ATOM     17  O   UNL d   1     -42.299-120.933 -54.155  0.00  0.00    -0.327 OA
ATOM     18  C   UNL d   1     -42.282-120.261 -54.632  0.00  0.00     0.181 C 
ENDBRANCH  16  17
ENDBRANCH   8  10
ENDBRANCH   1   7
BRANCH   3  19
ATOM     19  C   UNL d   1     -41.544-123.091 -49.724  0.00  0.00     0.104 C 
BRANCH  19  20
ATOM     20  C   UNL d   1     -42.103-123.261 -49.147  0.00  0.00     0.021 A 
ATOM     21  C   UNL d   1     -41.963-123.077 -48.357  0.00  0.00     0.026 A 
ATOM     22  C   UNL d   1     -42.524-123.249 -47.783  0.00  0.00     0.094 A 
ATOM     23  C   UNL d   1     -43.240-123.612 -47.993  0.00  0.00     0.024 A 
ATOM     24  C   UNL d   1     -43.383-123.799 -48.795  0.00  0.00     0.002 A 
ATOM     25  C   UNL d   1     -42.817-123.624 -49.363  0.00  0.00     0.002 A 
BRANCH  22  26
ATOM     26  O   UNL d   1     -42.375-123.060 -46.994  0.00  0.00    -0.328 OA
ATOM     27  C   UNL d   1     -41.600-123.017 -46.716  0.00  0.00     0.181 C 
ENDBRANCH  22  26
ENDBRANCH  19  20
ENDBRANCH   3  19
TORSDOF 6
ENDMDL
