MODEL 1
REMARK VINA RESULT:      -8.4      0.000      0.000
REMARK  3 active torsions:
REMARK  status: ('A' for Active; 'I' for Inactive)
REMARK    1  A    between atoms: S_8  and  C_2 
REMARK    2  A    between atoms: C_13  and  S_8 
REMARK    3  A    between atoms: C_15  and  C_13 
ROOT
ATOM      1  C   UNL d   1      53.360  32.067  53.706  0.00  0.00     0.104 A 
ATOM      2  C   UNL d   1      52.526  33.459  53.421  0.00  0.00     0.182 A 
ATOM      3  N   UNL d   1      53.176  33.463  53.930  0.00  0.00    -0.251 N 
ATOM      4  C   UNL d   1      53.594  32.756  54.070  0.00  0.00     0.274 A 
ATOM      5  C   UNL d   1      52.710  32.062  53.198  0.00  0.00     0.095 A 
ATOM      6  N   UNL d   1      52.294  32.748  53.054  0.00  0.00    -0.222 NA
ATOM      7  S   UNL d   1      53.659  31.301  53.739  0.00  0.00    -0.081 SA
ATOM      8  C   UNL d   1      52.608  31.294  52.917  0.00  0.00     0.026 A 
ATOM      9  O   UNL d   1      54.244  32.760  54.578  0.00  0.00    -0.266 OA
ATOM     10  C   UNL d   1      53.190  30.826  53.248  0.00  0.00     0.031 A 
ATOM     11  C   UNL d   1      53.412  34.169  54.299  0.00  0.00     0.104 C 
ATOM     12  C   UNL d   1      53.285  30.018  53.111  0.00  0.00     0.007 C 
ENDROOT
BRANCH   2  13
ATOM     13  S   UNL d   1      52.101  34.161  53.274  0.00  0.00    -0.050 SA
BRANCH  13  14
ATOM     14  C   UNL d   1      51.474  34.152  52.736  0.00  0.00     0.032 C 
ATOM     15  C   UNL d   1      51.624  34.222  51.928  0.00  0.00     0.007 C 
BRANCH  14  16
ATOM     16  C   UNL d   1      50.703  34.074  53.009  0.00  0.00     0.007 C 
ATOM     17  C   UNL d   1      50.097  34.511  52.657  0.00  0.00     0.001 C 
ENDBRANCH  14  16
ENDBRANCH  13  14
ENDBRANCH   2  13
TORSDOF 3
ENDMDL
MODEL 2
REMARK VINA RESULT:      -8.4      0.988      2.089
REMARK  3 active torsions:
REMARK  status: ('A' for Active; 'I' for Inactive)
REMARK    1  A    between atoms: S_8  and  C_2 
REMARK    2  A    between atoms: C_13  and  S_8 
REMARK    3  A    between atoms: C_15  and  C_13 
ROOT
ATOM      1  C   UNL d   1      53.828  32.761  54.128  0.00  0.00     0.104 A 
ATOM      2  C   UNL d   1      52.399  32.940  53.329  0.00  0.00     0.182 A 
ATOM      3  N   UNL d   1      52.817  32.232  53.272  0.00  0.00    -0.251 N 
ATOM      4  C   UNL d   1      53.540  32.146  53.678  0.00  0.00     0.274 A 
ATOM      5  C   UNL d   1      53.409  33.469  54.185  0.00  0.00     0.095 A 
ATOM      6  N   UNL d   1      52.702  33.564  53.792  0.00  0.00    -0.222 NA
ATOM      7  S   UNL d   1      54.511  32.834  54.581  0.00  0.00    -0.081 SA
ATOM      8  C   UNL d   1      53.833  33.980  54.673  0.00  0.00     0.026 A 
ATOM      9  O   UNL d   1      53.958  31.438  53.621  0.00  0.00    -0.266 OA
ATOM     10  C   UNL d   1      54.510  33.592  54.917  0.00  0.00     0.031 A 
ATOM     11  C   UNL d   1      52.520  31.607  52.811  0.00  0.00     0.104 C 
ATOM     12  C   UNL d   1      55.088  33.910  55.413  0.00  0.00     0.007 C 
ENDROOT
BRANCH   2  13
ATOM     13  S   UNL d   1      51.675  33.036  52.926  0.00  0.00    -0.050 SA
BRANCH  13  14
ATOM     14  C   UNL d   1      51.407  33.796  52.745  0.00  0.00     0.032 C 
ATOM     15  C   UNL d   1      51.790  34.243  52.167  0.00  0.00     0.007 C 
BRANCH  14  16
ATOM     16  C   UNL d   1      50.757  34.106  53.143  0.00  0.00     0.007 C 
ATOM     17  C   UNL d   1      50.151  34.472  52.717  0.00  0.00     0.001 C 
ENDBRANCH  14  16
ENDBRANCH  13  14
ENDBRANCH   2  13
TORSDOF 3
ENDMDL
MODEL 3
REMARK VINA RESULT:      -8.2      1.331      3.355
REMARK  3 active torsions:
REMARK  status: ('A' for Active; 'I' for Inactive)
REMARK    1  A    between atoms: S_8  and  C_2 
REMARK    2  A    between atoms: C_13  and  S_8 
REMARK    3  A    between atoms: C_15  and  C_13 
ROOT
ATOM      1  C   UNL d   1      52.123  32.911  52.978  0.00  0.00     0.104 A 
ATOM      2  C   UNL d   1      53.603  32.784  53.690  0.00  0.00     0.182 A 
ATOM      3  N   UNL d   1      53.279  32.138  53.294  0.00  0.00    -0.251 N 
ATOM      4  C   UNL d   1      52.530  32.207  52.935  0.00  0.00     0.274 A 
ATOM      5  C   UNL d   1      52.447  33.557  53.375  0.00  0.00     0.095 A 
ATOM      6  N   UNL d   1      53.178  33.501  53.729  0.00  0.00    -0.222 NA
ATOM      7  S   UNL d   1      51.389  33.138  52.683  0.00  0.00    -0.081 SA
ATOM      8  C   UNL d   1      51.913  34.183  53.325  0.00  0.00     0.026 A 
ATOM      9  O   UNL d   1      52.206  31.561  52.538  0.00  0.00    -0.266 OA
ATOM     10  C   UNL d   1      51.264  33.927  52.900  0.00  0.00     0.031 A 
ATOM     11  C   UNL d   1      53.698  31.421  53.252  0.00  0.00     0.104 C 
ATOM     12  C   UNL d   1      50.600  34.386  52.724  0.00  0.00     0.007 C 
ENDROOT
BRANCH   2  13
ATOM     13  S   UNL d   1      54.351  32.725  54.053  0.00  0.00    -0.050 SA
BRANCH  13  14
ATOM     14  C   UNL d   1      54.496  33.130  54.758  0.00  0.00     0.032 C 
ATOM     15  C   UNL d   1      54.161  32.863  55.463  0.00  0.00     0.007 C 
BRANCH  14  16
ATOM     16  C   UNL d   1      54.974  33.798  54.756  0.00  0.00     0.007 C 
ATOM     17  C   UNL d   1      55.476  33.947  55.394  0.00  0.00     0.001 C 
ENDBRANCH  14  16
ENDBRANCH  13  14
ENDBRANCH   2  13
TORSDOF 3
ENDMDL
MODEL 4
REMARK VINA RESULT:      -8.0      0.774      3.168
REMARK  3 active torsions:
REMARK  status: ('A' for Active; 'I' for Inactive)
REMARK    1  A    between atoms: S_8  and  C_2 
REMARK    2  A    between atoms: C_13  and  S_8 
REMARK    3  A    between atoms: C_15  and  C_13 
ROOT
ATOM      1  C   UNL d   1      52.488  33.594  53.428  0.00  0.00     0.104 A 
ATOM      2  C   UNL d   1      53.315  32.169  53.447  0.00  0.00     0.182 A 
ATOM      3  N   UNL d   1      53.667  32.855  53.741  0.00  0.00    -0.251 N 
ATOM      4  C   UNL d   1      53.244  33.572  53.729  0.00  0.00     0.274 A 
ATOM      5  C   UNL d   1      52.136  32.908  53.134  0.00  0.00     0.095 A 
ATOM      6  N   UNL d   1      52.540  32.201  53.141  0.00  0.00    -0.222 NA
ATOM      7  S   UNL d   1      51.949  34.209  53.346  0.00  0.00    -0.081 SA
ATOM      8  C   UNL d   1      51.379  33.101  52.871  0.00  0.00     0.026 A 
ATOM      9  O   UNL d   1      53.596  34.258  54.023  0.00  0.00    -0.266 OA
ATOM     10  C   UNL d   1      51.263  33.899  53.001  0.00  0.00     0.031 A 
ATOM     11  C   UNL d   1      54.439  32.829  54.047  0.00  0.00     0.104 C 
ATOM     12  C   UNL d   1      50.575  34.315  52.815  0.00  0.00     0.007 C 
ENDROOT
BRANCH   2  13
ATOM     13  S   UNL d   1      53.729  31.446  53.454  0.00  0.00    -0.050 SA
BRANCH  13  14
ATOM     14  C   UNL d   1      53.311  30.736  53.398  0.00  0.00     0.032 C 
ATOM     15  C   UNL d   1      53.032  30.477  52.667  0.00  0.00     0.007 C 
BRANCH  14  16
ATOM     16  C   UNL d   1      53.174  30.288  54.074  0.00  0.00     0.007 C 
ATOM     17  C   UNL d   1      53.229  29.465  54.040  0.00  0.00     0.001 C 
ENDBRANCH  14  16
ENDBRANCH  13  14
ENDBRANCH   2  13
TORSDOF 3
ENDMDL
MODEL 5
REMARK VINA RESULT:      -8.0      1.459      2.733
REMARK  3 active torsions:
REMARK  status: ('A' for Active; 'I' for Inactive)
REMARK    1  A    between atoms: S_8  and  C_2 
REMARK    2  A    between atoms: C_13  and  S_8 
REMARK    3  A    between atoms: C_15  and  C_13 
ROOT
ATOM      1  C   UNL d   1      52.854  31.571  53.147  0.00  0.00     0.104 A 
ATOM      2  C   UNL d   1      53.478  32.881  53.928  0.00  0.00     0.182 A 
ATOM      3  N   UNL d   1      52.901  32.982  53.347  0.00  0.00    -0.251 N 
ATOM      4  C   UNL d   1      52.589  32.317  52.956  0.00  0.00     0.274 A 
ATOM      5  C   UNL d   1      53.432  31.470  53.728  0.00  0.00     0.095 A 
ATOM      6  N   UNL d   1      53.744  32.114  54.117  0.00  0.00    -0.222 NA
ATOM      7  S   UNL d   1      52.652  30.827  52.860  0.00  0.00    -0.081 SA
ATOM      8  C   UNL d   1      53.586  30.664  53.799  0.00  0.00     0.026 A 
ATOM      9  O   UNL d   1      52.012  32.418  52.375  0.00  0.00    -0.266 OA
ATOM     10  C   UNL d   1      53.108  30.268  53.267  0.00  0.00     0.031 A 
ATOM     11  C   UNL d   1      52.633  33.745  53.154  0.00  0.00     0.104 C 
ATOM     12  C   UNL d   1      53.091  29.449  53.161  0.00  0.00     0.007 C 
ENDROOT
BRANCH   2  13
ATOM     13  S   UNL d   1      53.797  33.541  54.326  0.00  0.00    -0.050 SA
BRANCH  13  14
ATOM     14  C   UNL d   1      54.402  33.431  54.876  0.00  0.00     0.032 C 
ATOM     15  C   UNL d   1      54.233  33.111  55.617  0.00  0.00     0.007 C 
BRANCH  14  16
ATOM     16  C   UNL d   1      55.173  33.643  54.684  0.00  0.00     0.007 C 
ATOM     17  C   UNL d   1      55.623  34.086  55.216  0.00  0.00     0.001 C 
ENDBRANCH  14  16
ENDBRANCH  13  14
ENDBRANCH   2  13
TORSDOF 3
ENDMDL
MODEL 6
REMARK VINA RESULT:      -7.9      1.314      3.182
REMARK  3 active torsions:
REMARK  status: ('A' for Active; 'I' for Inactive)
REMARK    1  A    between atoms: S_8  and  C_2 
REMARK    2  A    between atoms: C_13  and  S_8 
REMARK    3  A    between atoms: C_15  and  C_13 
ROOT
ATOM      1  C   UNL d   1      53.451  33.452  54.220  0.00  0.00     0.104 A 
ATOM      2  C   UNL d   1      52.904  32.143  53.383  0.00  0.00     0.182 A 
ATOM      3  N   UNL d   1      52.477  32.848  53.371  0.00  0.00    -0.251 N 
ATOM      4  C   UNL d   1      52.758  33.507  53.796  0.00  0.00     0.274 A 
ATOM      5  C   UNL d   1      53.878  32.747  54.232  0.00  0.00     0.095 A 
ATOM      6  N   UNL d   1      53.612  32.096  53.820  0.00  0.00    -0.222 NA
ATOM      7  S   UNL d   1      53.855  33.999  54.682  0.00  0.00    -0.081 SA
ATOM      8  C   UNL d   1      54.546  32.858  54.702  0.00  0.00     0.026 A 
ATOM      9  O   UNL d   1      52.331  34.213  53.784  0.00  0.00    -0.266 OA
ATOM     10  C   UNL d   1      54.533  33.627  54.979  0.00  0.00     0.031 A 
ATOM     11  C   UNL d   1      51.770  32.900  52.937  0.00  0.00     0.104 C 
ATOM     12  C   UNL d   1      55.104  33.965  55.470  0.00  0.00     0.007 C 
ENDROOT
BRANCH   2  13
ATOM     13  S   UNL d   1      52.631  31.477  52.962  0.00  0.00    -0.050 SA
BRANCH  13  14
ATOM     14  C   UNL d   1      52.976  30.739  53.098  0.00  0.00     0.032 C 
ATOM     15  C   UNL d   1      53.691  30.544  52.736  0.00  0.00     0.007 C 
BRANCH  14  16
ATOM     16  C   UNL d   1      52.604  30.200  53.596  0.00  0.00     0.007 C 
ATOM     17  C   UNL d   1      52.684  29.390  53.457  0.00  0.00     0.001 C 
ENDBRANCH  14  16
ENDBRANCH  13  14
ENDBRANCH   2  13
TORSDOF 3
ENDMDL
