MODEL 1
REMARK VINA RESULT:      60.4      0.000      0.000
REMARK  6 active torsions:
REMARK  status: ('A' for Active; 'I' for Inactive)
REMARK    1  A    between atoms: C_4  and  C_1 
REMARK    2  A    between atoms: C_7  and  C_4 
REMARK    3  A    between atoms: N_10  and  C_7 
REMARK    4  A    between atoms: C_13  and  N_10 
REMARK    5  A    between atoms: O_18  and  C_11 
REMARK    6  A    between atoms: O_20  and  C_15 
ROOT
ATOM      1  C   UNL d   1     -50.962  26.736  33.700  0.00  0.00     0.122 C 
ATOM      2  C   UNL d   1     -51.578  27.265  33.564  0.00  0.00     0.106 C 
ATOM      3  N   UNL d   1     -52.194  27.795  33.429  0.00  0.00    -0.191 NA
ENDROOT
BRANCH   1   4
ATOM      4  C   UNL d   1     -51.091  25.925  33.623  0.00  0.00     0.159 A 
ATOM      5  N   UNL d   1     -50.515  25.334  33.665  0.00  0.00    -0.226 NA
ATOM      6  C   UNL d   1     -50.884  24.610  33.559  0.00  0.00     0.099 A 
ATOM      7  C   UNL d   1     -50.593  23.832  33.546  0.00  0.00     0.021 A 
ATOM      8  C   UNL d   1     -51.690  24.747  33.451  0.00  0.00     0.083 A 
ATOM      9  C   UNL d   1     -51.115  23.202  33.425  0.00  0.00     0.002 A 
ATOM     10  C   UNL d   1     -51.920  23.339  33.317  0.00  0.00     0.002 A 
ATOM     11  C   UNL d   1     -52.213  24.108  33.329  0.00  0.00     0.019 A 
ATOM     12  N   UNL d   1     -51.821  25.557  33.490  0.00  0.00    -0.287 N 
ATOM     13  C   UNL d   1     -52.550  25.947  33.411  0.00  0.00     0.101 C 
ENDBRANCH   1   4
BRANCH   1  14
ATOM     14  C   UNL d   1     -50.218  27.017  33.912  0.00  0.00     0.112 C 
BRANCH  14  15
ATOM     15  N   UNL d   1     -50.058  27.210  34.698  0.00  0.00    -0.241 NA
BRANCH  15  16
ATOM     16  C   UNL d   1     -49.412  27.685  34.883  0.00  0.00     0.104 A 
ATOM     17  C   UNL d   1     -49.341  28.012  35.638  0.00  0.00     0.114 A 
ATOM     18  C   UNL d   1     -48.694  28.486  35.822  0.00  0.00     0.050 A 
ATOM     19  C   UNL d   1     -48.115  28.636  35.252  0.00  0.00     0.096 A 
ATOM     20  C   UNL d   1     -48.189  28.308  34.499  0.00  0.00     0.026 A 
ATOM     21  C   UNL d   1     -48.836  27.833  34.313  0.00  0.00     0.023 A 
BRANCH  17  22
ATOM     22  O   UNL d   1     -49.917  27.863  36.206  0.00  0.00    -0.327 OA
ATOM     23  C   UNL d   1     -49.808  27.257  36.756  0.00  0.00     0.181 C 
ENDBRANCH  17  22
BRANCH  19  24
ATOM     24  O   UNL d   1     -47.468  29.111  35.436  0.00  0.00    -0.328 OA
ATOM     25  C   UNL d   1     -47.565  29.930  35.534  0.00  0.00     0.181 C 
ENDBRANCH  19  24
ENDBRANCH  15  16
ENDBRANCH  14  15
ENDBRANCH   1  14
TORSDOF 6
ENDMDL
