MODEL 1
REMARK VINA RESULT:      -3.3      0.000      0.000
REMARK  6 active torsions:
REMARK  status: ('A' for Active; 'I' for Inactive)
REMARK    1  A    between atoms: C_4  and  S_1 
REMARK    2  A    between atoms: C_5  and  S_1 
REMARK    3  A    between atoms: C_2  and  N_7 
REMARK    4  A    between atoms: N_3  and  C_2 
REMARK    5  A    between atoms: C_17  and  N_6 
REMARK    6  A    between atoms: N_7  and  C_12 
ROOT
ATOM      1  C   UNL d   1      33.004  17.947 -23.800  0.00  0.00     0.206 C 
ATOM      2  S   UNL d   1      33.240  17.993 -24.587  0.00  0.00    -0.038 SA
ENDROOT
BRANCH   1   3
ATOM      3  N   UNL d   1      32.737  17.226 -23.491  0.00  0.00    -0.218 NA
BRANCH   3   4
ATOM      4  C   UNL d   1      32.222  16.752 -23.929  0.00  0.00     0.085 A 
ATOM      5  C   UNL d   1      31.430  16.695 -23.703  0.00  0.00     0.031 A 
ATOM      6  C   UNL d   1      30.920  16.222 -24.140  0.00  0.00     0.094 A 
ATOM      7  C   UNL d   1      31.201  15.808 -24.803  0.00  0.00     0.012 A 
ATOM      8  C   UNL d   1      31.994  15.871 -25.022  0.00  0.00     0.002 A 
ATOM      9  C   UNL d   1      32.502  16.347 -24.579  0.00  0.00     0.019 A 
BRANCH   6  10
ATOM     10  S   UNL d   1      30.130  16.161 -23.920  0.00  0.00     0.262 S 
ATOM     11  O   UNL d   1      29.954  16.822 -24.387  0.00  0.00    -0.213 OA
ATOM     12  O   UNL d   1      30.310  15.506 -23.458  0.00  0.00    -0.213 OA
BRANCH  10  13
ATOM     13  C   UNL d   1      29.341  16.100 -23.701  0.00  0.00     0.364 C 
ATOM     14  F   UNL d   1      28.755  16.431 -24.175  0.00  0.00    -0.159 F 
ATOM     15  F   UNL d   1      29.132  15.706 -23.003  0.00  0.00    -0.159 F 
ENDBRANCH  10  13
ENDBRANCH   6  10
ENDBRANCH   3   4
ENDBRANCH   1   3
BRANCH   1  16
ATOM     16  N   UNL d   1      33.035  18.614 -23.321  0.00  0.00    -0.278 N 
ATOM     17  C   UNL d   1      32.900  19.360 -23.643  0.00  0.00     0.101 A 
ATOM     18  C   UNL d   1      32.931  20.026 -23.164  0.00  0.00     0.100 A 
ATOM     19  N   UNL d   1      33.097  19.947 -22.364  0.00  0.00    -0.301 N 
ATOM     20  C   UNL d   1      33.233  19.204 -22.038  0.00  0.00     0.100 A 
ATOM     21  C   UNL d   1      33.201  18.535 -22.521  0.00  0.00     0.101 A 
BRANCH  19  22
ATOM     22  C   UNL d   1      33.126  20.622 -21.888  0.00  0.00     0.064 A 
ATOM     23  C   UNL d   1      33.210  21.363 -22.240  0.00  0.00     0.018 A 
ATOM     24  C   UNL d   1      33.240  22.038 -21.772  0.00  0.00     0.002 A 
ATOM     25  C   UNL d   1      33.186  21.975 -20.949  0.00  0.00     0.000 A 
ATOM     26  C   UNL d   1      33.102  21.238 -20.598  0.00  0.00     0.002 A 
ATOM     27  C   UNL d   1      33.071  20.559 -21.065  0.00  0.00     0.018 A 
ENDBRANCH  19  22
ENDBRANCH   1  16
TORSDOF 6
ENDMDL
MODEL 2
REMARK VINA RESULT:      -2.5      1.077      1.651
REMARK  6 active torsions:
REMARK  status: ('A' for Active; 'I' for Inactive)
REMARK    1  A    between atoms: C_4  and  S_1 
REMARK    2  A    between atoms: C_5  and  S_1 
REMARK    3  A    between atoms: C_2  and  N_7 
REMARK    4  A    between atoms: N_3  and  C_2 
REMARK    5  A    between atoms: C_17  and  N_6 
REMARK    6  A    between atoms: N_7  and  C_12 
ROOT
ATOM      1  C   UNL d   1      33.045  19.126 -22.952  0.00  0.00     0.206 C 
ATOM      2  S   UNL d   1      33.164  18.443 -22.508  0.00  0.00    -0.038 SA
ENDROOT
BRANCH   1   3
ATOM      3  N   UNL d   1      32.950  19.072 -23.773  0.00  0.00    -0.218 NA
BRANCH   3   4
ATOM      4  C   UNL d   1      32.700  18.365 -24.118  0.00  0.00     0.085 A 
ATOM      5  C   UNL d   1      31.904  18.148 -24.069  0.00  0.00     0.031 A 
ATOM      6  C   UNL d   1      31.657  17.444 -24.412  0.00  0.00     0.094 A 
ATOM      7  C   UNL d   1      32.205  16.956 -24.804  0.00  0.00     0.012 A 
ATOM      8  C   UNL d   1      32.997  17.181 -24.847  0.00  0.00     0.002 A 
ATOM      9  C   UNL d   1      33.240  17.890 -24.501  0.00  0.00     0.019 A 
BRANCH   6  10
ATOM     10  S   UNL d   1      30.867  17.223 -24.368  0.00  0.00     0.262 S 
ATOM     11  O   UNL d   1      31.023  16.826 -23.658  0.00  0.00    -0.213 OA
ATOM     12  O   UNL d   1      30.717  17.617 -25.072  0.00  0.00    -0.213 OA
BRANCH  10  13
ATOM     13  C   UNL d   1      30.078  17.001 -24.322  0.00  0.00     0.364 C 
ATOM     14  F   UNL d   1      29.857  16.354 -23.863  0.00  0.00    -0.159 F 
ATOM     15  F   UNL d   1      29.501  17.426 -24.737  0.00  0.00    -0.159 F 
ENDBRANCH  10  13
ENDBRANCH   6  10
ENDBRANCH   3   4
ENDBRANCH   1   3
BRANCH   1  16
ATOM     16  N   UNL d   1      33.020  19.859 -22.581  0.00  0.00    -0.278 N 
ATOM     17  C   UNL d   1      33.178  20.543 -23.010  0.00  0.00     0.101 A 
ATOM     18  C   UNL d   1      33.153  21.275 -22.640  0.00  0.00     0.100 A 
ATOM     19  N   UNL d   1      32.971  21.323 -21.840  0.00  0.00    -0.301 N 
ATOM     20  C   UNL d   1      32.812  20.641 -21.408  0.00  0.00     0.100 A 
ATOM     21  C   UNL d   1      32.837  19.906 -21.782  0.00  0.00     0.101 A 
BRANCH  19  22
ATOM     22  C   UNL d   1      32.947  22.063 -21.474  0.00  0.00     0.064 A 
ATOM     23  C   UNL d   1      33.241  22.723 -21.873  0.00  0.00     0.018 A 
ATOM     24  C   UNL d   1      33.221  23.462 -21.514  0.00  0.00     0.002 A 
ATOM     25  C   UNL d   1      32.907  23.545 -20.753  0.00  0.00     0.000 A 
ATOM     26  C   UNL d   1      32.615  22.888 -20.355  0.00  0.00     0.002 A 
ATOM     27  C   UNL d   1      32.634  22.146 -20.713  0.00  0.00     0.018 A 
ENDBRANCH  19  22
ENDBRANCH   1  16
TORSDOF 6
ENDMDL
MODEL 3
REMARK VINA RESULT:      -2.3      2.979      5.425
REMARK  6 active torsions:
REMARK  status: ('A' for Active; 'I' for Inactive)
REMARK    1  A    between atoms: C_4  and  S_1 
REMARK    2  A    between atoms: C_5  and  S_1 
REMARK    3  A    between atoms: C_2  and  N_7 
REMARK    4  A    between atoms: N_3  and  C_2 
REMARK    5  A    between atoms: C_17  and  N_6 
REMARK    6  A    between atoms: N_7  and  C_12 
ROOT
ATOM      1  C   UNL d   1      32.850  19.066 -23.652  0.00  0.00     0.206 C 
ATOM      2  S   UNL d   1      33.241  19.399 -24.295  0.00  0.00    -0.038 SA
ENDROOT
BRANCH   1   3
ATOM      3  N   UNL d   1      33.020  19.329 -22.885  0.00  0.00    -0.218 NA
BRANCH   3   4
ATOM      4  C   UNL d   1      33.016  20.136 -22.712  0.00  0.00     0.085 A 
ATOM      5  C   UNL d   1      32.783  20.390 -21.962  0.00  0.00     0.031 A 
ATOM      6  C   UNL d   1      32.779  21.194 -21.792  0.00  0.00     0.094 A 
ATOM      7  C   UNL d   1      33.008  21.743 -22.372  0.00  0.00     0.012 A 
ATOM      8  C   UNL d   1      33.239  21.481 -23.118  0.00  0.00     0.002 A 
ATOM      9  C   UNL d   1      33.241  20.672 -23.284  0.00  0.00     0.019 A 
BRANCH   6  10
ATOM     10  S   UNL d   1      32.548  21.453 -21.047  0.00  0.00     0.262 S 
ATOM     11  O   UNL d   1      33.227  21.107 -20.722  0.00  0.00    -0.213 OA
ATOM     12  O   UNL d   1      31.876  21.795 -21.374  0.00  0.00    -0.213 OA
BRANCH  10  13
ATOM     13  C   UNL d   1      32.319  21.711 -20.302  0.00  0.00     0.364 C 
ATOM     14  F   UNL d   1      32.868  22.064 -19.800  0.00  0.00    -0.159 F 
ATOM     15  F   UNL d   1      31.534  21.619 -20.052  0.00  0.00    -0.159 F 
ENDBRANCH  10  13
ENDBRANCH   6  10
ENDBRANCH   3   4
ENDBRANCH   1   3
BRANCH   1  16
ATOM     16  N   UNL d   1      32.293  18.474 -23.770  0.00  0.00    -0.278 N 
ATOM     17  C   UNL d   1      32.403  17.730 -23.435  0.00  0.00     0.101 A 
ATOM     18  C   UNL d   1      31.847  17.139 -23.553  0.00  0.00     0.100 A 
ATOM     19  N   UNL d   1      31.179  17.290 -24.007  0.00  0.00    -0.301 N 
ATOM     20  C   UNL d   1      31.065  18.032 -24.344  0.00  0.00     0.100 A 
ATOM     21  C   UNL d   1      31.626  18.626 -24.224  0.00  0.00     0.101 A 
BRANCH  19  22
ATOM     22  C   UNL d   1      30.623  16.691 -24.122  0.00  0.00     0.064 A 
ATOM     23  C   UNL d   1      30.238  16.628 -24.849  0.00  0.00     0.018 A 
ATOM     24  C   UNL d   1      29.683  16.034 -24.970  0.00  0.00     0.002 A 
ATOM     25  C   UNL d   1      29.511  15.498 -24.364  0.00  0.00     0.000 A 
ATOM     26  C   UNL d   1      29.894  15.559 -23.640  0.00  0.00     0.002 A 
ATOM     27  C   UNL d   1      30.451  16.155 -23.516  0.00  0.00     0.018 A 
ENDBRANCH  19  22
ENDBRANCH   1  16
TORSDOF 6
ENDMDL
MODEL 4
REMARK VINA RESULT:      -2.3      3.462      5.768
REMARK  6 active torsions:
REMARK  status: ('A' for Active; 'I' for Inactive)
REMARK    1  A    between atoms: C_4  and  S_1 
REMARK    2  A    between atoms: C_5  and  S_1 
REMARK    3  A    between atoms: C_2  and  N_7 
REMARK    4  A    between atoms: N_3  and  C_2 
REMARK    5  A    between atoms: C_17  and  N_6 
REMARK    6  A    between atoms: N_7  and  C_12 
ROOT
ATOM      1  C   UNL d   1      33.123  20.326 -23.329  0.00  0.00     0.206 C 
ATOM      2  S   UNL d   1      33.241  20.801 -23.990  0.00  0.00    -0.038 SA
ENDROOT
BRANCH   1   3
ATOM      3  N   UNL d   1      33.233  20.641 -22.570  0.00  0.00    -0.218 NA
BRANCH   3   4
ATOM      4  C   UNL d   1      33.116  21.446 -22.433  0.00  0.00     0.085 A 
ATOM      5  C   UNL d   1      32.878  21.701 -21.685  0.00  0.00     0.031 A 
ATOM      6  C   UNL d   1      32.762  22.503 -21.551  0.00  0.00     0.094 A 
ATOM      7  C   UNL d   1      32.884  23.050 -22.164  0.00  0.00     0.012 A 
ATOM      8  C   UNL d   1      33.122  22.786 -22.909  0.00  0.00     0.002 A 
ATOM      9  C   UNL d   1      33.237  21.979 -23.038  0.00  0.00     0.019 A 
BRANCH   6  10
ATOM     10  S   UNL d   1      32.525  22.763 -20.808  0.00  0.00     0.262 S 
ATOM     11  O   UNL d   1      31.870  22.258 -20.845  0.00  0.00    -0.213 OA
ATOM     12  O   UNL d   1      33.177  23.263 -20.775  0.00  0.00    -0.213 OA
BRANCH  10  13
ATOM     13  C   UNL d   1      32.288  23.023 -20.066  0.00  0.00     0.364 C 
ATOM     14  F   UNL d   1      32.752  22.860 -19.404  0.00  0.00    -0.159 F 
ATOM     15  F   UNL d   1      31.583  23.448 -19.979  0.00  0.00    -0.159 F 
ENDBRANCH  10  13
ENDBRANCH   6  10
ENDBRANCH   3   4
ENDBRANCH   1   3
BRANCH   1  16
ATOM     16  N   UNL d   1      32.896  19.541 -23.420  0.00  0.00    -0.278 N 
ATOM     17  C   UNL d   1      32.684  19.257 -24.163  0.00  0.00     0.101 A 
ATOM     18  C   UNL d   1      32.458  18.474 -24.254  0.00  0.00     0.100 A 
ATOM     19  N   UNL d   1      32.444  17.973 -23.603  0.00  0.00    -0.301 N 
ATOM     20  C   UNL d   1      32.656  18.253 -22.858  0.00  0.00     0.100 A 
ATOM     21  C   UNL d   1      32.883  19.042 -22.769  0.00  0.00     0.101 A 
BRANCH  19  22
ATOM     22  C   UNL d   1      32.215  17.186 -23.701  0.00  0.00     0.064 A 
ATOM     23  C   UNL d   1      31.449  17.014 -23.953  0.00  0.00     0.018 A 
ATOM     24  C   UNL d   1      31.215  16.233 -24.053  0.00  0.00     0.002 A 
ATOM     25  C   UNL d   1      31.747  15.618 -23.902  0.00  0.00     0.000 A 
ATOM     26  C   UNL d   1      32.511  15.788 -23.652  0.00  0.00     0.002 A 
ATOM     27  C   UNL d   1      32.748  16.571 -23.550  0.00  0.00     0.018 A 
ENDBRANCH  19  22
ENDBRANCH   1  16
TORSDOF 6
ENDMDL
MODEL 5
REMARK VINA RESULT:      -1.7      2.656      5.316
REMARK  6 active torsions:
REMARK  status: ('A' for Active; 'I' for Inactive)
REMARK    1  A    between atoms: C_4  and  S_1 
REMARK    2  A    between atoms: C_5  and  S_1 
REMARK    3  A    between atoms: C_2  and  N_7 
REMARK    4  A    between atoms: N_3  and  C_2 
REMARK    5  A    between atoms: C_17  and  N_6 
REMARK    6  A    between atoms: N_7  and  C_12 
ROOT
ATOM      1  C   UNL d   1      32.296  17.220 -23.828  0.00  0.00     0.206 C 
ATOM      2  S   UNL d   1      32.796  17.092 -24.469  0.00  0.00    -0.038 SA
ENDROOT
BRANCH   1   3
ATOM      3  N   UNL d   1      32.569  17.646 -23.171  0.00  0.00    -0.218 NA
BRANCH   3   4
ATOM      4  C   UNL d   1      32.793  18.436 -23.252  0.00  0.00     0.085 A 
ATOM      5  C   UNL d   1      32.853  18.912 -22.580  0.00  0.00     0.031 A 
ATOM      6  C   UNL d   1      33.077  19.698 -22.662  0.00  0.00     0.094 A 
ATOM      7  C   UNL d   1      33.241  20.008 -23.416  0.00  0.00     0.012 A 
ATOM      8  C   UNL d   1      33.178  19.525 -24.081  0.00  0.00     0.002 A 
ATOM      9  C   UNL d   1      32.953  18.736 -23.992  0.00  0.00     0.019 A 
BRANCH   6  10
ATOM     10  S   UNL d   1      33.139  20.177 -21.997  0.00  0.00     0.262 S 
ATOM     11  O   UNL d   1      33.162  20.845 -22.487  0.00  0.00    -0.213 OA
ATOM     12  O   UNL d   1      33.115  19.512 -21.516  0.00  0.00    -0.213 OA
BRANCH  10  13
ATOM     13  C   UNL d   1      33.200  20.657 -21.333  0.00  0.00     0.364 C 
ATOM     14  F   UNL d   1      33.241  21.475 -21.418  0.00  0.00    -0.159 F 
ATOM     15  F   UNL d   1      33.222  20.320 -20.577  0.00  0.00    -0.159 F 
ENDBRANCH  10  13
ENDBRANCH   6  10
ENDBRANCH   3   4
ENDBRANCH   1   3
BRANCH   1  16
ATOM     16  N   UNL d   1      31.528  16.927 -23.839  0.00  0.00    -0.278 N 
ATOM     17  C   UNL d   1      31.241  16.498 -23.198  0.00  0.00     0.101 A 
ATOM     18  C   UNL d   1      30.475  16.206 -23.210  0.00  0.00     0.100 A 
ATOM     19  N   UNL d   1      29.994  16.342 -23.862  0.00  0.00    -0.301 N 
ATOM     20  C   UNL d   1      30.277  16.770 -24.505  0.00  0.00     0.100 A 
ATOM     21  C   UNL d   1      31.049  17.064 -24.492  0.00  0.00     0.101 A 
BRANCH  19  22
ATOM     22  C   UNL d   1      29.224  16.044 -23.867  0.00  0.00     0.064 A 
ATOM     23  C   UNL d   1      28.801  16.001 -23.160  0.00  0.00     0.018 A 
ATOM     24  C   UNL d   1      28.034  15.706 -23.158  0.00  0.00     0.002 A 
ATOM     25  C   UNL d   1      27.685  15.453 -23.864  0.00  0.00     0.000 A 
ATOM     26  C   UNL d   1      28.105  15.496 -24.569  0.00  0.00     0.002 A 
ATOM     27  C   UNL d   1      28.875  15.791 -24.573  0.00  0.00     0.018 A 
ENDBRANCH  19  22
ENDBRANCH   1  16
TORSDOF 6
ENDMDL
MODEL 6
REMARK VINA RESULT:      -0.9      4.559      6.755
REMARK  6 active torsions:
REMARK  status: ('A' for Active; 'I' for Inactive)
REMARK    1  A    between atoms: C_4  and  S_1 
REMARK    2  A    between atoms: C_5  and  S_1 
REMARK    3  A    between atoms: C_2  and  N_7 
REMARK    4  A    between atoms: N_3  and  C_2 
REMARK    5  A    between atoms: C_17  and  N_6 
REMARK    6  A    between atoms: N_7  and  C_12 
ROOT
ATOM      1  C   UNL d   1      32.591  21.144 -20.421  0.00  0.00     0.206 C 
ATOM      2  S   UNL d   1      31.840  21.246 -20.101  0.00  0.00    -0.038 SA
ENDROOT
BRANCH   1   3
ATOM      3  N   UNL d   1      33.240  21.534 -20.084  0.00  0.00    -0.218 NA
BRANCH   3   4
ATOM      4  C   UNL d   1      33.136  22.258 -19.702  0.00  0.00     0.085 A 
ATOM      5  C   UNL d   1      32.978  22.272 -18.892  0.00  0.00     0.031 A 
ATOM      6  C   UNL d   1      32.875  22.995 -18.514  0.00  0.00     0.094 A 
ATOM      7  C   UNL d   1      32.931  23.702 -18.946  0.00  0.00     0.012 A 
ATOM      8  C   UNL d   1      33.089  23.679 -19.755  0.00  0.00     0.002 A 
ATOM      9  C   UNL d   1      33.191  22.950 -20.129  0.00  0.00     0.019 A 
BRANCH   6  10
ATOM     10  S   UNL d   1      32.718  23.015 -17.708  0.00  0.00     0.262 S 
ATOM     11  O   UNL d   1      32.193  23.644 -17.831  0.00  0.00    -0.213 OA
ATOM     12  O   UNL d   1      33.239  22.391 -17.590  0.00  0.00    -0.213 OA
BRANCH  10  13
ATOM     13  C   UNL d   1      32.559  23.036 -16.902  0.00  0.00     0.364 C 
ATOM     14  F   UNL d   1      31.837  22.763 -16.616  0.00  0.00    -0.159 F 
ATOM     15  F   UNL d   1      33.125  23.332 -16.374  0.00  0.00    -0.159 F 
ENDBRANCH  10  13
ENDBRANCH   6  10
ENDBRANCH   3   4
ENDBRANCH   1   3
BRANCH   1  16
ATOM     16  N   UNL d   1      32.698  20.655 -21.073  0.00  0.00    -0.278 N 
ATOM     17  C   UNL d   1      32.459  20.906 -21.820  0.00  0.00     0.101 A 
ATOM     18  C   UNL d   1      32.566  20.418 -22.471  0.00  0.00     0.100 A 
ATOM     19  N   UNL d   1      32.912  19.679 -22.376  0.00  0.00    -0.301 N 
ATOM     20  C   UNL d   1      33.152  19.424 -21.632  0.00  0.00     0.100 A 
ATOM     21  C   UNL d   1      33.044  19.917 -20.978  0.00  0.00     0.101 A 
BRANCH  19  22
ATOM     22  C   UNL d   1      33.016  19.193 -23.036  0.00  0.00     0.064 A 
ATOM     23  C   UNL d   1      32.999  19.525 -23.791  0.00  0.00     0.018 A 
ATOM     24  C   UNL d   1      33.102  19.047 -24.452  0.00  0.00     0.002 A 
ATOM     25  C   UNL d   1      33.223  18.234 -24.360  0.00  0.00     0.000 A 
ATOM     26  C   UNL d   1      33.241  17.903 -23.609  0.00  0.00     0.002 A 
ATOM     27  C   UNL d   1      33.137  18.380 -22.945  0.00  0.00     0.018 A 
ENDBRANCH  19  22
ENDBRANCH   1  16
TORSDOF 6
ENDMDL
