MODEL 1
REMARK VINA RESULT:      12.1      0.000      0.000
REMARK  4 active torsions:
REMARK  status: ('A' for Active; 'I' for Inactive)
REMARK    1  A    between atoms: N_4  and  C_1 
REMARK    2  A    between atoms: N_2  and  N_4 
REMARK    3  A    between atoms: C_6  and  N_2 
REMARK    4  A    between atoms: C_8  and  C_6 
ROOT
ATOM      1  C   UNL d   1      42.900 -15.270  36.427  0.00  0.00     0.008 A 
ATOM      2  C   UNL d   1      43.324 -15.973  36.378  0.00  0.00     0.021 A 
ATOM      3  C   UNL d   1      42.058 -15.287  36.427  0.00  0.00     0.035 A 
ATOM      4 BR   UNL d   1      41.625 -14.570  36.477  0.00  0.00    -0.049 Br
ATOM      5  C   UNL d   1      42.090 -16.714  36.330  0.00  0.00     0.001 A 
ATOM      6  C   UNL d   1      41.666 -16.011  36.379  0.00  0.00     0.007 A 
ATOM      7  C   UNL d   1      42.926 -16.687  36.330  0.00  0.00     0.002 A 
ENDROOT
BRANCH   2   8
ATOM      8  C   UNL d   1      44.168 -15.968  36.377  0.00  0.00     0.122 C 
BRANCH   8   9
ATOM      9  N   UNL d   1      44.595 -15.265  36.565  0.00  0.00    -0.144 NA
BRANCH   9  10
ATOM     10  N   UNL d   1      45.403 -15.304  36.754  0.00  0.00    -0.115 NA
BRANCH  10  11
ATOM     11  C   UNL d   1      45.808 -14.631  36.957  0.00  0.00     0.260 C 
ATOM     12  S   UNL d   1      46.647 -14.590  36.870  0.00  0.00    -0.034 SA
ATOM     13  N   UNL d   1      45.414 -13.985  37.248  0.00  0.00    -0.113 N 
ENDBRANCH  10  11
ENDBRANCH   9  10
ENDBRANCH   8   9
ENDBRANCH   2   8
TORSDOF 4
ENDMDL
MODEL 2
REMARK VINA RESULT:      12.4      6.963      7.941
REMARK  4 active torsions:
REMARK  status: ('A' for Active; 'I' for Inactive)
REMARK    1  A    between atoms: N_4  and  C_1 
REMARK    2  A    between atoms: N_2  and  N_4 
REMARK    3  A    between atoms: C_6  and  N_2 
REMARK    4  A    between atoms: C_8  and  C_6 
ROOT
ATOM      1  C   UNL d   1      45.170 -14.296  44.100  0.00  0.00     0.008 A 
ATOM      2  C   UNL d   1      45.602 -13.595  44.097  0.00  0.00     0.021 A 
ATOM      3  C   UNL d   1      45.452 -14.960  44.533  0.00  0.00     0.035 A 
ATOM      4 BR   UNL d   1      45.012 -15.674  44.537  0.00  0.00    -0.049 Br
ATOM      5  C   UNL d   1      46.593 -14.202  44.948  0.00  0.00     0.001 A 
ATOM      6  C   UNL d   1      46.161 -14.902  44.951  0.00  0.00     0.007 A 
ATOM      7  C   UNL d   1      46.304 -13.547  44.515  0.00  0.00     0.002 A 
ENDROOT
BRANCH   2   8
ATOM      8  C   UNL d   1      45.329 -12.922  43.666  0.00  0.00     0.122 C 
BRANCH   8   9
ATOM      9  N   UNL d   1      45.574 -12.792  42.870  0.00  0.00    -0.144 NA
BRANCH   9  10
ATOM     10  N   UNL d   1      45.255 -12.163  42.430  0.00  0.00    -0.115 NA
BRANCH  10  11
ATOM     11  C   UNL d   1      44.563 -12.261  42.019  0.00  0.00     0.260 C 
ATOM     12  S   UNL d   1      44.567 -12.318  41.177  0.00  0.00    -0.034 SA
ATOM     13  N   UNL d   1      43.855 -12.307  42.410  0.00  0.00    -0.113 N 
ENDBRANCH  10  11
ENDBRANCH   9  10
ENDBRANCH   8   9
ENDBRANCH   2   8
TORSDOF 4
ENDMDL
MODEL 3
REMARK VINA RESULT:      12.7      2.526      3.624
REMARK  4 active torsions:
REMARK  status: ('A' for Active; 'I' for Inactive)
REMARK    1  A    between atoms: N_4  and  C_1 
REMARK    2  A    between atoms: N_2  and  N_4 
REMARK    3  A    between atoms: C_6  and  N_2 
REMARK    4  A    between atoms: C_8  and  C_6 
ROOT
ATOM      1  C   UNL d   1      45.249 -15.578  36.644  0.00  0.00     0.008 A 
ATOM      2  C   UNL d   1      44.457 -15.422  36.801  0.00  0.00     0.021 A 
ATOM      3  C   UNL d   1      45.838 -15.019  36.865  0.00  0.00     0.035 A 
ATOM      4 BR   UNL d   1      46.646 -15.179  36.705  0.00  0.00    -0.049 Br
ATOM      5  C   UNL d   1      44.823 -14.162  37.394  0.00  0.00     0.001 A 
ATOM      6  C   UNL d   1      45.615 -14.318  37.237  0.00  0.00     0.007 A 
ATOM      7  C   UNL d   1      44.244 -14.723  37.171  0.00  0.00     0.002 A 
ENDROOT
BRANCH   2   8
ATOM      8  C   UNL d   1      43.857 -15.975  36.584  0.00  0.00     0.122 C 
BRANCH   8   9
ATOM      9  N   UNL d   1      43.096 -15.710  36.336  0.00  0.00    -0.144 NA
BRANCH   9  10
ATOM     10  N   UNL d   1      42.451 -16.235  36.330  0.00  0.00    -0.115 NA
BRANCH  10  11
ATOM     11  C   UNL d   1      41.713 -15.978  36.547  0.00  0.00     0.260 C 
ATOM     12  S   UNL d   1      41.186 -16.486  36.967  0.00  0.00    -0.034 SA
ATOM     13  N   UNL d   1      41.468 -15.227  36.364  0.00  0.00    -0.113 N 
ENDBRANCH  10  11
ENDBRANCH   9  10
ENDBRANCH   8   9
ENDBRANCH   2   8
TORSDOF 4
ENDMDL
