MODEL 1
REMARK VINA RESULT:      18.9      0.000      0.000
REMARK  4 active torsions:
REMARK  status: ('A' for Active; 'I' for Inactive)
REMARK       I    between atoms: C_7  and  N_9 
REMARK    1  A    between atoms: C_15  and  C_7 
REMARK    2  A    between atoms: N_9  and  C_12 
REMARK    3  A    between atoms: C_16  and  C_15 
REMARK    4  A    between atoms: C_17  and  C_16 
ROOT
ATOM      1  N   UNL d   1      56.173  49.550  50.339  0.00  0.00    -0.169 NA
ATOM      2  C   UNL d   1      56.686  49.560  49.698  0.00  0.00     0.282 A 
ATOM      3  C   UNL d   1      56.620  49.587  51.024  0.00  0.00     0.282 A 
ATOM      4  C   UNL d   1      57.460  49.605  49.993  0.00  0.00     0.064 A 
ATOM      5  C   UNL d   1      57.411  49.621  50.809  0.00  0.00     0.063 A 
ATOM      6  C   UNL d   1      58.102  49.664  51.257  0.00  0.00     0.006 A 
ATOM      7  C   UNL d   1      58.191  49.631  49.610  0.00  0.00     0.024 A 
ATOM      8  O   UNL d   1      56.453  49.531  48.911  0.00  0.00    -0.265 OA
ATOM      9  O   UNL d   1      56.334  49.591  51.795  0.00  0.00    -0.265 OA
ATOM     10  C   UNL d   1      58.876  49.675  50.056  0.00  0.00     0.085 A 
ATOM     11  C   UNL d   1      58.836  49.691  50.883  0.00  0.00     0.019 A 
ENDROOT
BRANCH  10  12
ATOM     12  N   UNL d   1      59.607  49.701  49.673  0.00  0.00    -0.208 NA
ATOM     13  C   UNL d   1      60.297  49.586  50.102  0.00  0.00     0.279 C 
ATOM     14  O   UNL d   1      61.021  49.614  49.717  0.00  0.00    -0.265 OA
BRANCH  13  15
ATOM     15  C   UNL d   1      60.268  49.446  50.904  0.00  0.00     0.062 C 
BRANCH  15  16
ATOM     16  C   UNL d   1      60.973  49.401  51.331  0.00  0.00     0.005 C 
BRANCH  16  17
ATOM     17  C   UNL d   1      60.997  49.666  52.114  0.00  0.00     0.000 C 
ATOM     18  C   UNL d   1      61.667  49.532  52.577  0.00  0.00     0.000 C 
ENDBRANCH  16  17
ENDBRANCH  15  16
ENDBRANCH  13  15
ENDBRANCH  10  12
TORSDOF 4
ENDMDL
