MODEL 1
REMARK VINA RESULT:      -3.9      0.000      0.000
REMARK  2 active torsions:
REMARK  status: ('A' for Active; 'I' for Inactive)
REMARK       I    between atoms: C_3  and  N_1 
REMARK       I    between atoms: C_4  and  N_2 
REMARK    1  A    between atoms: C_6  and  C_3 
REMARK    2  A    between atoms: C_8  and  C_4 
ROOT
ATOM      1  N   UNL d   1      58.668  -1.134  29.576  0.00  0.00    -0.270 N 
ATOM      2  N   UNL d   1      57.633  -0.470  30.686  0.00  0.00    -0.269 N 
ATOM      3  C   UNL d   1      59.181  -1.463  29.025  0.00  0.00     0.265 C 
ATOM      4  C   UNL d   1      57.117  -0.136  31.238  0.00  0.00     0.265 C 
ATOM      5  C   UNL d   1      58.512  -0.319  29.566  0.00  0.00     0.085 A 
ATOM      6  C   UNL d   1      57.999   0.018  30.113  0.00  0.00     0.101 A 
ATOM      7  C   UNL d   1      58.303  -1.611  30.143  0.00  0.00     0.102 A 
ATOM      8  C   UNL d   1      57.781  -1.276  30.703  0.00  0.00     0.102 A 
ATOM      9  O   UNL d   1      59.547  -0.982  28.456  0.00  0.00    -0.267 OA
ATOM     10  O   UNL d   1      56.965   0.681  31.223  0.00  0.00    -0.267 OA
ATOM     11  C   UNL d   1      58.878   0.166  28.995  0.00  0.00     0.021 C 
ENDROOT
BRANCH   3  12
ATOM     12  C   UNL d   1      59.335  -2.272  29.037  0.00  0.00     0.057 A 
ATOM     13  C   UNL d   1      60.077  -2.548  29.270  0.00  0.00     0.005 A 
ATOM     14  C   UNL d   1      60.231  -3.358  29.282  0.00  0.00     0.000 A 
ATOM     15  C   UNL d   1      60.974  -3.635  29.516  0.00  0.00     0.000 C 
ATOM     16  C   UNL d   1      59.643  -3.891  29.061  0.00  0.00     0.000 A 
ATOM     17  C   UNL d   1      58.894  -3.612  28.825  0.00  0.00     0.000 A 
ATOM     18  C   UNL d   1      58.747  -2.806  28.815  0.00  0.00     0.005 A 
ENDBRANCH   3  12
BRANCH   4  19
ATOM     19  C   UNL d   1      56.755  -0.615  31.802  0.00  0.00     0.057 A 
ATOM     20  C   UNL d   1      56.532  -0.290  32.528  0.00  0.00     0.005 A 
ATOM     21  C   UNL d   1      56.170  -0.769  33.093  0.00  0.00     0.000 A 
ATOM     22  C   UNL d   1      55.943  -0.451  33.821  0.00  0.00     0.000 C 
ATOM     23  C   UNL d   1      56.031  -1.573  32.932  0.00  0.00     0.000 A 
ATOM     24  C   UNL d   1      56.254  -1.891  32.212  0.00  0.00     0.000 A 
ATOM     25  C   UNL d   1      56.620  -1.411  31.639  0.00  0.00     0.005 A 
ENDBRANCH   4  19
TORSDOF 2
ENDMDL
MODEL 2
REMARK VINA RESULT:      -3.3      1.615      4.872
REMARK  2 active torsions:
REMARK  status: ('A' for Active; 'I' for Inactive)
REMARK       I    between atoms: C_3  and  N_1 
REMARK       I    between atoms: C_4  and  N_2 
REMARK    1  A    between atoms: C_6  and  C_3 
REMARK    2  A    between atoms: C_8  and  C_4 
ROOT
ATOM      1  N   UNL d   1      57.641   0.147  32.673  0.00  0.00    -0.270 N 
ATOM      2  N   UNL d   1      58.616   0.294  31.343  0.00  0.00    -0.269 N 
ATOM      3  C   UNL d   1      57.157   0.073  33.334  0.00  0.00     0.265 C 
ATOM      4  C   UNL d   1      59.106   0.369  30.682  0.00  0.00     0.265 C 
ATOM      5  C   UNL d   1      58.409   0.450  32.751  0.00  0.00     0.085 A 
ATOM      6  C   UNL d   1      58.900   0.527  32.096  0.00  0.00     0.101 A 
ATOM      7  C   UNL d   1      57.367  -0.081  31.928  0.00  0.00     0.102 A 
ATOM      8  C   UNL d   1      57.859  -0.007  31.257  0.00  0.00     0.102 A 
ATOM      9  O   UNL d   1      57.434   0.303  34.081  0.00  0.00    -0.267 OA
ATOM     10  O   UNL d   1      59.875   0.674  30.765  0.00  0.00    -0.267 OA
ATOM     11  C   UNL d   1      58.690   0.682  33.501  0.00  0.00     0.021 C 
ENDROOT
BRANCH   3  12
ATOM     12  C   UNL d   1      56.395  -0.228  33.254  0.00  0.00     0.057 A 
ATOM     13  C   UNL d   1      55.748   0.205  33.530  0.00  0.00     0.005 A 
ATOM     14  C   UNL d   1      54.985  -0.097  33.451  0.00  0.00     0.000 A 
ATOM     15  C   UNL d   1      54.338   0.337  33.726  0.00  0.00     0.000 C 
ATOM     16  C   UNL d   1      54.869  -0.832  33.096  0.00  0.00     0.000 A 
ATOM     17  C   UNL d   1      55.522  -1.269  32.818  0.00  0.00     0.000 A 
ATOM     18  C   UNL d   1      56.278  -0.963  32.900  0.00  0.00     0.005 A 
ENDBRANCH   3  12
BRANCH   4  19
ATOM     19  C   UNL d   1      58.829   0.141  29.940  0.00  0.00     0.057 A 
ATOM     20  C   UNL d   1      58.970  -0.628  29.672  0.00  0.00     0.005 A 
ATOM     21  C   UNL d   1      58.693  -0.856  28.930  0.00  0.00     0.000 A 
ATOM     22  C   UNL d   1      58.830  -1.623  28.655  0.00  0.00     0.000 C 
ATOM     23  C   UNL d   1      58.276  -0.315  28.455  0.00  0.00     0.000 A 
ATOM     24  C   UNL d   1      58.139   0.445  28.724  0.00  0.00     0.000 A 
ATOM     25  C   UNL d   1      58.416   0.679  29.473  0.00  0.00     0.005 A 
ENDBRANCH   4  19
TORSDOF 2
ENDMDL
MODEL 3
REMARK VINA RESULT:      -3.2      1.468      2.337
REMARK  2 active torsions:
REMARK  status: ('A' for Active; 'I' for Inactive)
REMARK       I    between atoms: C_3  and  N_1 
REMARK       I    between atoms: C_4  and  N_2 
REMARK    1  A    between atoms: C_6  and  C_3 
REMARK    2  A    between atoms: C_8  and  C_4 
ROOT
ATOM      1  N   UNL d   1      58.946   0.124  31.238  0.00  0.00    -0.270 N 
ATOM      2  N   UNL d   1      57.946   0.282  32.548  0.00  0.00    -0.269 N 
ATOM      3  C   UNL d   1      59.442   0.045  30.588  0.00  0.00     0.265 C 
ATOM      4  C   UNL d   1      57.450   0.362  33.204  0.00  0.00     0.265 C 
ATOM      5  C   UNL d   1      59.235   0.441  31.947  0.00  0.00     0.085 A 
ATOM      6  C   UNL d   1      58.745   0.523  32.603  0.00  0.00     0.101 A 
ATOM      7  C   UNL d   1      58.156  -0.113  31.190  0.00  0.00     0.102 A 
ATOM      8  C   UNL d   1      57.651  -0.033  31.851  0.00  0.00     0.102 A 
ATOM      9  O   UNL d   1      60.235   0.283  30.637  0.00  0.00    -0.267 OA
ATOM     10  O   UNL d   1      57.745   0.682  33.913  0.00  0.00    -0.267 OA
ATOM     11  C   UNL d   1      60.032   0.681  32.000  0.00  0.00     0.021 C 
ENDROOT
BRANCH   3  12
ATOM     12  C   UNL d   1      59.153  -0.271  29.884  0.00  0.00     0.057 A 
ATOM     13  C   UNL d   1      59.197  -1.084  29.748  0.00  0.00     0.005 A 
ATOM     14  C   UNL d   1      58.907  -1.401  29.043  0.00  0.00     0.000 A 
ATOM     15  C   UNL d   1      58.951  -2.214  28.907  0.00  0.00     0.000 C 
ATOM     16  C   UNL d   1      58.574  -0.904  28.476  0.00  0.00     0.000 A 
ATOM     17  C   UNL d   1      58.530  -0.083  28.614  0.00  0.00     0.000 A 
ATOM     18  C   UNL d   1      58.820   0.225  29.316  0.00  0.00     0.005 A 
ENDBRANCH   3  12
BRANCH   4  19
ATOM     19  C   UNL d   1      56.662   0.126  33.153  0.00  0.00     0.057 A 
ATOM     20  C   UNL d   1      56.468  -0.670  33.265  0.00  0.00     0.005 A 
ATOM     21  C   UNL d   1      55.681  -0.906  33.215  0.00  0.00     0.000 A 
ATOM     22  C   UNL d   1      55.479  -1.700  33.326  0.00  0.00     0.000 C 
ATOM     23  C   UNL d   1      55.086  -0.348  33.052  0.00  0.00     0.000 A 
ATOM     24  C   UNL d   1      55.282   0.438  32.941  0.00  0.00     0.000 A 
ATOM     25  C   UNL d   1      56.076   0.682  32.992  0.00  0.00     0.005 A 
ENDBRANCH   4  19
TORSDOF 2
ENDMDL
MODEL 4
REMARK VINA RESULT:      -3.0      0.997      1.604
REMARK  2 active torsions:
REMARK  status: ('A' for Active; 'I' for Inactive)
REMARK       I    between atoms: C_3  and  N_1 
REMARK       I    between atoms: C_4  and  N_2 
REMARK    1  A    between atoms: C_6  and  C_3 
REMARK    2  A    between atoms: C_8  and  C_4 
ROOT
ATOM      1  N   UNL d   1      58.555  -0.125  29.728  0.00  0.00    -0.270 N 
ATOM      2  N   UNL d   1      57.290   0.104  30.772  0.00  0.00    -0.269 N 
ATOM      3  C   UNL d   1      59.183  -0.238  29.210  0.00  0.00     0.265 C 
ATOM      4  C   UNL d   1      56.657   0.220  31.290  0.00  0.00     0.265 C 
ATOM      5  C   UNL d   1      57.904   0.335  29.499  0.00  0.00     0.085 A 
ATOM      6  C   UNL d   1      57.271   0.453  30.011  0.00  0.00     0.101 A 
ATOM      7  C   UNL d   1      58.568  -0.467  30.480  0.00  0.00     0.102 A 
ATOM      8  C   UNL d   1      57.930  -0.352  31.006  0.00  0.00     0.102 A 
ATOM      9  O   UNL d   1      59.169   0.106  28.455  0.00  0.00    -0.267 OA
ATOM     10  O   UNL d   1      56.006   0.682  31.055  0.00  0.00    -0.267 OA
ATOM     11  C   UNL d   1      57.887   0.682  28.741  0.00  0.00     0.021 C 
ENDROOT
BRANCH   3  12
ATOM     12  C   UNL d   1      59.829  -0.695  29.439  0.00  0.00     0.057 A 
ATOM     13  C   UNL d   1      59.843  -1.504  29.273  0.00  0.00     0.005 A 
ATOM     14  C   UNL d   1      60.489  -1.962  29.502  0.00  0.00     0.000 A 
ATOM     15  C   UNL d   1      60.503  -2.771  29.336  0.00  0.00     0.000 C 
ATOM     16  C   UNL d   1      61.121  -1.610  29.897  0.00  0.00     0.000 A 
ATOM     17  C   UNL d   1      61.108  -0.793  30.065  0.00  0.00     0.000 A 
ATOM     18  C   UNL d   1      60.462  -0.345  29.834  0.00  0.00     0.005 A 
ENDBRANCH   3  12
BRANCH   4  19
ATOM     19  C   UNL d   1      56.673  -0.123  32.039  0.00  0.00     0.057 A 
ATOM     20  C   UNL d   1      56.205  -0.786  32.193  0.00  0.00     0.005 A 
ATOM     21  C   UNL d   1      56.221  -1.128  32.942  0.00  0.00     0.000 A 
ATOM     22  C   UNL d   1      55.755  -1.792  33.104  0.00  0.00     0.000 C 
ATOM     23  C   UNL d   1      56.704  -0.808  33.538  0.00  0.00     0.000 A 
ATOM     24  C   UNL d   1      57.166  -0.151  33.382  0.00  0.00     0.000 A 
ATOM     25  C   UNL d   1      57.154   0.198  32.626  0.00  0.00     0.005 A 
ENDBRANCH   4  19
TORSDOF 2
ENDMDL
MODEL 5
REMARK VINA RESULT:      -1.3      8.360      9.168
REMARK  2 active torsions:
REMARK  status: ('A' for Active; 'I' for Inactive)
REMARK       I    between atoms: C_3  and  N_1 
REMARK       I    between atoms: C_4  and  N_2 
REMARK    1  A    between atoms: C_6  and  C_3 
REMARK    2  A    between atoms: C_8  and  C_4 
ROOT
ATOM      1  N   UNL d   1      59.843  -9.414  33.023  0.00  0.00    -0.270 N 
ATOM      2  N   UNL d   1      59.110  -9.615  31.552  0.00  0.00    -0.269 N 
ATOM      3  C   UNL d   1      60.207  -9.313  33.753  0.00  0.00     0.265 C 
ATOM      4  C   UNL d   1      58.747  -9.716  30.816  0.00  0.00     0.265 C 
ATOM      5  C   UNL d   1      60.301  -9.512  32.339  0.00  0.00     0.085 A 
ATOM      6  C   UNL d   1      59.945  -9.613  31.605  0.00  0.00     0.101 A 
ATOM      7  C   UNL d   1      59.019  -9.417  32.965  0.00  0.00     0.102 A 
ATOM      8  C   UNL d   1      58.649  -9.519  32.223  0.00  0.00     0.102 A 
ATOM      9  O   UNL d   1      61.034  -9.310  33.810  0.00  0.00    -0.267 OA
ATOM     10  O   UNL d   1      59.212  -9.815  30.134  0.00  0.00    -0.267 OA
ATOM     11  C   UNL d   1      61.133  -9.509  32.393  0.00  0.00     0.021 C 
ENDROOT
BRANCH   3  12
ATOM     12  C   UNL d   1      59.750  -9.216  34.431  0.00  0.00     0.057 A 
ATOM     13  C   UNL d   1      59.827  -8.531  34.886  0.00  0.00     0.005 A 
ATOM     14  C   UNL d   1      59.369  -8.432  35.566  0.00  0.00     0.000 A 
ATOM     15  C   UNL d   1      59.446  -7.747  36.020  0.00  0.00     0.000 C 
ATOM     16  C   UNL d   1      58.836  -9.019  35.789  0.00  0.00     0.000 A 
ATOM     17  C   UNL d   1      58.758  -9.711  35.330  0.00  0.00     0.000 A 
ATOM     18  C   UNL d   1      59.216  -9.802  34.656  0.00  0.00     0.005 A 
ENDBRANCH   3  12
BRANCH   4  19
ATOM     19  C   UNL d   1      57.925  -9.719  30.762  0.00  0.00     0.057 A 
ATOM     20  C   UNL d   1      57.567  -9.758  30.018  0.00  0.00     0.005 A 
ATOM     21  C   UNL d   1      56.745  -9.761  29.964  0.00  0.00     0.000 A 
ATOM     22  C   UNL d   1      56.379  -9.799  29.224  0.00  0.00     0.000 C 
ATOM     23  C   UNL d   1      56.280  -9.725  30.653  0.00  0.00     0.000 A 
ATOM     24  C   UNL d   1      56.638  -9.686  31.387  0.00  0.00     0.000 A 
ATOM     25  C   UNL d   1      57.469  -9.683  31.447  0.00  0.00     0.005 A 
ENDBRANCH   4  19
TORSDOF 2
ENDMDL
MODEL 6
REMARK VINA RESULT:      -0.9      1.400      2.053
REMARK  2 active torsions:
REMARK  status: ('A' for Active; 'I' for Inactive)
REMARK       I    between atoms: C_3  and  N_1 
REMARK       I    between atoms: C_4  and  N_2 
REMARK    1  A    between atoms: C_6  and  C_3 
REMARK    2  A    between atoms: C_8  and  C_4 
ROOT
ATOM      1  N   UNL d   1      59.803  -2.008  29.158  0.00  0.00    -0.270 N 
ATOM      2  N   UNL d   1      59.382  -0.620  29.958  0.00  0.00    -0.269 N 
ATOM      3  C   UNL d   1      60.012  -2.697  28.761  0.00  0.00     0.265 C 
ATOM      4  C   UNL d   1      59.176   0.073  30.356  0.00  0.00     0.265 C 
ATOM      5  C   UNL d   1      60.359  -1.401  29.262  0.00  0.00     0.085 A 
ATOM      6  C   UNL d   1      60.159  -0.709  29.657  0.00  0.00     0.101 A 
ATOM      7  C   UNL d   1      59.039  -1.914  29.456  0.00  0.00     0.102 A 
ATOM      8  C   UNL d   1      58.827  -1.215  29.860  0.00  0.00     0.102 A 
ATOM      9  O   UNL d   1      60.780  -2.789  28.462  0.00  0.00    -0.267 OA
ATOM     10  O   UNL d   1      59.738   0.678  30.457  0.00  0.00    -0.267 OA
ATOM     11  C   UNL d   1      61.132  -1.492  28.962  0.00  0.00     0.021 C 
ENDROOT
BRANCH   3  12
ATOM     12  C   UNL d   1      59.459  -3.298  28.659  0.00  0.00     0.057 A 
ATOM     13  C   UNL d   1      59.705  -4.085  28.624  0.00  0.00     0.005 A 
ATOM     14  C   UNL d   1      59.151  -4.688  28.522  0.00  0.00     0.000 A 
ATOM     15  C   UNL d   1      59.398  -5.475  28.487  0.00  0.00     0.000 C 
ATOM     16  C   UNL d   1      58.351  -4.502  28.455  0.00  0.00     0.000 A 
ATOM     17  C   UNL d   1      58.102  -3.707  28.491  0.00  0.00     0.000 A 
ATOM     18  C   UNL d   1      58.658  -3.114  28.592  0.00  0.00     0.005 A 
ENDBRANCH   3  12
BRANCH   4  19
ATOM     19  C   UNL d   1      58.413   0.163  30.653  0.00  0.00     0.057 A 
ATOM     20  C   UNL d   1      58.273   0.048  31.458  0.00  0.00     0.005 A 
ATOM     21  C   UNL d   1      57.509   0.138  31.755  0.00  0.00     0.000 A 
ATOM     22  C   UNL d   1      57.361   0.025  32.560  0.00  0.00     0.000 C 
ATOM     23  C   UNL d   1      56.885   0.344  31.246  0.00  0.00     0.000 A 
ATOM     24  C   UNL d   1      57.027   0.458  30.448  0.00  0.00     0.000 A 
ATOM     25  C   UNL d   1      57.797   0.367  30.144  0.00  0.00     0.005 A 
ENDBRANCH   4  19
TORSDOF 2
ENDMDL
