MODEL 1
REMARK VINA RESULT:      -6.8      0.000      0.000
REMARK  3 active torsions:
REMARK  status: ('A' for Active; 'I' for Inactive)
REMARK    1  A    between atoms: C_8  and  C_1 
REMARK    2  A    between atoms: N_5  and  C_2 
REMARK       I    between atoms: C_7  and  N_5 
REMARK    3  A    between atoms: C_10  and  C_7 
ROOT
ATOM      1  C   UNL d   1     -45.253  11.966  23.006  0.00  0.00     0.212 A 
ATOM      2  C   UNL d   1     -46.143  12.962  22.959  0.00  0.00     0.297 A 
ATOM      3  O   UNL d   1     -45.977  12.233  23.308  0.00  0.00    -0.253 OA
ATOM      4  N   UNL d   1     -44.981  12.530  22.477  0.00  0.00    -0.119 NA
ATOM      5  N   UNL d   1     -45.530  13.144  22.448  0.00  0.00    -0.101 NA
ENDROOT
BRANCH   2   6
ATOM      6  N   UNL d   1     -46.813  13.419  23.107  0.00  0.00    -0.165 NA
ATOM      7  C   UNL d   1     -47.425  13.438  22.568  0.00  0.00     0.282 C 
ATOM      8  O   UNL d   1     -47.383  13.000  21.868  0.00  0.00    -0.265 OA
BRANCH   7   9
ATOM      9  C   UNL d   1     -48.098  13.898  22.718  0.00  0.00     0.060 A 
ATOM     10  C   UNL d   1     -48.788  13.552  23.010  0.00  0.00     0.034 A 
ATOM     11  C   UNL d   1     -49.452  14.014  23.157  0.00  0.00     0.140 A 
ATOM     12  F   UNL d   1     -50.154  13.664  23.454  0.00  0.00    -0.204 F 
ATOM     13  C   UNL d   1     -49.435  14.826  23.013  0.00  0.00     0.030 A 
ATOM     14  C   UNL d   1     -48.748  15.170  22.722  0.00  0.00     0.003 A 
ATOM     15  C   UNL d   1     -48.083  14.713  22.574  0.00  0.00     0.005 A 
ENDBRANCH   7   9
ENDBRANCH   2   6
BRANCH   1  16
ATOM     16  C   UNL d   1     -44.879  11.255  23.209  0.00  0.00     0.072 A 
ATOM     17  S   UNL d   1     -45.217  10.631  23.619  0.00  0.00    -0.083 SA
ATOM     18  C   UNL d   1     -44.648  10.040  23.698  0.00  0.00     0.035 A 
ATOM     19  C   UNL d   1     -43.952  10.302  23.332  0.00  0.00     0.008 A 
ATOM     20  C   UNL d   1     -44.098  11.058  23.029  0.00  0.00     0.011 A 
ENDBRANCH   1  16
TORSDOF 3
ENDMDL
MODEL 2
REMARK VINA RESULT:      -6.4      1.887      2.347
REMARK  3 active torsions:
REMARK  status: ('A' for Active; 'I' for Inactive)
REMARK    1  A    between atoms: C_8  and  C_1 
REMARK    2  A    between atoms: N_5  and  C_2 
REMARK       I    between atoms: C_7  and  N_5 
REMARK    3  A    between atoms: C_10  and  C_7 
ROOT
ATOM      1  C   UNL d   1     -45.993  12.643  22.772  0.00  0.00     0.212 A 
ATOM      2  C   UNL d   1     -47.288  12.614  23.097  0.00  0.00     0.297 A 
ATOM      3  O   UNL d   1     -46.752  12.859  22.520  0.00  0.00    -0.253 OA
ATOM      4  N   UNL d   1     -46.068  12.270  23.497  0.00  0.00    -0.119 NA
ATOM      5  N   UNL d   1     -46.867  12.251  23.698  0.00  0.00    -0.101 NA
ENDROOT
BRANCH   2   6
ATOM      6  N   UNL d   1     -48.106  12.720  23.064  0.00  0.00    -0.165 NA
ATOM      7  C   UNL d   1     -48.597  12.086  22.916  0.00  0.00     0.282 C 
ATOM      8  O   UNL d   1     -48.285  11.330  22.797  0.00  0.00    -0.265 OA
BRANCH   7   9
ATOM      9  C   UNL d   1     -49.418  12.195  22.883  0.00  0.00     0.060 A 
ATOM     10  C   UNL d   1     -49.768  12.572  22.237  0.00  0.00     0.034 A 
ATOM     11  C   UNL d   1     -50.583  12.676  22.211  0.00  0.00     0.140 A 
ATOM     12  F   UNL d   1     -50.939  13.059  21.555  0.00  0.00    -0.204 F 
ATOM     13  C   UNL d   1     -51.058  12.405  22.829  0.00  0.00     0.030 A 
ATOM     14  C   UNL d   1     -50.709  12.030  23.471  0.00  0.00     0.003 A 
ATOM     15  C   UNL d   1     -49.897  11.924  23.502  0.00  0.00     0.005 A 
ENDBRANCH   7   9
ENDBRANCH   2   6
BRANCH   1  16
ATOM     16  C   UNL d   1     -45.290  12.785  22.357  0.00  0.00     0.072 A 
ATOM     17  S   UNL d   1     -44.626  12.302  22.353  0.00  0.00    -0.083 SA
ATOM     18  C   UNL d   1     -44.059  12.655  21.869  0.00  0.00     0.035 A 
ATOM     19  C   UNL d   1     -44.376  13.360  21.572  0.00  0.00     0.008 A 
ATOM     20  C   UNL d   1     -45.142  13.439  21.877  0.00  0.00     0.011 A 
ENDBRANCH   1  16
TORSDOF 3
ENDMDL
MODEL 3
REMARK VINA RESULT:      -6.4      2.178      4.777
REMARK  3 active torsions:
REMARK  status: ('A' for Active; 'I' for Inactive)
REMARK    1  A    between atoms: C_8  and  C_1 
REMARK    2  A    between atoms: N_5  and  C_2 
REMARK       I    between atoms: C_7  and  N_5 
REMARK    3  A    between atoms: C_10  and  C_7 
ROOT
ATOM      1  C   UNL d   1     -47.539  14.057  22.973  0.00  0.00     0.212 A 
ATOM      2  C   UNL d   1     -46.543  13.219  23.274  0.00  0.00     0.297 A 
ATOM      3  O   UNL d   1     -47.363  13.280  23.201  0.00  0.00    -0.253 OA
ATOM      4  N   UNL d   1     -46.831  14.464  22.909  0.00  0.00    -0.119 NA
ATOM      5  N   UNL d   1     -46.217  13.947  23.095  0.00  0.00    -0.101 NA
ENDROOT
BRANCH   2   6
ATOM      6  N   UNL d   1     -46.134  12.537  23.492  0.00  0.00    -0.165 NA
ATOM      7  C   UNL d   1     -45.666  12.147  22.949  0.00  0.00     0.282 C 
ATOM      8  O   UNL d   1     -45.595  12.429  22.175  0.00  0.00    -0.265 OA
BRANCH   7   9
ATOM      9  C   UNL d   1     -45.256  11.462  23.168  0.00  0.00     0.060 A 
ATOM     10  C   UNL d   1     -44.436  11.415  23.080  0.00  0.00     0.034 A 
ATOM     11  C   UNL d   1     -44.034  10.732  23.299  0.00  0.00     0.140 A 
ATOM     12  F   UNL d   1     -43.202  10.683  23.210  0.00  0.00    -0.204 F 
ATOM     13  C   UNL d   1     -44.446  10.088  23.610  0.00  0.00     0.030 A 
ATOM     14  C   UNL d   1     -45.262  10.136  23.698  0.00  0.00     0.003 A 
ATOM     15  C   UNL d   1     -45.667  10.814  23.480  0.00  0.00     0.005 A 
ENDBRANCH   7   9
ENDBRANCH   2   6
BRANCH   1  16
ATOM     16  C   UNL d   1     -48.299  14.358  22.837  0.00  0.00     0.072 A 
ATOM     17  S   UNL d   1     -49.005  13.951  22.933  0.00  0.00    -0.083 SA
ATOM     18  C   UNL d   1     -49.621  14.462  22.737  0.00  0.00     0.035 A 
ATOM     19  C   UNL d   1     -49.293  15.190  22.517  0.00  0.00     0.008 A 
ATOM     20  C   UNL d   1     -48.470  15.124  22.581  0.00  0.00     0.011 A 
ENDBRANCH   1  16
TORSDOF 3
ENDMDL
MODEL 4
REMARK VINA RESULT:      -6.4      2.394      4.853
REMARK  3 active torsions:
REMARK  status: ('A' for Active; 'I' for Inactive)
REMARK    1  A    between atoms: C_8  and  C_1 
REMARK    2  A    between atoms: N_5  and  C_2 
REMARK       I    between atoms: C_7  and  N_5 
REMARK    3  A    between atoms: C_10  and  C_7 
ROOT
ATOM      1  C   UNL d   1     -49.200  13.838  23.054  0.00  0.00     0.212 A 
ATOM      2  C   UNL d   1     -48.082  13.155  22.795  0.00  0.00     0.297 A 
ATOM      3  O   UNL d   1     -48.467  13.874  22.670  0.00  0.00    -0.253 OA
ATOM      4  N   UNL d   1     -49.259  13.101  23.409  0.00  0.00    -0.119 NA
ATOM      5  N   UNL d   1     -48.569  12.680  23.249  0.00  0.00    -0.101 NA
ENDROOT
BRANCH   2   6
ATOM      6  N   UNL d   1     -47.334  12.959  22.506  0.00  0.00    -0.165 NA
ATOM      7  C   UNL d   1     -46.668  13.112  22.953  0.00  0.00     0.282 C 
ATOM      8  O   UNL d   1     -46.732  13.464  23.698  0.00  0.00    -0.265 OA
BRANCH   7   9
ATOM      9  C   UNL d   1     -45.918  12.914  22.662  0.00  0.00     0.060 A 
ATOM     10  C   UNL d   1     -45.535  12.228  22.916  0.00  0.00     0.034 A 
ATOM     11  C   UNL d   1     -44.790  12.038  22.624  0.00  0.00     0.140 A 
ATOM     12  F   UNL d   1     -44.400  11.342  22.881  0.00  0.00    -0.204 F 
ATOM     13  C   UNL d   1     -44.420  12.530  22.075  0.00  0.00     0.030 A 
ATOM     14  C   UNL d   1     -44.802  13.213  21.822  0.00  0.00     0.003 A 
ATOM     15  C   UNL d   1     -45.544  13.407  22.111  0.00  0.00     0.005 A 
ENDBRANCH   7   9
ENDBRANCH   2   6
BRANCH   1  16
ATOM     16  C   UNL d   1     -49.766  14.443  23.071  0.00  0.00     0.072 A 
ATOM     17  S   UNL d   1     -50.432  14.496  22.593  0.00  0.00    -0.083 SA
ATOM     18  C   UNL d   1     -50.836  15.184  22.797  0.00  0.00     0.035 A 
ATOM     19  C   UNL d   1     -50.417  15.559  23.405  0.00  0.00     0.008 A 
ATOM     20  C   UNL d   1     -49.752  15.097  23.574  0.00  0.00     0.011 A 
ENDBRANCH   1  16
TORSDOF 3
ENDMDL
MODEL 5
REMARK VINA RESULT:      -6.1      7.781      8.698
REMARK  3 active torsions:
REMARK  status: ('A' for Active; 'I' for Inactive)
REMARK    1  A    between atoms: C_8  and  C_1 
REMARK    2  A    between atoms: N_5  and  C_2 
REMARK       I    between atoms: C_7  and  N_5 
REMARK    3  A    between atoms: C_10  and  C_7 
ROOT
ATOM      1  C   UNL d   1     -40.541  14.779  18.120  0.00  0.00     0.212 A 
ATOM      2  C   UNL d   1     -40.082  14.377  19.309  0.00  0.00     0.297 A 
ATOM      3  O   UNL d   1     -40.031  14.975  18.743  0.00  0.00    -0.253 OA
ATOM      4  N   UNL d   1     -40.899  14.066  18.307  0.00  0.00    -0.119 NA
ATOM      5  N   UNL d   1     -40.616  13.818  19.040  0.00  0.00    -0.101 NA
ENDROOT
BRANCH   2   6
ATOM      6  N   UNL d   1     -39.663  14.356  20.019  0.00  0.00    -0.165 NA
ATOM      7  C   UNL d   1     -40.052  14.458  20.729  0.00  0.00     0.282 C 
ATOM      8  O   UNL d   1     -40.869  14.585  20.747  0.00  0.00    -0.265 OA
BRANCH   7   9
ATOM      9  C   UNL d   1     -39.630  14.437  21.441  0.00  0.00     0.060 A 
ATOM     10  C   UNL d   1     -39.405  13.716  21.776  0.00  0.00     0.034 A 
ATOM     11  C   UNL d   1     -38.986  13.701  22.483  0.00  0.00     0.140 A 
ATOM     12  F   UNL d   1     -38.758  12.970  22.824  0.00  0.00    -0.204 F 
ATOM     13  C   UNL d   1     -38.787  14.405  22.865  0.00  0.00     0.030 A 
ATOM     14  C   UNL d   1     -39.011  15.122  22.531  0.00  0.00     0.003 A 
ATOM     15  C   UNL d   1     -39.429  15.142  21.826  0.00  0.00     0.005 A 
ENDBRANCH   7   9
ENDBRANCH   2   6
BRANCH   1  16
ATOM     16  C   UNL d   1     -40.660  15.230  17.435  0.00  0.00     0.072 A 
ATOM     17  S   UNL d   1     -40.076  15.496  16.923  0.00  0.00    -0.083 SA
ATOM     18  C   UNL d   1     -40.442  15.920  16.319  0.00  0.00     0.035 A 
ATOM     19  C   UNL d   1     -41.259  15.916  16.459  0.00  0.00     0.008 A 
ATOM     20  C   UNL d   1     -41.392  15.486  17.153  0.00  0.00     0.011 A 
ENDBRANCH   1  16
TORSDOF 3
ENDMDL
MODEL 6
REMARK VINA RESULT:      -5.9      7.638      8.202
REMARK  3 active torsions:
REMARK  status: ('A' for Active; 'I' for Inactive)
REMARK    1  A    between atoms: C_8  and  C_1 
REMARK    2  A    between atoms: N_5  and  C_2 
REMARK       I    between atoms: C_7  and  N_5 
REMARK    3  A    between atoms: C_10  and  C_7 
ROOT
ATOM      1  C   UNL d   1     -39.852  14.532  21.172  0.00  0.00     0.212 A 
ATOM      2  C   UNL d   1     -40.344  14.941  19.999  0.00  0.00     0.297 A 
ATOM      3  O   UNL d   1     -39.654  14.883  20.448  0.00  0.00    -0.253 OA
ATOM      4  N   UNL d   1     -40.657  14.378  21.162  0.00  0.00    -0.119 NA
ATOM      5  N   UNL d   1     -40.960  14.629  20.438  0.00  0.00    -0.101 NA
ENDROOT
BRANCH   2   6
ATOM      6  N   UNL d   1     -40.392  15.258  19.239  0.00  0.00    -0.165 NA
ATOM      7  C   UNL d   1     -40.487  14.768  18.594  0.00  0.00     0.282 C 
ATOM      8  O   UNL d   1     -40.536  13.948  18.691  0.00  0.00    -0.265 OA
BRANCH   7   9
ATOM      9  C   UNL d   1     -40.536  15.088  17.831  0.00  0.00     0.060 A 
ATOM     10  C   UNL d   1     -41.260  15.344  17.528  0.00  0.00     0.034 A 
ATOM     11  C   UNL d   1     -41.302  15.661  16.770  0.00  0.00     0.140 A 
ATOM     12  F   UNL d   1     -42.036  15.922  16.461  0.00  0.00    -0.204 F 
ATOM     13  C   UNL d   1     -40.622  15.726  16.307  0.00  0.00     0.030 A 
ATOM     14  C   UNL d   1     -39.902  15.471  16.610  0.00  0.00     0.003 A 
ATOM     15  C   UNL d   1     -39.855  15.154  17.365  0.00  0.00     0.005 A 
ENDBRANCH   7   9
ENDBRANCH   2   6
BRANCH   1  16
ATOM     16  C   UNL d   1     -39.324  14.371  21.790  0.00  0.00     0.072 A 
ATOM     17  S   UNL d   1     -39.049  14.910  22.344  0.00  0.00    -0.083 SA
ATOM     18  C   UNL d   1     -38.537  14.512  22.852  0.00  0.00     0.035 A 
ATOM     19  C   UNL d   1     -38.496  13.721  22.610  0.00  0.00     0.008 A 
ATOM     20  C   UNL d   1     -38.986  13.635  21.949  0.00  0.00     0.011 A 
ENDBRANCH   1  16
TORSDOF 3
ENDMDL
MODEL 7
REMARK VINA RESULT:      -5.6      2.545      4.935
REMARK  3 active torsions:
REMARK  status: ('A' for Active; 'I' for Inactive)
REMARK    1  A    between atoms: C_8  and  C_1 
REMARK    2  A    between atoms: N_5  and  C_2 
REMARK       I    between atoms: C_7  and  N_5 
REMARK    3  A    between atoms: C_10  and  C_7 
ROOT
ATOM      1  C   UNL d   1     -49.244  12.065  22.734  0.00  0.00     0.212 A 
ATOM      2  C   UNL d   1     -48.121  11.440  23.100  0.00  0.00     0.297 A 
ATOM      3  O   UNL d   1     -48.470  11.887  22.500  0.00  0.00    -0.253 OA
ATOM      4  N   UNL d   1     -49.365  11.728  23.471  0.00  0.00    -0.119 NA
ATOM      5  N   UNL d   1     -48.672  11.343  23.697  0.00  0.00    -0.101 NA
ENDROOT
BRANCH   2   6
ATOM      6  N   UNL d   1     -47.350  11.147  23.089  0.00  0.00    -0.165 NA
ATOM      7  C   UNL d   1     -46.732  11.609  23.354  0.00  0.00     0.282 C 
ATOM      8  O   UNL d   1     -46.868  12.374  23.635  0.00  0.00    -0.265 OA
BRANCH   7   9
ATOM      9  C   UNL d   1     -45.958  11.314  23.342  0.00  0.00     0.060 A 
ATOM     10  C   UNL d   1     -45.350  11.739  22.979  0.00  0.00     0.034 A 
ATOM     11  C   UNL d   1     -44.584  11.441  22.971  0.00  0.00     0.140 A 
ATOM     12  F   UNL d   1     -43.966  11.871  22.603  0.00  0.00    -0.204 F 
ATOM     13  C   UNL d   1     -44.416  10.715  23.326  0.00  0.00     0.030 A 
ATOM     14  C   UNL d   1     -45.021  10.293  23.688  0.00  0.00     0.003 A 
ATOM     15  C   UNL d   1     -45.786  10.586  23.698  0.00  0.00     0.005 A 
ENDBRANCH   7   9
ENDBRANCH   2   6
BRANCH   1  16
ATOM     16  C   UNL d   1     -49.791  12.505  22.294  0.00  0.00     0.072 A 
ATOM     17  S   UNL d   1     -50.072  12.319  21.546  0.00  0.00    -0.083 SA
ATOM     18  C   UNL d   1     -50.604  12.907  21.321  0.00  0.00     0.035 A 
ATOM     19  C   UNL d   1     -50.653  13.460  21.936  0.00  0.00     0.008 A 
ATOM     20  C   UNL d   1     -50.147  13.208  22.540  0.00  0.00     0.011 A 
ENDBRANCH   1  16
TORSDOF 3
ENDMDL
MODEL 8
REMARK VINA RESULT:      -5.6      8.060      9.000
REMARK  3 active torsions:
REMARK  status: ('A' for Active; 'I' for Inactive)
REMARK    1  A    between atoms: C_8  and  C_1 
REMARK    2  A    between atoms: N_5  and  C_2 
REMARK       I    between atoms: C_7  and  N_5 
REMARK    3  A    between atoms: C_10  and  C_7 
ROOT
ATOM      1  C   UNL d   1     -39.455  14.634  16.846  0.00  0.00     0.212 A 
ATOM      2  C   UNL d   1     -40.070  15.068  17.949  0.00  0.00     0.297 A 
ATOM      3  O   UNL d   1     -39.331  14.930  17.609  0.00  0.00    -0.253 OA
ATOM      4  N   UNL d   1     -40.264  14.593  16.723  0.00  0.00    -0.119 NA
ATOM      5  N   UNL d   1     -40.644  14.861  17.403  0.00  0.00    -0.101 NA
ENDROOT
BRANCH   2   6
ATOM      6  N   UNL d   1     -40.198  15.364  18.708  0.00  0.00    -0.165 NA
ATOM      7  C   UNL d   1     -40.382  14.858  19.321  0.00  0.00     0.282 C 
ATOM      8  O   UNL d   1     -40.442  14.044  19.192  0.00  0.00    -0.265 OA
BRANCH   7   9
ATOM      9  C   UNL d   1     -40.510  15.157  20.083  0.00  0.00     0.060 A 
ATOM     10  C   UNL d   1     -39.980  14.992  20.695  0.00  0.00     0.034 A 
ATOM     11  C   UNL d   1     -40.113  15.291  21.449  0.00  0.00     0.140 A 
ATOM     12  F   UNL d   1     -39.576  15.124  22.071  0.00  0.00    -0.204 F 
ATOM     13  C   UNL d   1     -40.776  15.758  21.601  0.00  0.00     0.030 A 
ATOM     14  C   UNL d   1     -41.302  15.922  20.992  0.00  0.00     0.003 A 
ATOM     15  C   UNL d   1     -41.174  15.626  20.239  0.00  0.00     0.005 A 
ENDBRANCH   7   9
ENDBRANCH   2   6
BRANCH   1  16
ATOM     16  C   UNL d   1     -38.860  14.421  16.310  0.00  0.00     0.072 A 
ATOM     17  S   UNL d   1     -38.497  14.919  15.767  0.00  0.00    -0.083 SA
ATOM     18  C   UNL d   1     -37.941  14.476  15.350  0.00  0.00     0.035 A 
ATOM     19  C   UNL d   1     -37.961  13.699  15.636  0.00  0.00     0.008 A 
ATOM     20  C   UNL d   1     -38.533  13.667  16.233  0.00  0.00     0.011 A 
ENDBRANCH   1  16
TORSDOF 3
ENDMDL
MODEL 9
REMARK VINA RESULT:      -5.5      2.407      4.975
REMARK  3 active torsions:
REMARK  status: ('A' for Active; 'I' for Inactive)
REMARK    1  A    between atoms: C_8  and  C_1 
REMARK    2  A    between atoms: N_5  and  C_2 
REMARK       I    between atoms: C_7  and  N_5 
REMARK    3  A    between atoms: C_10  and  C_7 
ROOT
ATOM      1  C   UNL d   1     -48.968  15.106  22.929  0.00  0.00     0.212 A 
ATOM      2  C   UNL d   1     -47.761  14.539  22.852  0.00  0.00     0.297 A 
ATOM      3  O   UNL d   1     -48.493  14.499  23.230  0.00  0.00    -0.253 OA
ATOM      4  N   UNL d   1     -48.526  15.513  22.370  0.00  0.00    -0.119 NA
ATOM      5  N   UNL d   1     -47.782  15.163  22.323  0.00  0.00    -0.101 NA
ENDROOT
BRANCH   2   6
ATOM      6  N   UNL d   1     -47.124  14.033  22.990  0.00  0.00    -0.165 NA
ATOM      7  C   UNL d   1     -46.940  13.447  22.453  0.00  0.00     0.282 C 
ATOM      8  O   UNL d   1     -47.388  13.352  21.764  0.00  0.00    -0.265 OA
BRANCH   7   9
ATOM      9  C   UNL d   1     -46.301  12.939  22.593  0.00  0.00     0.060 A 
ATOM     10  C   UNL d   1     -45.595  13.025  22.174  0.00  0.00     0.034 A 
ATOM     11  C   UNL d   1     -44.964  12.518  22.317  0.00  0.00     0.140 A 
ATOM     12  F   UNL d   1     -44.246  12.605  21.892  0.00  0.00    -0.204 F 
ATOM     13  C   UNL d   1     -45.030  11.919  22.880  0.00  0.00     0.030 A 
ATOM     14  C   UNL d   1     -45.733  11.834  23.297  0.00  0.00     0.003 A 
ATOM     15  C   UNL d   1     -46.365  12.337  23.158  0.00  0.00     0.005 A 
ENDBRANCH   7   9
ENDBRANCH   2   6
BRANCH   1  16
ATOM     16  C   UNL d   1     -49.748  15.267  23.157  0.00  0.00     0.072 A 
ATOM     17  S   UNL d   1     -50.405  14.806  22.987  0.00  0.00    -0.083 SA
ATOM     18  C   UNL d   1     -51.064  15.172  23.320  0.00  0.00     0.035 A 
ATOM     19  C   UNL d   1     -50.812  15.864  23.698  0.00  0.00     0.008 A 
ATOM     20  C   UNL d   1     -49.993  15.921  23.595  0.00  0.00     0.011 A 
ENDBRANCH   1  16
TORSDOF 3
ENDMDL
