MODEL 1
REMARK VINA RESULT:      -0.3      0.000      0.000
REMARK  6 active torsions:
REMARK  status: ('A' for Active; 'I' for Inactive)
REMARK    1  A    between atoms: N_6  and  S_1 
REMARK    2  A    between atoms: C_12  and  S_1 
REMARK    3  A    between atoms: C_2  and  N_5 
REMARK    4  A    between atoms: C_4  and  C_7 
REMARK       I    between atoms: N_5  and  C_4 
REMARK    5  A    between atoms: C_10  and  N_6 
REMARK    6  A    between atoms: C_15  and  C_8 
ROOT
ATOM      1  C   UNL d   1      58.621   0.216  31.154  0.00  0.00     0.076 A 
ATOM      2  C   UNL d   1      58.778  -0.289  30.529  0.00  0.00     0.098 A 
ATOM      3  C   UNL d   1      59.228   0.671  31.479  0.00  0.00     0.006 A 
ATOM      4  C   UNL d   1      59.546  -0.343  30.221  0.00  0.00     0.020 A 
ATOM      5  C   UNL d   1      59.995   0.616  31.171  0.00  0.00     0.000 A 
ATOM      6  C   UNL d   1      60.153   0.107  30.540  0.00  0.00     0.002 A 
ENDROOT
BRANCH   1   7
ATOM      7  C   UNL d   1      57.857   0.270  31.460  0.00  0.00     0.282 C 
ATOM      8  N   UNL d   1      57.745   0.414  32.258  0.00  0.00    -0.183 NA
ATOM      9  O   UNL d   1      57.208   0.179  30.961  0.00  0.00    -0.265 OA
BRANCH   8  10
ATOM     10  C   UNL d   1      56.977   0.469  32.566  0.00  0.00     0.197 A 
ATOM     11  N   UNL d   1      56.786   0.481  33.350  0.00  0.00    -0.221 NA
ATOM     12  C   UNL d   1      55.967   0.540  33.414  0.00  0.00     0.090 A 
ATOM     13  C   UNL d   1      55.660   0.563  32.644  0.00  0.00     0.058 A 
ATOM     14  S   UNL d   1      56.292   0.519  32.112  0.00  0.00    -0.046 SA
BRANCH  12  15
ATOM     15  C   UNL d   1      55.458   0.575  34.064  0.00  0.00     0.018 A 
ATOM     16  C   UNL d   1      55.768   0.580  34.837  0.00  0.00     0.004 A 
ATOM     17  C   UNL d   1      55.257   0.616  35.484  0.00  0.00     0.030 A 
ATOM     18  C   UNL d   1      54.443   0.646  35.355  0.00  0.00     0.140 A 
ATOM     19  C   UNL d   1      54.138   0.641  34.593  0.00  0.00     0.030 A 
ATOM     20  F   UNL d   1      53.932   0.681  35.998  0.00  0.00    -0.204 F 
ATOM     21  C   UNL d   1      54.640   0.605  33.946  0.00  0.00     0.004 A 
ENDBRANCH  12  15
ENDBRANCH   8  10
ENDBRANCH   1   7
BRANCH   2  22
ATOM     22  N   UNL d   1      58.172  -0.744  30.204  0.00  0.00    -0.158 NA
BRANCH  22  23
ATOM     23  S   UNL d   1      58.345  -1.495  29.851  0.00  0.00     0.285 S 
ATOM     24  O   UNL d   1      58.395  -1.125  29.118  0.00  0.00    -0.198 OA
ATOM     25  O   UNL d   1      58.287  -1.843  30.610  0.00  0.00    -0.198 OA
BRANCH  23  26
ATOM     26  C   UNL d   1      58.510  -2.216  29.514  0.00  0.00     0.105 A 
ATOM     27  C   UNL d   1      58.039  -2.488  28.894  0.00  0.00     0.013 A 
ATOM     28  C   UNL d   1      58.211  -3.239  28.542  0.00  0.00     0.001 A 
ATOM     29  C   UNL d   1      58.835  -3.683  28.816  0.00  0.00     0.000 A 
ATOM     30  C   UNL d   1      59.309  -3.400  29.447  0.00  0.00     0.001 A 
ATOM     31  C   UNL d   1      58.989  -4.408  28.465  0.00  0.00     0.000 C 
ATOM     32  C   UNL d   1      59.143  -2.666  29.792  0.00  0.00     0.013 A 
ENDBRANCH  23  26
ENDBRANCH  22  23
ENDBRANCH   2  22
TORSDOF 6
ENDMDL
MODEL 2
REMARK VINA RESULT:       0.3      2.788      6.437
REMARK  6 active torsions:
REMARK  status: ('A' for Active; 'I' for Inactive)
REMARK    1  A    between atoms: N_6  and  S_1 
REMARK    2  A    between atoms: C_12  and  S_1 
REMARK    3  A    between atoms: C_2  and  N_5 
REMARK    4  A    between atoms: C_4  and  C_7 
REMARK       I    between atoms: N_5  and  C_4 
REMARK    5  A    between atoms: C_10  and  N_6 
REMARK    6  A    between atoms: C_15  and  C_8 
ROOT
ATOM      1  C   UNL d   1      58.423  -1.064  29.120  0.00  0.00     0.076 A 
ATOM      2  C   UNL d   1      58.160  -0.745  29.826  0.00  0.00     0.098 A 
ATOM      3  C   UNL d   1      58.694  -0.568  28.519  0.00  0.00     0.006 A 
ATOM      4  C   UNL d   1      58.164   0.077  29.939  0.00  0.00     0.020 A 
ATOM      5  C   UNL d   1      58.698   0.253  28.632  0.00  0.00     0.000 A 
ATOM      6  C   UNL d   1      58.432   0.575  29.345  0.00  0.00     0.002 A 
ENDROOT
BRANCH   1   7
ATOM      7  C   UNL d   1      58.419  -1.881  29.008  0.00  0.00     0.282 C 
ATOM      8  N   UNL d   1      59.115  -2.275  28.833  0.00  0.00    -0.183 NA
ATOM      9  O   UNL d   1      57.712  -2.300  29.071  0.00  0.00    -0.265 OA
BRANCH   8  10
ATOM     10  C   UNL d   1      59.111  -3.096  28.720  0.00  0.00     0.197 A 
ATOM     11  N   UNL d   1      59.750  -3.583  28.799  0.00  0.00    -0.221 NA
ATOM     12  C   UNL d   1      59.506  -4.353  28.638  0.00  0.00     0.090 A 
ATOM     13  C   UNL d   1      58.697  -4.325  28.459  0.00  0.00     0.058 A 
ATOM     14  S   UNL d   1      58.449  -3.537  28.510  0.00  0.00    -0.046 SA
BRANCH  12  15
ATOM     15  C   UNL d   1      59.906  -5.076  28.631  0.00  0.00     0.018 A 
ATOM     16  C   UNL d   1      59.495  -5.783  28.790  0.00  0.00     0.004 A 
ATOM     17  C   UNL d   1      59.898  -6.503  28.782  0.00  0.00     0.030 A 
ATOM     18  C   UNL d   1      60.705  -6.512  28.615  0.00  0.00     0.140 A 
ATOM     19  C   UNL d   1      61.110  -5.816  28.457  0.00  0.00     0.030 A 
ATOM     20  F   UNL d   1      61.109  -7.229  28.605  0.00  0.00    -0.204 F 
ATOM     21  C   UNL d   1      60.716  -5.097  28.464  0.00  0.00     0.004 A 
ENDBRANCH  12  15
ENDBRANCH   8  10
ENDBRANCH   1   7
BRANCH   2  22
ATOM     22  N   UNL d   1      57.889  -1.241  30.427  0.00  0.00    -0.158 NA
BRANCH  22  23
ATOM     23  S   UNL d   1      57.510  -0.914  31.111  0.00  0.00     0.285 S 
ATOM     24  O   UNL d   1      56.790  -1.200  30.832  0.00  0.00    -0.198 OA
ATOM     25  O   UNL d   1      58.256  -0.636  31.368  0.00  0.00    -0.198 OA
BRANCH  23  26
ATOM     26  C   UNL d   1      57.147  -0.601  31.768  0.00  0.00     0.105 A 
ATOM     27  C   UNL d   1      56.519  -1.008  32.113  0.00  0.00     0.013 A 
ATOM     28  C   UNL d   1      56.139  -0.682  32.797  0.00  0.00     0.001 A 
ATOM     29  C   UNL d   1      56.397   0.026  33.106  0.00  0.00     0.000 A 
ATOM     30  C   UNL d   1      57.036   0.434  32.749  0.00  0.00     0.001 A 
ATOM     31  C   UNL d   1      56.020   0.328  33.768  0.00  0.00     0.000 C 
ATOM     32  C   UNL d   1      57.408   0.117  32.080  0.00  0.00     0.013 A 
ENDBRANCH  23  26
ENDBRANCH  22  23
ENDBRANCH   2  22
TORSDOF 6
ENDMDL
