MODEL 1
REMARK VINA RESULT:      -8.9      0.000      0.000
REMARK  5 active torsions:
REMARK  status: ('A' for Active; 'I' for Inactive)
REMARK    1  A    between atoms: N_2  and  S_1 
REMARK    2  A    between atoms: C_4  and  S_1 
REMARK    3  A    between atoms: C_5  and  N_3 
REMARK    4  A    between atoms: C_11  and  C_4 
REMARK    5  A    between atoms: C_15  and  C_11 
ROOT
ATOM      1  N   UNL d   1      51.218  34.063  52.966  0.00  0.00    -0.226 N 
ATOM      2  N   UNL d   1      52.695  33.605  53.511  0.00  0.00    -0.301 N 
ATOM      3  C   UNL d   1      51.324  33.307  53.261  0.00  0.00     0.111 A 
ATOM      4  C   UNL d   1      51.850  34.591  52.943  0.00  0.00     0.111 A 
ATOM      5  C   UNL d   1      52.581  34.358  53.214  0.00  0.00     0.100 A 
ATOM      6  C   UNL d   1      52.063  33.076  53.534  0.00  0.00     0.100 A 
ENDROOT
BRANCH   1   7
ATOM      7  S   UNL d   1      50.461  34.294  52.688  0.00  0.00     0.272 S 
ATOM      8  O   UNL d   1      50.778  34.407  51.924  0.00  0.00    -0.200 OA
ATOM      9  O   UNL d   1      50.150  34.181  53.448  0.00  0.00    -0.200 OA
BRANCH   7  10
ATOM     10  C   UNL d   1      49.716  34.523  52.412  0.00  0.00     0.116 C 
BRANCH  10  11
ATOM     11  C   UNL d   1      49.295  35.127  52.808  0.00  0.00     0.014 C 
BRANCH  11  12
ATOM     12  C   UNL d   1      48.577  35.403  52.500  0.00  0.00     0.001 A 
ATOM     13  C   UNL d   1      48.118  35.946  52.940  0.00  0.00     0.000 A 
ATOM     14  C   UNL d   1      47.394  36.226  52.633  0.00  0.00     0.000 A 
ATOM     15  C   UNL d   1      47.131  35.965  51.892  0.00  0.00     0.000 A 
ATOM     16  C   UNL d   1      47.587  35.419  51.445  0.00  0.00     0.000 A 
ATOM     17  C   UNL d   1      48.312  35.139  51.752  0.00  0.00     0.000 A 
ENDBRANCH  11  12
ENDBRANCH  10  11
ENDBRANCH   7  10
ENDBRANCH   1   7
BRANCH   2  18
ATOM     18  C   UNL d   1      53.431  33.379  53.781  0.00  0.00     0.065 A 
ATOM     19  C   UNL d   1      53.680  33.617  54.521  0.00  0.00     0.029 A 
ATOM     20  C   UNL d   1      54.413  33.393  54.793  0.00  0.00     0.059 A 
ATOM     21 CL   UNL d   1      54.668  33.633  55.545  0.00  0.00    -0.082 Cl
ATOM     22  C   UNL d   1      54.904  32.928  54.323  0.00  0.00     0.011 A 
ATOM     23  C   UNL d   1      54.650  32.694  53.582  0.00  0.00     0.002 A 
ATOM     24  C   UNL d   1      53.914  32.919  53.312  0.00  0.00     0.018 A 
ENDBRANCH   2  18
TORSDOF 5
ENDMDL
MODEL 2
REMARK VINA RESULT:      -6.2      9.974     10.919
REMARK  5 active torsions:
REMARK  status: ('A' for Active; 'I' for Inactive)
REMARK    1  A    between atoms: N_2  and  S_1 
REMARK    2  A    between atoms: C_4  and  S_1 
REMARK    3  A    between atoms: C_5  and  N_3 
REMARK    4  A    between atoms: C_11  and  C_4 
REMARK    5  A    between atoms: C_15  and  C_11 
ROOT
ATOM      1  N   UNL d   1      45.095  27.512  57.225  0.00  0.00    -0.226 N 
ATOM      2  N   UNL d   1      45.009  28.981  57.949  0.00  0.00    -0.301 N 
ATOM      3  C   UNL d   1      45.150  27.566  58.039  0.00  0.00     0.111 A 
ATOM      4  C   UNL d   1      44.997  28.193  56.771  0.00  0.00     0.111 A 
ATOM      5  C   UNL d   1      44.955  28.920  57.136  0.00  0.00     0.100 A 
ATOM      6  C   UNL d   1      45.108  28.301  58.403  0.00  0.00     0.100 A 
ENDROOT
BRANCH   1   7
ATOM      7  S   UNL d   1      45.139  26.760  56.857  0.00  0.00     0.272 S 
ATOM      8  O   UNL d   1      45.897  26.951  56.561  0.00  0.00    -0.200 OA
ATOM      9  O   UNL d   1      44.388  26.575  57.151  0.00  0.00    -0.200 OA
BRANCH   7  10
ATOM     10  C   UNL d   1      45.185  26.019  56.493  0.00  0.00     0.116 C 
BRANCH  10  11
ATOM     11  C   UNL d   1      44.488  25.654  56.209  0.00  0.00     0.014 C 
BRANCH  11  12
ATOM     12  C   UNL d   1      44.540  24.966  55.748  0.00  0.00     0.001 A 
ATOM     13  C   UNL d   1      44.819  24.257  56.093  0.00  0.00     0.000 A 
ATOM     14  C   UNL d   1      44.872  23.563  55.632  0.00  0.00     0.000 A 
ATOM     15  C   UNL d   1      44.649  23.577  54.835  0.00  0.00     0.000 A 
ATOM     16  C   UNL d   1      44.368  24.286  54.483  0.00  0.00     0.000 A 
ATOM     17  C   UNL d   1      44.314  24.981  54.943  0.00  0.00     0.000 A 
ENDBRANCH  11  12
ENDBRANCH  10  11
ENDBRANCH   7  10
ENDBRANCH   1   7
BRANCH   2  18
ATOM     18  C   UNL d   1      44.966  29.713  58.307  0.00  0.00     0.065 A 
ATOM     19  C   UNL d   1      45.009  29.768  59.121  0.00  0.00     0.029 A 
ATOM     20  C   UNL d   1      44.967  30.496  59.480  0.00  0.00     0.059 A 
ATOM     21 CL   UNL d   1      45.010  30.554  60.307  0.00  0.00    -0.082 Cl
ATOM     22  C   UNL d   1      44.881  31.177  59.025  0.00  0.00     0.011 A 
ATOM     23  C   UNL d   1      44.838  31.116  58.212  0.00  0.00     0.002 A 
ATOM     24  C   UNL d   1      44.881  30.385  57.853  0.00  0.00     0.018 A 
ENDBRANCH   2  18
TORSDOF 5
ENDMDL
