MODEL 1
REMARK VINA RESULT:      -7.7      0.000      0.000
REMARK  3 active torsions:
REMARK  status: ('A' for Active; 'I' for Inactive)
REMARK    1  A    between atoms: C_6  and  N_2 
REMARK    2  A    between atoms: C_7  and  C_6 
REMARK    3  A    between atoms: C_8  and  C_7 
ROOT
ATOM      1  N   UNL d   1     -46.271  13.546  22.938  0.00  0.00    -0.224 NA
ATOM      2  N   UNL d   1     -47.593  13.583  23.021  0.00  0.00    -0.287 N 
ATOM      3  C   UNL d   1     -46.928  13.985  22.843  0.00  0.00     0.183 A 
ATOM      4  C   UNL d   1     -47.348  12.813  23.254  0.00  0.00     0.083 A 
ATOM      5  C   UNL d   1     -46.555  12.791  23.204  0.00  0.00     0.099 A 
ATOM      6  C   UNL d   1     -47.744  12.141  23.501  0.00  0.00     0.019 A 
ATOM      7  C   UNL d   1     -46.086  12.094  23.396  0.00  0.00     0.021 A 
ATOM      8  C   UNL d   1     -47.359  11.448  23.698  0.00  0.00     0.002 A 
ATOM      9  C   UNL d   1     -46.566  11.425  23.648  0.00  0.00     0.002 A 
ENDROOT
BRANCH   2  10
ATOM     10  C   UNL d   1     -48.391  13.839  22.996  0.00  0.00     0.082 C 
BRANCH  10  11
ATOM     11  C   UNL d   1     -48.555  14.596  22.782  0.00  0.00     0.019 C 
BRANCH  11  12
ATOM     12  C   UNL d   1     -49.343  14.871  22.840  0.00  0.00     0.002 A 
ATOM     13  C   UNL d   1     -49.536  15.415  23.451  0.00  0.00     0.000 A 
ATOM     14  C   UNL d   1     -50.326  15.693  23.511  0.00  0.00     0.000 A 
ATOM     15  C   UNL d   1     -50.885  15.427  22.973  0.00  0.00     0.000 A 
ATOM     16  C   UNL d   1     -50.688  14.883  22.363  0.00  0.00     0.000 A 
ATOM     17  C   UNL d   1     -49.921  14.617  22.310  0.00  0.00     0.000 A 
ENDBRANCH  11  12
ENDBRANCH  10  11
ENDBRANCH   2  10
TORSDOF 3
ENDMDL
MODEL 2
REMARK VINA RESULT:      -6.9      1.060      4.133
REMARK  3 active torsions:
REMARK  status: ('A' for Active; 'I' for Inactive)
REMARK    1  A    between atoms: C_6  and  N_2 
REMARK    2  A    between atoms: C_7  and  C_6 
REMARK    3  A    between atoms: C_8  and  C_7 
ROOT
ATOM      1  N   UNL d   1     -50.407  13.961  21.869  0.00  0.00    -0.224 NA
ATOM      2  N   UNL d   1     -49.219  13.997  22.455  0.00  0.00    -0.287 N 
ATOM      3  C   UNL d   1     -49.674  13.652  21.899  0.00  0.00     0.183 A 
ATOM      4  C   UNL d   1     -49.698  14.583  22.820  0.00  0.00     0.083 A 
ATOM      5  C   UNL d   1     -50.411  14.561  22.469  0.00  0.00     0.099 A 
ATOM      6  C   UNL d   1     -49.574  15.126  23.421  0.00  0.00     0.019 A 
ATOM      7  C   UNL d   1     -51.064  15.080  22.686  0.00  0.00     0.021 A 
ATOM      8  C   UNL d   1     -50.151  15.645  23.674  0.00  0.00     0.002 A 
ATOM      9  C   UNL d   1     -50.864  15.623  23.323  0.00  0.00     0.002 A 
ENDROOT
BRANCH   2  10
ATOM     10  C   UNL d   1     -48.423  13.837  22.663  0.00  0.00     0.082 C 
BRANCH  10  11
ATOM     11  C   UNL d   1     -48.048  13.208  22.334  0.00  0.00     0.019 C 
BRANCH  11  12
ATOM     12  C   UNL d   1     -47.264  13.034  22.570  0.00  0.00     0.002 A 
ATOM     13  C   UNL d   1     -47.140  12.430  23.141  0.00  0.00     0.000 A 
ATOM     14  C   UNL d   1     -46.354  12.254  23.380  0.00  0.00     0.000 A 
ATOM     15  C   UNL d   1     -45.733  12.675  23.049  0.00  0.00     0.000 A 
ATOM     16  C   UNL d   1     -45.862  13.278  22.478  0.00  0.00     0.000 A 
ATOM     17  C   UNL d   1     -46.625  13.445  22.251  0.00  0.00     0.000 A 
ENDBRANCH  11  12
ENDBRANCH  10  11
ENDBRANCH   2  10
TORSDOF 3
ENDMDL
MODEL 3
REMARK VINA RESULT:      -6.8      1.825      2.325
REMARK  3 active torsions:
REMARK  status: ('A' for Active; 'I' for Inactive)
REMARK    1  A    between atoms: C_6  and  N_2 
REMARK    2  A    between atoms: C_7  and  C_6 
REMARK    3  A    between atoms: C_8  and  C_7 
ROOT
ATOM      1  N   UNL d   1     -46.215  11.635  23.628  0.00  0.00    -0.224 NA
ATOM      2  N   UNL d   1     -47.328  12.271  23.294  0.00  0.00    -0.287 N 
ATOM      3  C   UNL d   1     -47.007  11.664  23.698  0.00  0.00     0.183 A 
ATOM      4  C   UNL d   1     -46.689  12.675  22.927  0.00  0.00     0.083 A 
ATOM      5  C   UNL d   1     -46.021  12.294  23.128  0.00  0.00     0.099 A 
ATOM      6  C   UNL d   1     -46.634  13.333  22.444  0.00  0.00     0.019 A 
ATOM      7  C   UNL d   1     -45.237  12.536  22.862  0.00  0.00     0.021 A 
ATOM      8  C   UNL d   1     -45.922  13.615  22.158  0.00  0.00     0.002 A 
ATOM      9  C   UNL d   1     -45.254  13.233  22.358  0.00  0.00     0.002 A 
ENDROOT
BRANCH   2  10
ATOM     10  C   UNL d   1     -48.134  12.495  23.224  0.00  0.00     0.082 C 
BRANCH  10  11
ATOM     11  C   UNL d   1     -48.699  11.927  23.185  0.00  0.00     0.019 C 
BRANCH  11  12
ATOM     12  C   UNL d   1     -49.495  12.154  23.064  0.00  0.00     0.002 A 
ATOM     13  C   UNL d   1     -50.049  12.026  23.683  0.00  0.00     0.000 A 
ATOM     14  C   UNL d   1     -50.849  12.253  23.564  0.00  0.00     0.000 A 
ATOM     15  C   UNL d   1     -51.064  12.593  22.849  0.00  0.00     0.000 A 
ATOM     16  C   UNL d   1     -50.507  12.719  22.232  0.00  0.00     0.000 A 
ATOM     17  C   UNL d   1     -49.734  12.497  22.353  0.00  0.00     0.000 A 
ENDBRANCH  11  12
ENDBRANCH  10  11
ENDBRANCH   2  10
TORSDOF 3
ENDMDL
MODEL 4
REMARK VINA RESULT:      -6.7      1.674      3.840
REMARK  3 active torsions:
REMARK  status: ('A' for Active; 'I' for Inactive)
REMARK    1  A    between atoms: C_6  and  N_2 
REMARK    2  A    between atoms: C_7  and  C_6 
REMARK    3  A    between atoms: C_8  and  C_7 
ROOT
ATOM      1  N   UNL d   1     -49.354  11.274  23.536  0.00  0.00    -0.224 NA
ATOM      2  N   UNL d   1     -48.628  12.325  23.184  0.00  0.00    -0.287 N 
ATOM      3  C   UNL d   1     -48.623  11.557  23.397  0.00  0.00     0.183 A 
ATOM      4  C   UNL d   1     -49.433  12.565  23.185  0.00  0.00     0.083 A 
ATOM      5  C   UNL d   1     -49.869  11.935  23.396  0.00  0.00     0.099 A 
ATOM      6  C   UNL d   1     -49.817  13.269  23.021  0.00  0.00     0.019 A 
ATOM      7  C   UNL d   1     -50.728  11.951  23.463  0.00  0.00     0.021 A 
ATOM      8  C   UNL d   1     -50.629  13.352  23.066  0.00  0.00     0.002 A 
ATOM      9  C   UNL d   1     -51.064  12.721  23.277  0.00  0.00     0.002 A 
ENDROOT
BRANCH   2  10
ATOM     10  C   UNL d   1     -47.983  12.827  22.992  0.00  0.00     0.082 C 
BRANCH  10  11
ATOM     11  C   UNL d   1     -47.252  12.656  23.277  0.00  0.00     0.019 C 
BRANCH  11  12
ATOM     12  C   UNL d   1     -46.589  13.054  22.957  0.00  0.00     0.002 A 
ATOM     13  C   UNL d   1     -45.987  12.600  22.587  0.00  0.00     0.000 A 
ATOM     14  C   UNL d   1     -45.321  12.997  22.265  0.00  0.00     0.000 A 
ATOM     15  C   UNL d   1     -45.278  13.814  22.321  0.00  0.00     0.000 A 
ATOM     16  C   UNL d   1     -45.883  14.265  22.693  0.00  0.00     0.000 A 
ATOM     17  C   UNL d   1     -46.526  13.874  23.003  0.00  0.00     0.000 A 
ENDBRANCH  11  12
ENDBRANCH  10  11
ENDBRANCH   2  10
TORSDOF 3
ENDMDL
MODEL 5
REMARK VINA RESULT:      -5.5      8.826      9.742
REMARK  3 active torsions:
REMARK  status: ('A' for Active; 'I' for Inactive)
REMARK    1  A    between atoms: C_6  and  N_2 
REMARK    2  A    between atoms: C_7  and  C_6 
REMARK    3  A    between atoms: C_8  and  C_7 
ROOT
ATOM      1  N   UNL d   1     -40.938  14.049  18.096  0.00  0.00    -0.224 NA
ATOM      2  N   UNL d   1     -40.229  14.718  18.993  0.00  0.00    -0.287 N 
ATOM      3  C   UNL d   1     -40.740  14.120  18.863  0.00  0.00     0.183 A 
ATOM      4  C   UNL d   1     -40.080  15.068  18.244  0.00  0.00     0.083 A 
ATOM      5  C   UNL d   1     -40.506  14.667  17.705  0.00  0.00     0.099 A 
ATOM      6  C   UNL d   1     -39.617  15.693  17.989  0.00  0.00     0.019 A 
ATOM      7  C   UNL d   1     -40.507  14.854  16.863  0.00  0.00     0.021 A 
ATOM      8  C   UNL d   1     -39.574  15.922  17.206  0.00  0.00     0.002 A 
ATOM      9  C   UNL d   1     -39.999  15.520  16.668  0.00  0.00     0.002 A 
ENDROOT
BRANCH   2  10
ATOM     10  C   UNL d   1     -39.887  14.977  19.714  0.00  0.00     0.082 C 
BRANCH  10  11
ATOM     11  C   UNL d   1     -40.180  14.704  20.410  0.00  0.00     0.019 C 
BRANCH  11  12
ATOM     12  C   UNL d   1     -39.816  14.943  21.124  0.00  0.00     0.002 A 
ATOM     13  C   UNL d   1     -39.291  14.411  21.507  0.00  0.00     0.000 A 
ATOM     14  C   UNL d   1     -38.925  14.650  22.225  0.00  0.00     0.000 A 
ATOM     15  C   UNL d   1     -39.091  15.393  22.529  0.00  0.00     0.000 A 
ATOM     16  C   UNL d   1     -39.617  15.922  22.143  0.00  0.00     0.000 A 
ATOM     17  C   UNL d   1     -39.969  15.686  21.448  0.00  0.00     0.000 A 
ENDBRANCH  11  12
ENDBRANCH  10  11
ENDBRANCH   2  10
TORSDOF 3
ENDMDL
MODEL 6
REMARK VINA RESULT:      -5.2      8.511     10.383
REMARK  3 active torsions:
REMARK  status: ('A' for Active; 'I' for Inactive)
REMARK    1  A    between atoms: C_6  and  N_2 
REMARK    2  A    between atoms: C_7  and  C_6 
REMARK    3  A    between atoms: C_8  and  C_7 
ROOT
ATOM      1  N   UNL d   1     -40.978  15.816  19.342  0.00  0.00    -0.224 NA
ATOM      2  N   UNL d   1     -39.977  14.993  19.063  0.00  0.00    -0.287 N 
ATOM      3  C   UNL d   1     -40.593  15.409  18.776  0.00  0.00     0.183 A 
ATOM      4  C   UNL d   1     -39.958  15.140  19.891  0.00  0.00     0.083 A 
ATOM      5  C   UNL d   1     -40.558  15.634  20.058  0.00  0.00     0.099 A 
ATOM      6  C   UNL d   1     -39.476  14.890  20.503  0.00  0.00     0.019 A 
ATOM      7  C   UNL d   1     -40.731  15.922  20.852  0.00  0.00     0.021 A 
ATOM      8  C   UNL d   1     -39.585  15.125  21.277  0.00  0.00     0.002 A 
ATOM      9  C   UNL d   1     -40.185  15.619  21.444  0.00  0.00     0.002 A 
ENDROOT
BRANCH   2  10
ATOM     10  C   UNL d   1     -39.435  14.498  18.657  0.00  0.00     0.082 C 
BRANCH  10  11
ATOM     11  C   UNL d   1     -39.609  14.250  17.914  0.00  0.00     0.019 C 
BRANCH  11  12
ATOM     12  C   UNL d   1     -39.047  13.790  17.498  0.00  0.00     0.002 A 
ATOM     13  C   UNL d   1     -38.646  14.135  16.845  0.00  0.00     0.000 A 
ATOM     14  C   UNL d   1     -38.082  13.674  16.427  0.00  0.00     0.000 A 
ATOM     15  C   UNL d   1     -37.940  12.903  16.668  0.00  0.00     0.000 A 
ATOM     16  C   UNL d   1     -38.343  12.561  17.321  0.00  0.00     0.000 A 
ATOM     17  C   UNL d   1     -38.889  13.012  17.723  0.00  0.00     0.000 A 
ENDBRANCH  11  12
ENDBRANCH  10  11
ENDBRANCH   2  10
TORSDOF 3
ENDMDL
MODEL 7
REMARK VINA RESULT:      -5.1      8.372      9.412
REMARK  3 active torsions:
REMARK  status: ('A' for Active; 'I' for Inactive)
REMARK    1  A    between atoms: C_6  and  N_2 
REMARK    2  A    between atoms: C_7  and  C_6 
REMARK    3  A    between atoms: C_8  and  C_7 
ROOT
ATOM      1  N   UNL d   1     -40.276  14.211  21.685  0.00  0.00    -0.224 NA
ATOM      2  N   UNL d   1     -39.856  14.339  20.435  0.00  0.00    -0.287 N 
ATOM      3  C   UNL d   1     -40.460  14.438  20.944  0.00  0.00     0.183 A 
ATOM      4  C   UNL d   1     -39.220  14.019  20.882  0.00  0.00     0.083 A 
ATOM      5  C   UNL d   1     -39.472  13.942  21.632  0.00  0.00     0.099 A 
ATOM      6  C   UNL d   1     -38.455  13.792  20.701  0.00  0.00     0.019 A 
ATOM      7  C   UNL d   1     -38.982  13.631  22.269  0.00  0.00     0.021 A 
ATOM      8  C   UNL d   1     -37.940  13.490  21.258  0.00  0.00     0.002 A 
ATOM      9  C   UNL d   1     -38.192  13.413  22.008  0.00  0.00     0.002 A 
ENDROOT
BRANCH   2  10
ATOM     10  C   UNL d   1     -39.821  14.508  19.614  0.00  0.00     0.082 C 
BRANCH  10  11
ATOM     11  C   UNL d   1     -40.500  14.652  19.212  0.00  0.00     0.019 C 
BRANCH  11  12
ATOM     12  C   UNL d   1     -40.456  14.873  18.406  0.00  0.00     0.002 A 
ATOM     13  C   UNL d   1     -40.601  15.674  18.198  0.00  0.00     0.000 A 
ATOM     14  C   UNL d   1     -40.557  15.898  17.390  0.00  0.00     0.000 A 
ATOM     15  C   UNL d   1     -40.373  15.329  16.828  0.00  0.00     0.000 A 
ATOM     16  C   UNL d   1     -40.228  14.528  17.040  0.00  0.00     0.000 A 
ATOM     17  C   UNL d   1     -40.273  14.318  17.825  0.00  0.00     0.000 A 
ENDBRANCH  11  12
ENDBRANCH  10  11
ENDBRANCH   2  10
TORSDOF 3
ENDMDL
