MODEL 1
REMARK VINA RESULT:      -5.3      0.000      0.000
REMARK  3 active torsions:
REMARK  status: ('A' for Active; 'I' for Inactive)
REMARK    1  A    between atoms: C_2  and  C_1 
REMARK       I    between atoms: N_7  and  C_2 
REMARK    2  A    between atoms: C_9  and  N_7 
REMARK    3  A    between atoms: O_13  and  C_11 
ROOT
ATOM      1  C   UNL d   1     -41.424-121.741 -51.962  0.00  0.00     0.280 C 
ATOM      2  N   UNL d   1     -41.623-121.707 -51.167  0.00  0.00    -0.208 NA
ATOM      3  O   UNL d   1     -41.288-121.049 -52.383  0.00  0.00    -0.265 OA
ENDROOT
BRANCH   1   4
ATOM      4  C   UNL d   1     -41.360-122.473 -52.341  0.00  0.00     0.065 A 
ATOM      5  C   UNL d   1     -41.514-122.627 -53.133  0.00  0.00     0.011 A 
ATOM      6  C   UNL d   1     -41.380-123.429 -53.279  0.00  0.00     0.030 A 
ATOM      7  C   UNL d   1     -41.761-122.130 -53.743  0.00  0.00     0.001 A 
ATOM      8  C   UNL d   1     -41.494-123.735 -54.035  0.00  0.00     0.006 A 
ATOM      9  S   UNL d   1     -41.138-123.789 -52.569  0.00  0.00    -0.086 SA
ATOM     10  C   UNL d   1     -41.741-123.239 -54.647  0.00  0.00     0.001 A 
ATOM     11  C   UNL d   1     -41.874-122.437 -54.500  0.00  0.00     0.000 A 
ATOM     12  C   UNL d   1     -41.123-123.205 -51.982  0.00  0.00     0.040 A 
ENDBRANCH   1   4
BRANCH   2  13
ATOM     13  C   UNL d   1     -41.761-122.409 -50.740  0.00  0.00     0.087 A 
ATOM     14  C   UNL d   1     -42.533-122.615 -50.539  0.00  0.00     0.043 A 
ATOM     15  C   UNL d   1     -42.667-123.315 -50.113  0.00  0.00     0.096 A 
ATOM     16  C   UNL d   1     -42.031-123.797 -49.896  0.00  0.00     0.024 A 
ATOM     17  C   UNL d   1     -41.259-123.579 -50.104  0.00  0.00     0.004 A 
ATOM     18  C   UNL d   1     -41.123-122.887 -50.525  0.00  0.00     0.019 A 
BRANCH  15  19
ATOM     19  O   UNL d   1     -43.439-123.519 -49.913  0.00  0.00    -0.328 OA
ATOM     20  C   UNL d   1     -43.624-123.743 -49.140  0.00  0.00     0.181 C 
ENDBRANCH  15  19
ENDBRANCH   2  13
TORSDOF 3
ENDMDL
MODEL 2
REMARK VINA RESULT:      -4.6      0.987      1.351
REMARK  3 active torsions:
REMARK  status: ('A' for Active; 'I' for Inactive)
REMARK    1  A    between atoms: C_2  and  C_1 
REMARK       I    between atoms: N_7  and  C_2 
REMARK    2  A    between atoms: C_9  and  N_7 
REMARK    3  A    between atoms: O_13  and  C_11 
ROOT
ATOM      1  C   UNL d   1     -41.697-121.759 -51.005  0.00  0.00     0.280 C 
ATOM      2  N   UNL d   1     -42.158-121.726 -50.326  0.00  0.00    -0.208 NA
ATOM      3  O   UNL d   1     -41.426-121.066 -51.353  0.00  0.00    -0.265 OA
ENDROOT
BRANCH   1   4
ATOM      4  C   UNL d   1     -41.506-122.490 -51.339  0.00  0.00     0.065 A 
ATOM      5  C   UNL d   1     -41.524-122.680 -52.138  0.00  0.00     0.011 A 
ATOM      6  C   UNL d   1     -41.293-123.468 -52.229  0.00  0.00     0.030 A 
ATOM      7  C   UNL d   1     -41.725-122.228 -52.798  0.00  0.00     0.001 A 
ATOM      8  C   UNL d   1     -41.262-123.805 -52.980  0.00  0.00     0.006 A 
ATOM      9  S   UNL d   1     -41.126-123.782 -51.477  0.00  0.00    -0.086 SA
ATOM     10  C   UNL d   1     -41.462-123.354 -53.641  0.00  0.00     0.001 A 
ATOM     11  C   UNL d   1     -41.693-122.566 -53.550  0.00  0.00     0.000 A 
ATOM     12  C   UNL d   1     -41.255-123.184 -50.919  0.00  0.00     0.040 A 
ENDBRANCH   1   4
BRANCH   2  13
ATOM     13  C   UNL d   1     -42.433-122.428 -49.973  0.00  0.00     0.087 A 
ATOM     14  C   UNL d   1     -42.008-122.760 -49.349  0.00  0.00     0.043 A 
ATOM     15  C   UNL d   1     -42.285-123.460 -48.999  0.00  0.00     0.096 A 
ATOM     16  C   UNL d   1     -42.979-123.817 -49.276  0.00  0.00     0.024 A 
ATOM     17  C   UNL d   1     -43.396-123.473 -49.904  0.00  0.00     0.004 A 
ATOM     18  C   UNL d   1     -43.125-122.781 -50.252  0.00  0.00     0.019 A 
BRANCH  15  19
ATOM     19  O   UNL d   1     -41.861-123.791 -48.376  0.00  0.00    -0.328 OA
ATOM     20  C   UNL d   1     -42.090-123.650 -47.595  0.00  0.00     0.181 C 
ENDBRANCH  15  19
ENDBRANCH   2  13
TORSDOF 3
ENDMDL
MODEL 3
REMARK VINA RESULT:      -4.4      1.495      4.124
REMARK  3 active torsions:
REMARK  status: ('A' for Active; 'I' for Inactive)
REMARK    1  A    between atoms: C_2  and  C_1 
REMARK       I    between atoms: N_7  and  C_2 
REMARK    2  A    between atoms: C_9  and  N_7 
REMARK    3  A    between atoms: O_13  and  C_11 
ROOT
ATOM      1  C   UNL d   1     -43.154-123.277 -49.880  0.00  0.00     0.280 C 
ATOM      2  N   UNL d   1     -43.192-122.757 -50.514  0.00  0.00    -0.208 NA
ATOM      3  O   UNL d   1     -43.840-123.623 -49.589  0.00  0.00    -0.265 OA
ENDROOT
BRANCH   1   4
ATOM      4  C   UNL d   1     -42.424-123.453 -49.533  0.00  0.00     0.065 A 
ATOM      5  C   UNL d   1     -42.243-123.412 -48.734  0.00  0.00     0.011 A 
ATOM      6  C   UNL d   1     -41.454-123.634 -48.629  0.00  0.00     0.030 A 
ATOM      7  C   UNL d   1     -42.703-123.199 -48.084  0.00  0.00     0.001 A 
ATOM      8  C   UNL d   1     -41.125-123.643 -47.873  0.00  0.00     0.006 A 
ATOM      9  S   UNL d   1     -41.131-123.817 -49.373  0.00  0.00    -0.086 SA
ATOM     10  C   UNL d   1     -41.584-123.430 -47.222  0.00  0.00     0.001 A 
ATOM     11  C   UNL d   1     -42.373-123.208 -47.328  0.00  0.00     0.000 A 
ATOM     12  C   UNL d   1     -41.724-123.708 -49.940  0.00  0.00     0.040 A 
ENDBRANCH   1   4
BRANCH   2  13
ATOM     13  C   UNL d   1     -42.497-122.406 -50.810  0.00  0.00     0.087 A 
ATOM     14  C   UNL d   1     -42.170-122.687 -51.512  0.00  0.00     0.043 A 
ATOM     15  C   UNL d   1     -41.477-122.335 -51.805  0.00  0.00     0.096 A 
ATOM     16  C   UNL d   1     -41.123-121.711 -51.393  0.00  0.00     0.024 A 
ATOM     17  C   UNL d   1     -41.462-121.438 -50.687  0.00  0.00     0.004 A 
ATOM     18  C   UNL d   1     -42.147-121.784 -50.396  0.00  0.00     0.019 A 
BRANCH  15  19
ATOM     19  O   UNL d   1     -41.152-122.615 -52.506  0.00  0.00    -0.328 OA
ATOM     20  C   UNL d   1     -41.272-122.208 -53.214  0.00  0.00     0.181 C 
ENDBRANCH  15  19
ENDBRANCH   2  13
TORSDOF 3
ENDMDL
MODEL 4
REMARK VINA RESULT:      -4.1      1.097      3.405
REMARK  3 active torsions:
REMARK  status: ('A' for Active; 'I' for Inactive)
REMARK    1  A    between atoms: C_2  and  C_1 
REMARK       I    between atoms: N_7  and  C_2 
REMARK    2  A    between atoms: C_9  and  N_7 
REMARK    3  A    between atoms: O_13  and  C_11 
ROOT
ATOM      1  C   UNL d   1     -41.319-121.717 -51.551  0.00  0.00     0.280 C 
ATOM      2  N   UNL d   1     -41.306-121.556 -52.356  0.00  0.00    -0.208 NA
ATOM      3  O   UNL d   1     -41.124-121.131 -51.009  0.00  0.00    -0.265 OA
ENDROOT
BRANCH   1   4
ATOM      4  C   UNL d   1     -41.530-122.471 -51.284  0.00  0.00     0.065 A 
ATOM      5  C   UNL d   1     -42.083-122.645 -50.703  0.00  0.00     0.011 A 
ATOM      6  C   UNL d   1     -42.122-123.465 -50.610  0.00  0.00     0.030 A 
ATOM      7  C   UNL d   1     -42.560-122.153 -50.245  0.00  0.00     0.001 A 
ATOM      8  C   UNL d   1     -42.637-123.793 -50.058  0.00  0.00     0.006 A 
ATOM      9  S   UNL d   1     -41.585-123.815 -51.139  0.00  0.00    -0.086 SA
ATOM     10  C   UNL d   1     -43.115-123.302 -49.598  0.00  0.00     0.001 A 
ATOM     11  C   UNL d   1     -43.077-122.483 -49.692  0.00  0.00     0.000 A 
ATOM     12  C   UNL d   1     -41.213-123.208 -51.562  0.00  0.00     0.040 A 
ENDBRANCH   1   4
BRANCH   2  13
ATOM     13  C   UNL d   1     -41.503-122.150 -52.905  0.00  0.00     0.087 A 
ATOM     14  C   UNL d   1     -42.077-121.996 -53.476  0.00  0.00     0.043 A 
ATOM     15  C   UNL d   1     -42.272-122.591 -54.022  0.00  0.00     0.096 A 
ATOM     16  C   UNL d   1     -41.893-123.325 -53.990  0.00  0.00     0.024 A 
ATOM     17  C   UNL d   1     -41.318-123.466 -53.410  0.00  0.00     0.004 A 
ATOM     18  C   UNL d   1     -41.123-122.881 -52.868  0.00  0.00     0.019 A 
BRANCH  15  19
ATOM     19  O   UNL d   1     -42.845-122.437 -54.593  0.00  0.00    -0.328 OA
ATOM     20  C   UNL d   1     -42.625-122.175 -55.344  0.00  0.00     0.181 C 
ENDBRANCH  15  19
ENDBRANCH   2  13
TORSDOF 3
ENDMDL
