MODEL 1
REMARK VINA RESULT:      -6.6      0.000      0.000
REMARK  8 active torsions:
REMARK  status: ('A' for Active; 'I' for Inactive)
REMARK    1  A    between atoms: N_7  and  N_1 
REMARK    2  A    between atoms: S_9  and  C_2 
REMARK       I    between atoms: C_8  and  N_7 
REMARK    3  A    between atoms: C_21  and  C_8 
REMARK    4  A    between atoms: C_20  and  S_9 
REMARK    5  A    between atoms: C_10  and  C_20 
REMARK       I    between atoms: N_14  and  C_10 
REMARK    6  A    between atoms: C_12  and  C_22 
REMARK    7  A    between atoms: C_22  and  N_14 
REMARK    8  A    between atoms: C_24  and  C_21 
ROOT
ATOM      1  N   UNL d   1     -46.230  12.485  23.107  0.00  0.00    -0.168 N 
ATOM      2  C   UNL d   1     -46.206  13.233  22.776  0.00  0.00     0.199 A 
ATOM      3  C   UNL d   1     -45.575  11.970  23.026  0.00  0.00     0.283 A 
ATOM      4  N   UNL d   1     -45.526  13.490  22.353  0.00  0.00    -0.221 NA
ATOM      5  C   UNL d   1     -44.897  12.233  22.601  0.00  0.00     0.076 A 
ATOM      6  C   UNL d   1     -44.881  12.990  22.270  0.00  0.00     0.088 A 
ATOM      7  O   UNL d   1     -45.599  11.215  23.360  0.00  0.00    -0.265 OA
ATOM      8  C   UNL d   1     -44.252  11.720  22.523  0.00  0.00     0.006 A 
ATOM      9  C   UNL d   1     -44.204  13.228  21.856  0.00  0.00     0.019 A 
ATOM     10  C   UNL d   1     -43.586  11.974  22.108  0.00  0.00     0.000 A 
ATOM     11  C   UNL d   1     -43.562  12.729  21.774  0.00  0.00     0.002 A 
ENDROOT
BRANCH   2  12
ATOM     12  S   UNL d   1     -46.836  13.734  22.852  0.00  0.00    -0.043 SA
BRANCH  12  13
ATOM     13  C   UNL d   1     -46.941  14.354  22.321  0.00  0.00     0.101 C 
BRANCH  13  14
ATOM     14  C   UNL d   1     -47.385  15.014  22.539  0.00  0.00     0.286 C 
ATOM     15  N   UNL d   1     -48.206  14.981  22.523  0.00  0.00    -0.204 NA
ATOM     16  O   UNL d   1     -47.005  15.712  22.775  0.00  0.00    -0.265 OA
BRANCH  15  17
ATOM     17  C   UNL d   1     -48.645  15.645  22.743  0.00  0.00     0.127 C 
BRANCH  17  18
ATOM     18  C   UNL d   1     -49.459  15.560  22.893  0.00  0.00     0.119 A 
ATOM     19  O   UNL d   1     -49.842  15.734  23.596  0.00  0.00    -0.304 OA
ATOM     20  C   UNL d   1     -50.645  15.567  23.498  0.00  0.00     0.123 A 
ATOM     21  C   UNL d   1     -50.758  15.287  22.727  0.00  0.00     0.029 A 
ATOM     22  C   UNL d   1     -50.019  15.283  22.350  0.00  0.00     0.028 A 
ENDBRANCH  17  18
ENDBRANCH  15  17
ENDBRANCH  13  14
ENDBRANCH  12  13
ENDBRANCH   2  12
BRANCH   1  23
ATOM     23  N   UNL d   1     -46.883  12.235  23.515  0.00  0.00    -0.119 NA
ATOM     24  C   UNL d   1     -47.441  11.745  23.144  0.00  0.00     0.296 C 
ATOM     25  O   UNL d   1     -47.325  11.515  22.362  0.00  0.00    -0.264 OA
BRANCH  24  26
ATOM     26  C   UNL d   1     -48.106  11.489  23.560  0.00  0.00     0.064 C 
BRANCH  26  27
ATOM     27  C   UNL d   1     -48.850  11.580  23.229  0.00  0.00     0.005 A 
ATOM     28  C   UNL d   1     -48.950  11.442  22.429  0.00  0.00     0.000 A 
ATOM     29  C   UNL d   1     -49.700  11.533  22.096  0.00  0.00     0.000 A 
ATOM     30  C   UNL d   1     -50.333  11.760  22.564  0.00  0.00     0.000 A 
ATOM     31  C   UNL d   1     -50.216  11.896  23.366  0.00  0.00     0.000 A 
ATOM     32  C   UNL d   1     -49.481  11.806  23.693  0.00  0.00     0.000 A 
ENDBRANCH  26  27
ENDBRANCH  24  26
ENDBRANCH   1  23
TORSDOF 8
ENDMDL
MODEL 2
REMARK VINA RESULT:      -6.4      4.769      7.549
REMARK  8 active torsions:
REMARK  status: ('A' for Active; 'I' for Inactive)
REMARK    1  A    between atoms: N_7  and  N_1 
REMARK    2  A    between atoms: S_9  and  C_2 
REMARK       I    between atoms: C_8  and  N_7 
REMARK    3  A    between atoms: C_21  and  C_8 
REMARK    4  A    between atoms: C_20  and  S_9 
REMARK    5  A    between atoms: C_10  and  C_20 
REMARK       I    between atoms: N_14  and  C_10 
REMARK    6  A    between atoms: C_12  and  C_22 
REMARK    7  A    between atoms: C_22  and  N_14 
REMARK    8  A    between atoms: C_24  and  C_21 
ROOT
ATOM      1  N   UNL d   1     -40.408  14.574  20.734  0.00  0.00    -0.168 N 
ATOM      2  C   UNL d   1     -40.788  13.976  21.143  0.00  0.00     0.199 A 
ATOM      3  C   UNL d   1     -39.645  14.824  20.971  0.00  0.00     0.283 A 
ATOM      4  N   UNL d   1     -40.417  13.608  21.802  0.00  0.00    -0.221 NA
ATOM      5  C   UNL d   1     -39.278  14.451  21.631  0.00  0.00     0.076 A 
ATOM      6  C   UNL d   1     -39.668  13.848  22.038  0.00  0.00     0.088 A 
ATOM      7  O   UNL d   1     -39.261  15.428  20.558  0.00  0.00    -0.265 OA
ATOM      8  C   UNL d   1     -38.523  14.701  21.860  0.00  0.00     0.006 A 
ATOM      9  C   UNL d   1     -39.289  13.495  22.685  0.00  0.00     0.019 A 
ATOM     10  C   UNL d   1     -38.160  14.339  22.506  0.00  0.00     0.000 A 
ATOM     11  C   UNL d   1     -38.543  13.735  22.918  0.00  0.00     0.002 A 
ENDROOT
BRANCH   2  12
ATOM     12  S   UNL d   1     -41.525  13.732  20.919  0.00  0.00    -0.043 SA
BRANCH  12  13
ATOM     13  C   UNL d   1     -42.016  13.345  21.455  0.00  0.00     0.101 C 
BRANCH  13  14
ATOM     14  C   UNL d   1     -42.763  13.087  21.218  0.00  0.00     0.286 C 
ATOM     15  N   UNL d   1     -43.417  13.225  21.697  0.00  0.00    -0.204 NA
ATOM     16  O   UNL d   1     -42.856  12.688  20.497  0.00  0.00    -0.265 OA
BRANCH  15  17
ATOM     17  C   UNL d   1     -44.162  12.964  21.453  0.00  0.00     0.127 C 
BRANCH  17  18
ATOM     18  C   UNL d   1     -44.823  13.128  21.931  0.00  0.00     0.119 A 
ATOM     19  O   UNL d   1     -45.100  13.871  22.135  0.00  0.00    -0.304 OA
ATOM     20  C   UNL d   1     -45.766  13.774  22.615  0.00  0.00     0.123 A 
ATOM     21  C   UNL d   1     -45.900  12.962  22.707  0.00  0.00     0.029 A 
ATOM     22  C   UNL d   1     -45.313  12.560  22.281  0.00  0.00     0.028 A 
ENDBRANCH  17  18
ENDBRANCH  15  17
ENDBRANCH  13  14
ENDBRANCH  12  13
ENDBRANCH   2  12
BRANCH   1  23
ATOM     23  N   UNL d   1     -40.764  14.931  20.100  0.00  0.00    -0.119 NA
ATOM     24  C   UNL d   1     -40.552  14.711  19.328  0.00  0.00     0.296 C 
ATOM     25  O   UNL d   1     -39.980  14.129  19.213  0.00  0.00    -0.264 OA
BRANCH  24  26
ATOM     26  C   UNL d   1     -40.914  15.074  18.682  0.00  0.00     0.064 C 
BRANCH  26  27
ATOM     27  C   UNL d   1     -40.509  15.136  17.972  0.00  0.00     0.005 A 
ATOM     28  C   UNL d   1     -40.395  14.465  17.519  0.00  0.00     0.000 A 
ATOM     29  C   UNL d   1     -39.987  14.528  16.804  0.00  0.00     0.000 A 
ATOM     30  C   UNL d   1     -39.701  15.254  16.556  0.00  0.00     0.000 A 
ATOM     31  C   UNL d   1     -39.824  15.919  17.023  0.00  0.00     0.000 A 
ATOM     32  C   UNL d   1     -40.224  15.858  17.724  0.00  0.00     0.000 A 
ENDBRANCH  26  27
ENDBRANCH  24  26
ENDBRANCH   1  23
TORSDOF 8
ENDMDL
MODEL 3
REMARK VINA RESULT:      -4.4      8.484      9.834
REMARK  8 active torsions:
REMARK  status: ('A' for Active; 'I' for Inactive)
REMARK    1  A    between atoms: N_7  and  N_1 
REMARK    2  A    between atoms: S_9  and  C_2 
REMARK       I    between atoms: C_8  and  N_7 
REMARK    3  A    between atoms: C_21  and  C_8 
REMARK    4  A    between atoms: C_20  and  S_9 
REMARK    5  A    between atoms: C_10  and  C_20 
REMARK       I    between atoms: N_14  and  C_10 
REMARK    6  A    between atoms: C_12  and  C_22 
REMARK    7  A    between atoms: C_22  and  N_14 
REMARK    8  A    between atoms: C_24  and  C_21 
ROOT
ATOM      1  N   UNL d   1     -38.687  13.967  17.903  0.00  0.00    -0.168 N 
ATOM      2  C   UNL d   1     -38.435  13.842  18.671  0.00  0.00     0.199 A 
ATOM      3  C   UNL d   1     -38.695  13.333  17.355  0.00  0.00     0.283 A 
ATOM      4  N   UNL d   1     -38.182  13.079  18.917  0.00  0.00    -0.221 NA
ATOM      5  C   UNL d   1     -38.440  12.571  17.608  0.00  0.00     0.076 A 
ATOM      6  C   UNL d   1     -38.186  12.453  18.385  0.00  0.00     0.088 A 
ATOM      7  O   UNL d   1     -38.949  13.459  16.580  0.00  0.00    -0.265 OA
ATOM      8  C   UNL d   1     -38.449  11.948  17.063  0.00  0.00     0.006 A 
ATOM      9  C   UNL d   1     -37.940  11.696  18.612  0.00  0.00     0.019 A 
ATOM     10  C   UNL d   1     -38.200  11.200  17.306  0.00  0.00     0.000 A 
ATOM     11  C   UNL d   1     -37.945  11.074  18.082  0.00  0.00     0.002 A 
ENDROOT
BRANCH   2  12
ATOM     12  S   UNL d   1     -38.426  14.451  19.202  0.00  0.00    -0.043 SA
BRANCH  12  13
ATOM     13  C   UNL d   1     -37.942  14.416  19.867  0.00  0.00     0.101 C 
BRANCH  13  14
ATOM     14  C   UNL d   1     -38.213  14.702  20.591  0.00  0.00     0.286 C 
ATOM     15  N   UNL d   1     -38.370  14.181  21.207  0.00  0.00    -0.204 NA
ATOM     16  O   UNL d   1     -38.329  15.516  20.700  0.00  0.00    -0.265 OA
BRANCH  15  17
ATOM     17  C   UNL d   1     -38.642  14.475  21.930  0.00  0.00     0.127 C 
BRANCH  17  18
ATOM     18  C   UNL d   1     -38.736  13.951  22.569  0.00  0.00     0.119 A 
ATOM     19  O   UNL d   1     -39.435  13.794  22.967  0.00  0.00    -0.304 OA
ATOM     20  C   UNL d   1     -39.274  13.242  23.560  0.00  0.00     0.123 A 
ATOM     21  C   UNL d   1     -38.468  13.057  23.527  0.00  0.00     0.029 A 
ATOM     22  C   UNL d   1     -38.133  13.498  22.910  0.00  0.00     0.028 A 
ENDBRANCH  17  18
ENDBRANCH  15  17
ENDBRANCH  13  14
ENDBRANCH  12  13
ENDBRANCH   2  12
BRANCH   1  23
ATOM     23  N   UNL d   1     -38.932  14.701  17.663  0.00  0.00    -0.119 NA
ATOM     24  C   UNL d   1     -39.741  14.886  17.653  0.00  0.00     0.296 C 
ATOM     25  O   UNL d   1     -40.291  14.320  17.889  0.00  0.00    -0.264 OA
BRANCH  24  26
ATOM     26  C   UNL d   1     -39.990  15.633  17.409  0.00  0.00     0.064 C 
BRANCH  26  27
ATOM     27  C   UNL d   1     -40.708  15.715  17.023  0.00  0.00     0.005 A 
ATOM     28  C   UNL d   1     -40.729  15.670  16.207  0.00  0.00     0.000 A 
ATOM     29  C   UNL d   1     -41.453  15.752  15.818  0.00  0.00     0.000 A 
ATOM     30  C   UNL d   1     -42.139  15.878  16.248  0.00  0.00     0.000 A 
ATOM     31  C   UNL d   1     -42.101  15.922  17.068  0.00  0.00     0.000 A 
ATOM     32  C   UNL d   1     -41.392  15.841  17.449  0.00  0.00     0.000 A 
ENDBRANCH  26  27
ENDBRANCH  24  26
ENDBRANCH   1  23
TORSDOF 8
ENDMDL
MODEL 4
REMARK VINA RESULT:      -4.3      5.727      8.410
REMARK  8 active torsions:
REMARK  status: ('A' for Active; 'I' for Inactive)
REMARK    1  A    between atoms: N_7  and  N_1 
REMARK    2  A    between atoms: S_9  and  C_2 
REMARK       I    between atoms: C_8  and  N_7 
REMARK    3  A    between atoms: C_21  and  C_8 
REMARK    4  A    between atoms: C_20  and  S_9 
REMARK    5  A    between atoms: C_10  and  C_20 
REMARK       I    between atoms: N_14  and  C_10 
REMARK    6  A    between atoms: C_12  and  C_22 
REMARK    7  A    between atoms: C_22  and  N_14 
REMARK    8  A    between atoms: C_24  and  C_21 
ROOT
ATOM      1  N   UNL d   1     -40.156  14.382  20.993  0.00  0.00    -0.168 N 
ATOM      2  C   UNL d   1     -39.918  15.052  20.588  0.00  0.00     0.199 A 
ATOM      3  C   UNL d   1     -39.836  14.214  21.748  0.00  0.00     0.283 A 
ATOM      4  N   UNL d   1     -39.353  15.575  20.925  0.00  0.00    -0.221 NA
ATOM      5  C   UNL d   1     -39.270  14.741  22.080  0.00  0.00     0.076 A 
ATOM      6  C   UNL d   1     -39.035  15.415  21.664  0.00  0.00     0.088 A 
ATOM      7  O   UNL d   1     -40.077  13.537  22.157  0.00  0.00    -0.265 OA
ATOM      8  C   UNL d   1     -38.957  14.570  22.827  0.00  0.00     0.006 A 
ATOM      9  C   UNL d   1     -38.477  15.920  22.010  0.00  0.00     0.019 A 
ATOM     10  C   UNL d   1     -38.402  15.083  23.156  0.00  0.00     0.000 A 
ATOM     11  C   UNL d   1     -38.162  15.759  22.747  0.00  0.00     0.002 A 
ENDROOT
BRANCH   2  12
ATOM     12  S   UNL d   1     -40.224  15.219  19.859  0.00  0.00    -0.043 SA
BRANCH  12  13
ATOM     13  C   UNL d   1     -39.807  15.694  19.331  0.00  0.00     0.101 C 
BRANCH  13  14
ATOM     14  C   UNL d   1     -40.010  15.699  18.531  0.00  0.00     0.286 C 
ATOM     15  N   UNL d   1     -39.443  15.527  17.962  0.00  0.00    -0.204 NA
ATOM     16  O   UNL d   1     -40.786  15.877  18.301  0.00  0.00    -0.265 OA
BRANCH  15  17
ATOM     17  C   UNL d   1     -39.653  15.534  17.163  0.00  0.00     0.127 C 
BRANCH  17  18
ATOM     18  C   UNL d   1     -39.078  15.341  16.593  0.00  0.00     0.119 A 
ATOM     19  O   UNL d   1     -38.594  15.869  16.197  0.00  0.00    -0.304 OA
ATOM     20  C   UNL d   1     -38.110  15.439  15.684  0.00  0.00     0.123 A 
ATOM     21  C   UNL d   1     -38.299  14.637  15.765  0.00  0.00     0.029 A 
ATOM     22  C   UNL d   1     -38.902  14.576  16.331  0.00  0.00     0.028 A 
ENDBRANCH  17  18
ENDBRANCH  15  17
ENDBRANCH  13  14
ENDBRANCH  12  13
ENDBRANCH   2  12
BRANCH   1  23
ATOM     23  N   UNL d   1     -40.701  13.877  20.671  0.00  0.00    -0.119 NA
ATOM     24  C   UNL d   1     -41.502  13.942  20.880  0.00  0.00     0.296 C 
ATOM     25  O   UNL d   1     -41.737  14.522  21.415  0.00  0.00    -0.264 OA
BRANCH  24  26
ATOM     26  C   UNL d   1     -42.057  13.427  20.552  0.00  0.00     0.064 C 
BRANCH  26  27
ATOM     27  C   UNL d   1     -42.681  13.159  21.010  0.00  0.00     0.005 A 
ATOM     28  C   UNL d   1     -43.373  13.593  21.032  0.00  0.00     0.000 A 
ATOM     29  C   UNL d   1     -44.003  13.322  21.494  0.00  0.00     0.000 A 
ATOM     30  C   UNL d   1     -43.930  12.628  21.922  0.00  0.00     0.000 A 
ATOM     31  C   UNL d   1     -43.227  12.203  21.889  0.00  0.00     0.000 A 
ATOM     32  C   UNL d   1     -42.611  12.468  21.437  0.00  0.00     0.000 A 
ENDBRANCH  26  27
ENDBRANCH  24  26
ENDBRANCH   1  23
TORSDOF 8
ENDMDL
MODEL 5
REMARK VINA RESULT:      -3.6      1.546      3.122
REMARK  8 active torsions:
REMARK  status: ('A' for Active; 'I' for Inactive)
REMARK    1  A    between atoms: N_7  and  N_1 
REMARK    2  A    between atoms: S_9  and  C_2 
REMARK       I    between atoms: C_8  and  N_7 
REMARK    3  A    between atoms: C_21  and  C_8 
REMARK    4  A    between atoms: C_20  and  S_9 
REMARK    5  A    between atoms: C_10  and  C_20 
REMARK       I    between atoms: N_14  and  C_10 
REMARK    6  A    between atoms: C_12  and  C_22 
REMARK    7  A    between atoms: C_22  and  N_14 
REMARK    8  A    between atoms: C_24  and  C_21 
ROOT
ATOM      1  N   UNL d   1     -45.703  12.212  22.572  0.00  0.00    -0.168 N 
ATOM      2  C   UNL d   1     -46.200  11.690  22.959  0.00  0.00     0.199 A 
ATOM      3  C   UNL d   1     -44.878  12.070  22.553  0.00  0.00     0.283 A 
ATOM      4  N   UNL d   1     -45.887  11.009  23.341  0.00  0.00    -0.221 NA
ATOM      5  C   UNL d   1     -44.571  11.386  22.937  0.00  0.00     0.076 A 
ATOM      6  C   UNL d   1     -45.079  10.864  23.327  0.00  0.00     0.088 A 
ATOM      7  O   UNL d   1     -44.377  12.597  22.162  0.00  0.00    -0.265 OA
ATOM      8  C   UNL d   1     -43.755  11.251  22.916  0.00  0.00     0.006 A 
ATOM      9  C   UNL d   1     -44.756  10.198  23.698  0.00  0.00     0.019 A 
ATOM     10  C   UNL d   1     -43.450  10.583  23.291  0.00  0.00     0.000 A 
ATOM     11  C   UNL d   1     -43.951  10.056  23.682  0.00  0.00     0.002 A 
ENDROOT
BRANCH   2  12
ATOM     12  S   UNL d   1     -46.996  11.822  22.980  0.00  0.00    -0.043 SA
BRANCH  12  13
ATOM     13  C   UNL d   1     -47.522  11.243  22.724  0.00  0.00     0.101 C 
BRANCH  13  14
ATOM     14  C   UNL d   1     -48.306  11.254  22.979  0.00  0.00     0.286 C 
ATOM     15  N   UNL d   1     -48.869  11.685  22.563  0.00  0.00    -0.204 NA
ATOM     16  O   UNL d   1     -48.528  10.831  23.657  0.00  0.00    -0.265 OA
BRANCH  15  17
ATOM     17  C   UNL d   1     -49.652  11.691  22.825  0.00  0.00     0.127 C 
BRANCH  17  18
ATOM     18  C   UNL d   1     -50.190  12.223  22.477  0.00  0.00     0.119 A 
ATOM     19  O   UNL d   1     -50.421  12.232  21.691  0.00  0.00    -0.304 OA
ATOM     20  C   UNL d   1     -50.960  12.849  21.590  0.00  0.00     0.123 A 
ATOM     21  C   UNL d   1     -51.061  13.225  22.321  0.00  0.00     0.029 A 
ATOM     22  C   UNL d   1     -50.582  12.834  22.873  0.00  0.00     0.028 A 
ENDBRANCH  17  18
ENDBRANCH  15  17
ENDBRANCH  13  14
ENDBRANCH  12  13
ENDBRANCH   2  12
BRANCH   1  23
ATOM     23  N   UNL d   1     -46.001  12.869  22.203  0.00  0.00    -0.119 NA
ATOM     24  C   UNL d   1     -45.886  13.620  22.537  0.00  0.00     0.296 C 
ATOM     25  O   UNL d   1     -45.468  13.692  23.243  0.00  0.00    -0.264 OA
BRANCH  24  26
ATOM     26  C   UNL d   1     -46.189  14.289  22.162  0.00  0.00     0.064 C 
BRANCH  26  27
ATOM     27  C   UNL d   1     -46.898  14.610  22.416  0.00  0.00     0.005 A 
ATOM     28  C   UNL d   1     -47.031  14.698  23.218  0.00  0.00     0.000 A 
ATOM     29  C   UNL d   1     -47.746  15.021  23.474  0.00  0.00     0.000 A 
ATOM     30  C   UNL d   1     -48.313  15.251  22.929  0.00  0.00     0.000 A 
ATOM     31  C   UNL d   1     -48.164  15.156  22.126  0.00  0.00     0.000 A 
ATOM     32  C   UNL d   1     -47.464  14.839  21.875  0.00  0.00     0.000 A 
ENDBRANCH  26  27
ENDBRANCH  24  26
ENDBRANCH   1  23
TORSDOF 8
ENDMDL
