MODEL 1
REMARK VINA RESULT:      54.0      0.000      0.000
REMARK  2 active torsions:
REMARK  status: ('A' for Active; 'I' for Inactive)
REMARK    1  A    between atoms: C_6  and  C_1 
REMARK    2  A    between atoms: C_9  and  C_2 
ROOT
ATOM      1  C   UNL d   1      45.166 -14.121  44.579  0.00  0.00     0.039 A 
ATOM      2  C   UNL d   1      45.777 -14.666  44.529  0.00  0.00     0.120 A 
ATOM      3  N   UNL d   1      46.493 -14.267  44.640  0.00  0.00    -0.164 NA
ATOM      4  N   UNL d   1      46.315 -13.477  44.759  0.00  0.00    -0.228 N 
ATOM      5  C   UNL d   1      45.495 -13.384  44.722  0.00  0.00     0.085 A 
ATOM      6  C   UNL d   1      46.647 -12.731  44.903  0.00  0.00     0.101 A 
ATOM      7  C   UNL d   1      45.323 -12.579  44.844  0.00  0.00     0.021 A 
ATOM      8  C   UNL d   1      46.034 -12.181  44.955  0.00  0.00     0.022 A 
ENDROOT
BRANCH   1   9
ATOM      9  C   UNL d   1      44.361 -14.281  44.501  0.00  0.00     0.006 A 
ATOM     10  C   UNL d   1      43.901 -13.840  43.993  0.00  0.00     0.018 A 
ATOM     11  C   UNL d   1      43.096 -14.000  43.915  0.00  0.00     0.085 A 
ATOM     12  C   UNL d   1      44.243 -13.227  43.552  0.00  0.00     0.005 A 
ATOM     13  C   UNL d   1      42.627 -13.549  43.396  0.00  0.00     0.061 A 
ATOM     14  N   UNL d   1      42.753 -14.610  44.354  0.00  0.00    -0.244 NA
ATOM     15  C   UNL d   1      42.978 -12.940  42.961  0.00  0.00     0.197 A 
ATOM     16  C   UNL d   1      43.774 -12.782  43.038  0.00  0.00     0.042 A 
ATOM     17  O   UNL d   1      42.509 -12.496  42.447  0.00  0.00    -0.286 OA
ATOM     18  C   UNL d   1      43.214 -15.057  44.867  0.00  0.00     0.099 A 
ATOM     19  C   UNL d   1      44.022 -14.893  44.942  0.00  0.00     0.021 A 
ENDBRANCH   1   9
BRANCH   2  20
ATOM     20  C   UNL d   1      45.696 -15.475  44.390  0.00  0.00     0.101 A 
ATOM     21  N   UNL d   1      45.340 -15.956  44.953  0.00  0.00    -0.242 NA
ATOM     22  C   UNL d   1      45.258 -16.756  44.821  0.00  0.00     0.099 A 
ATOM     23  C   UNL d   1      45.536 -17.090  44.112  0.00  0.00     0.021 A 
ATOM     24  C   UNL d   1      45.896 -16.605  43.545  0.00  0.00     0.003 A 
ATOM     25  C   UNL d   1      45.972 -15.799  43.692  0.00  0.00     0.021 A 
ENDBRANCH   2  20
TORSDOF 2
ENDMDL
MODEL 2
REMARK VINA RESULT:      55.1      6.324      7.009
REMARK  2 active torsions:
REMARK  status: ('A' for Active; 'I' for Inactive)
REMARK    1  A    between atoms: C_6  and  C_1 
REMARK    2  A    between atoms: C_9  and  C_2 
ROOT
ATOM      1  C   UNL d   1      45.090 -15.744  37.320  0.00  0.00     0.039 A 
ATOM      2  C   UNL d   1      45.455 -15.969  38.020  0.00  0.00     0.120 A 
ATOM      3  N   UNL d   1      46.135 -15.509  38.119  0.00  0.00    -0.164 NA
ATOM      4  N   UNL d   1      46.183 -15.004  37.477  0.00  0.00    -0.228 N 
ATOM      5  C   UNL d   1      45.538 -15.147  36.981  0.00  0.00     0.085 A 
ATOM      6  C   UNL d   1      46.636 -14.400  37.133  0.00  0.00     0.101 A 
ATOM      7  C   UNL d   1      45.595 -14.630  36.331  0.00  0.00     0.021 A 
ATOM      8  C   UNL d   1      46.271 -14.173  36.429  0.00  0.00     0.022 A 
ENDROOT
BRANCH   1   9
ATOM      9  C   UNL d   1      44.396 -16.060  37.008  0.00  0.00     0.006 A 
ATOM     10  C   UNL d   1      43.697 -15.643  37.053  0.00  0.00     0.018 A 
ATOM     11  C   UNL d   1      43.003 -15.959  36.741  0.00  0.00     0.085 A 
ATOM     12  C   UNL d   1      43.684 -14.897  37.414  0.00  0.00     0.005 A 
ATOM     13  C   UNL d   1      42.289 -15.532  36.787  0.00  0.00     0.061 A 
ATOM     14  N   UNL d   1      43.014 -16.702  36.381  0.00  0.00    -0.244 NA
ATOM     15  C   UNL d   1      42.287 -14.789  37.149  0.00  0.00     0.197 A 
ATOM     16  C   UNL d   1      42.974 -14.476  37.458  0.00  0.00     0.042 A 
ATOM     17  O   UNL d   1      41.578 -14.368  37.193  0.00  0.00    -0.286 OA
ATOM     18  C   UNL d   1      43.716 -17.126  36.335  0.00  0.00     0.099 A 
ATOM     19  C   UNL d   1      44.412 -16.805  36.649  0.00  0.00     0.021 A 
ENDBRANCH   1   9
BRANCH   2  20
ATOM     20  C   UNL d   1      45.192 -16.553  38.539  0.00  0.00     0.101 A 
ATOM     21  N   UNL d   1      44.585 -16.390  39.069  0.00  0.00    -0.242 NA
ATOM     22  C   UNL d   1      44.322 -16.964  39.584  0.00  0.00     0.099 A 
ATOM     23  C   UNL d   1      44.668 -17.720  39.576  0.00  0.00     0.021 A 
ATOM     24  C   UNL d   1      45.280 -17.884  39.042  0.00  0.00     0.003 A 
ATOM     25  C   UNL d   1      45.536 -17.295  38.527  0.00  0.00     0.021 A 
ENDBRANCH   2  20
TORSDOF 2
ENDMDL
