MODEL 1
REMARK VINA RESULT:      -3.1      0.000      0.000
REMARK  5 active torsions:
REMARK  status: ('A' for Active; 'I' for Inactive)
REMARK       I    between atoms: C_2  and  N_1 
REMARK    1  A    between atoms: C_3  and  N_1 
REMARK    2  A    between atoms: C_9  and  C_2 
REMARK    3  A    between atoms: N_6  and  C_3 
REMARK    4  A    between atoms: C_4  and  C_13 
REMARK    5  A    between atoms: C_13  and  N_6 
ROOT
ATOM      1  N   UNL d   1      32.359  22.516 -19.435  0.00  0.00    -0.299 N 
ATOM      2  C   UNL d   1      32.742  23.129 -19.041  0.00  0.00     0.259 C 
ATOM      3  O   UNL d   1      33.156  23.702 -19.469  0.00  0.00    -0.267 OA
ATOM      4  H   UNL d   1      31.945  21.942 -19.006  0.00  0.00     0.171 HD
ENDROOT
BRANCH   1   5
ATOM      5  C   UNL d   1      32.382  22.467 -20.242  0.00  0.00     0.179 C 
ATOM      6  S   UNL d   1      32.027  23.062 -20.694  0.00  0.00    -0.040 SA
BRANCH   5   7
ATOM      7  N   UNL d   1      32.748  21.844 -20.594  0.00  0.00    -0.329 N 
ATOM      8  H   UNL d   1      33.424  21.538 -20.267  0.00  0.00     0.168 HD
BRANCH   7   9
ATOM      9  C   UNL d   1      32.440  21.531 -21.267  0.00  0.00     0.099 C 
BRANCH   9  10
ATOM     10  C   UNL d   1      32.755  20.829 -21.575  0.00  0.00     0.117 A 
ATOM     11  O   UNL d   1      32.912  20.210 -21.063  0.00  0.00    -0.304 OA
ATOM     12  C   UNL d   1      33.215  19.597 -21.512  0.00  0.00     0.123 A 
ATOM     13  C   UNL d   1      33.240  19.848 -22.294  0.00  0.00     0.029 A 
ATOM     14  C   UNL d   1      32.952  20.612 -22.316  0.00  0.00     0.028 A 
ENDBRANCH   9  10
ENDBRANCH   7   9
ENDBRANCH   5   7
ENDBRANCH   1   5
BRANCH   2  15
ATOM     15  C   UNL d   1      32.713  23.171 -18.214  0.00  0.00     0.056 A 
ATOM     16  C   UNL d   1      32.158  23.661 -17.846  0.00  0.00     0.005 A 
ATOM     17  C   UNL d   1      32.131  23.702 -17.015  0.00  0.00     0.000 A 
ATOM     18  C   UNL d   1      32.655  23.258 -16.561  0.00  0.00     0.000 A 
ATOM     19  C   UNL d   1      33.210  22.768 -16.930  0.00  0.00     0.000 A 
ATOM     20  C   UNL d   1      33.241  22.724 -17.751  0.00  0.00     0.005 A 
ENDBRANCH   2  15
TORSDOF 5
ENDMDL
MODEL 2
REMARK VINA RESULT:      -3.1      3.877      6.912
REMARK  5 active torsions:
REMARK  status: ('A' for Active; 'I' for Inactive)
REMARK       I    between atoms: C_2  and  N_1 
REMARK    1  A    between atoms: C_3  and  N_1 
REMARK    2  A    between atoms: C_9  and  C_2 
REMARK    3  A    between atoms: N_6  and  C_3 
REMARK    4  A    between atoms: C_4  and  C_13 
REMARK    5  A    between atoms: C_13  and  N_6 
ROOT
ATOM      1  N   UNL d   1      31.660  17.827 -23.471  0.00  0.00    -0.299 N 
ATOM      2  C   UNL d   1      31.487  17.434 -24.173  0.00  0.00     0.259 C 
ATOM      3  O   UNL d   1      32.086  17.285 -24.723  0.00  0.00    -0.267 OA
ATOM      4  H   UNL d   1      31.061  17.976 -22.920  0.00  0.00     0.171 HD
ENDROOT
BRANCH   1   5
ATOM      5  C   UNL d   1      32.415  18.071 -23.310  0.00  0.00     0.179 C 
ATOM      6  S   UNL d   1      33.034  17.524 -23.346  0.00  0.00    -0.040 SA
BRANCH   5   7
ATOM      7  N   UNL d   1      32.554  18.839 -23.119  0.00  0.00    -0.329 N 
ATOM      8  H   UNL d   1      32.337  19.427 -23.633  0.00  0.00     0.168 HD
BRANCH   7   9
ATOM      9  C   UNL d   1      32.907  19.016 -22.418  0.00  0.00     0.099 C 
BRANCH   9  10
ATOM     10  C   UNL d   1      32.953  19.806 -22.170  0.00  0.00     0.117 A 
ATOM     11  O   UNL d   1      32.667  20.003 -21.429  0.00  0.00    -0.304 OA
ATOM     12  C   UNL d   1      32.783  20.807 -21.333  0.00  0.00     0.123 A 
ATOM     13  C   UNL d   1      33.140  21.092 -22.016  0.00  0.00     0.029 A 
ATOM     14  C   UNL d   1      33.238  20.460 -22.523  0.00  0.00     0.028 A 
ENDBRANCH   9  10
ENDBRANCH   7   9
ENDBRANCH   5   7
ENDBRANCH   1   5
BRANCH   2  15
ATOM     15  C   UNL d   1      30.712  17.188 -24.329  0.00  0.00     0.056 A 
ATOM     16  C   UNL d   1      30.375  16.579 -23.882  0.00  0.00     0.005 A 
ATOM     17  C   UNL d   1      29.595  16.333 -24.041  0.00  0.00     0.000 A 
ATOM     18  C   UNL d   1      29.162  16.694 -24.640  0.00  0.00     0.000 A 
ATOM     19  C   UNL d   1      29.499  17.302 -25.087  0.00  0.00     0.000 A 
ATOM     20  C   UNL d   1      30.269  17.549 -24.935  0.00  0.00     0.005 A 
ENDBRANCH   2  15
TORSDOF 5
ENDMDL
MODEL 3
REMARK VINA RESULT:      -3.0      5.370      6.937
REMARK  5 active torsions:
REMARK  status: ('A' for Active; 'I' for Inactive)
REMARK       I    between atoms: C_2  and  N_1 
REMARK    1  A    between atoms: C_3  and  N_1 
REMARK    2  A    between atoms: C_9  and  C_2 
REMARK    3  A    between atoms: N_6  and  C_3 
REMARK    4  A    between atoms: C_4  and  C_13 
REMARK    5  A    between atoms: C_13  and  N_6 
ROOT
ATOM      1  N   UNL d   1      31.726  17.369 -23.701  0.00  0.00    -0.299 N 
ATOM      2  C   UNL d   1      32.489  17.544 -23.446  0.00  0.00     0.259 C 
ATOM      3  O   UNL d   1      33.006  16.933 -23.234  0.00  0.00    -0.267 OA
ATOM      4  H   UNL d   1      31.209  17.979 -23.912  0.00  0.00     0.171 HD
ENDROOT
BRANCH   1   5
ATOM      5  C   UNL d   1      31.473  16.601 -23.749  0.00  0.00     0.179 C 
ATOM      6  S   UNL d   1      31.952  16.040 -24.124  0.00  0.00    -0.040 SA
BRANCH   5   7
ATOM      7  N   UNL d   1      30.764  16.394 -23.433  0.00  0.00    -0.329 N 
ATOM      8  H   UNL d   1      30.673  16.376 -22.628  0.00  0.00     0.168 HD
BRANCH   7   9
ATOM      9  C   UNL d   1      30.152  16.208 -23.920  0.00  0.00     0.099 C 
BRANCH   9  10
ATOM     10  C   UNL d   1      29.391  16.114 -23.605  0.00  0.00     0.117 A 
ATOM     11  O   UNL d   1      28.820  16.673 -23.782  0.00  0.00    -0.304 OA
ATOM     12  C   UNL d   1      28.133  16.444 -23.403  0.00  0.00     0.123 A 
ATOM     13  C   UNL d   1      28.291  15.747 -22.998  0.00  0.00     0.029 A 
ATOM     14  C   UNL d   1      29.074  15.557 -23.133  0.00  0.00     0.028 A 
ENDBRANCH   9  10
ENDBRANCH   7   9
ENDBRANCH   5   7
ENDBRANCH   1   5
BRANCH   2  15
ATOM     15  C   UNL d   1      32.740  18.332 -23.399  0.00  0.00     0.056 A 
ATOM     16  C   UNL d   1      32.847  18.688 -22.661  0.00  0.00     0.005 A 
ATOM     17  C   UNL d   1      33.099  19.480 -22.617  0.00  0.00     0.000 A 
ATOM     18  C   UNL d   1      33.241  19.908 -23.306  0.00  0.00     0.000 A 
ATOM     19  C   UNL d   1      33.133  19.551 -24.045  0.00  0.00     0.000 A 
ATOM     20  C   UNL d   1      32.884  18.768 -24.093  0.00  0.00     0.005 A 
ENDBRANCH   2  15
TORSDOF 5
ENDMDL
MODEL 4
REMARK VINA RESULT:      -2.5      3.798      5.395
REMARK  5 active torsions:
REMARK  status: ('A' for Active; 'I' for Inactive)
REMARK       I    between atoms: C_2  and  N_1 
REMARK    1  A    between atoms: C_3  and  N_1 
REMARK    2  A    between atoms: C_9  and  C_2 
REMARK    3  A    between atoms: N_6  and  C_3 
REMARK    4  A    between atoms: C_4  and  C_13 
REMARK    5  A    between atoms: C_13  and  N_6 
ROOT
ATOM      1  N   UNL d   1      32.497  18.881 -23.143  0.00  0.00    -0.299 N 
ATOM      2  C   UNL d   1      32.907  19.116 -22.469  0.00  0.00     0.259 C 
ATOM      3  O   UNL d   1      33.241  18.549 -21.968  0.00  0.00    -0.267 OA
ATOM      4  H   UNL d   1      32.163  19.448 -23.644  0.00  0.00     0.171 HD
ENDROOT
BRANCH   1   5
ATOM      5  C   UNL d   1      32.416  18.096 -23.323  0.00  0.00     0.179 C 
ATOM      6  S   UNL d   1      33.088  17.615 -23.345  0.00  0.00    -0.040 SA
BRANCH   5   7
ATOM      7  N   UNL d   1      31.688  17.795 -23.478  0.00  0.00    -0.329 N 
ATOM      8  H   UNL d   1      31.079  17.931 -22.962  0.00  0.00     0.168 HD
BRANCH   7   9
ATOM      9  C   UNL d   1      31.571  17.361 -24.145  0.00  0.00     0.099 C 
BRANCH   9  10
ATOM     10  C   UNL d   1      30.803  17.127 -24.353  0.00  0.00     0.117 A 
ATOM     11  O   UNL d   1      30.629  16.328 -24.380  0.00  0.00    -0.304 OA
ATOM     12  C   UNL d   1      29.844  16.259 -24.597  0.00  0.00     0.123 A 
ATOM     13  C   UNL d   1      29.547  17.018 -24.702  0.00  0.00     0.029 A 
ATOM     14  C   UNL d   1      30.153  17.543 -24.547  0.00  0.00     0.028 A 
ENDBRANCH   9  10
ENDBRANCH   7   9
ENDBRANCH   5   7
ENDBRANCH   1   5
BRANCH   2  15
ATOM     15  C   UNL d   1      32.985  19.921 -22.291  0.00  0.00     0.056 A 
ATOM     16  C   UNL d   1      32.884  20.184 -21.514  0.00  0.00     0.005 A 
ATOM     17  C   UNL d   1      32.963  20.994 -21.338  0.00  0.00     0.000 A 
ATOM     18  C   UNL d   1      33.140  21.531 -21.936  0.00  0.00     0.000 A 
ATOM     19  C   UNL d   1      33.241  21.269 -22.713  0.00  0.00     0.000 A 
ATOM     20  C   UNL d   1      33.164  20.469 -22.892  0.00  0.00     0.005 A 
ENDBRANCH   2  15
TORSDOF 5
ENDMDL
MODEL 5
REMARK VINA RESULT:      -1.8      2.477      3.479
REMARK  5 active torsions:
REMARK  status: ('A' for Active; 'I' for Inactive)
REMARK       I    between atoms: C_2  and  N_1 
REMARK    1  A    between atoms: C_3  and  N_1 
REMARK    2  A    between atoms: C_9  and  C_2 
REMARK    3  A    between atoms: N_6  and  C_3 
REMARK    4  A    between atoms: C_4  and  C_13 
REMARK    5  A    between atoms: C_13  and  N_6 
ROOT
ATOM      1  N   UNL d   1      32.848  20.896 -22.023  0.00  0.00    -0.299 N 
ATOM      2  C   UNL d   1      32.915  21.331 -21.328  0.00  0.00     0.259 C 
ATOM      3  O   UNL d   1      33.238  20.983 -20.651  0.00  0.00    -0.267 OA
ATOM      4  H   UNL d   1      32.525  21.244 -22.701  0.00  0.00     0.171 HD
ENDROOT
BRANCH   1   5
ATOM      5  C   UNL d   1      33.095  20.126 -22.053  0.00  0.00     0.179 C 
ATOM      6  S   UNL d   1      33.212  19.711 -21.347  0.00  0.00    -0.040 SA
BRANCH   5   7
ATOM      7  N   UNL d   1      33.224  19.775 -22.765  0.00  0.00    -0.329 N 
ATOM      8  H   UNL d   1      33.653  20.163 -23.332  0.00  0.00     0.168 HD
BRANCH   7   9
ATOM      9  C   UNL d   1      32.925  19.042 -22.906  0.00  0.00     0.099 C 
BRANCH   9  10
ATOM     10  C   UNL d   1      32.800  18.793 -23.687  0.00  0.00     0.117 A 
ATOM     11  O   UNL d   1      32.199  18.259 -23.838  0.00  0.00    -0.304 OA
ATOM     12  C   UNL d   1      32.203  18.114 -24.643  0.00  0.00     0.123 A 
ATOM     13  C   UNL d   1      32.806  18.562 -24.975  0.00  0.00     0.029 A 
ATOM     14  C   UNL d   1      33.165  18.977 -24.370  0.00  0.00     0.028 A 
ENDBRANCH   9  10
ENDBRANCH   7   9
ENDBRANCH   5   7
ENDBRANCH   1   5
BRANCH   2  15
ATOM     15  C   UNL d   1      32.660  22.119 -21.306  0.00  0.00     0.056 A 
ATOM     16  C   UNL d   1      32.858  22.634 -21.922  0.00  0.00     0.005 A 
ATOM     17  C   UNL d   1      32.600  23.425 -21.898  0.00  0.00     0.000 A 
ATOM     18  C   UNL d   1      32.149  23.694 -21.264  0.00  0.00     0.000 A 
ATOM     19  C   UNL d   1      31.952  23.179 -20.647  0.00  0.00     0.000 A 
ATOM     20  C   UNL d   1      32.204  22.396 -20.667  0.00  0.00     0.005 A 
ENDBRANCH   2  15
TORSDOF 5
ENDMDL
MODEL 6
REMARK VINA RESULT:      -1.7      1.054      4.353
REMARK  5 active torsions:
REMARK  status: ('A' for Active; 'I' for Inactive)
REMARK       I    between atoms: C_2  and  N_1 
REMARK    1  A    between atoms: C_3  and  N_1 
REMARK    2  A    between atoms: C_9  and  C_2 
REMARK    3  A    between atoms: N_6  and  C_3 
REMARK    4  A    between atoms: C_4  and  C_13 
REMARK    5  A    between atoms: C_13  and  N_6 
ROOT
ATOM      1  N   UNL d   1      32.924  22.307 -19.994  0.00  0.00    -0.299 N 
ATOM      2  C   UNL d   1      33.046  22.194 -20.800  0.00  0.00     0.259 C 
ATOM      3  O   UNL d   1      33.200  22.841 -21.291  0.00  0.00    -0.267 OA
ATOM      4  H   UNL d   1      32.770  21.660 -19.502  0.00  0.00     0.171 HD
ENDROOT
BRANCH   1   5
ATOM      5  C   UNL d   1      32.953  23.050 -19.673  0.00  0.00     0.179 C 
ATOM      6  S   UNL d   1      32.772  23.702 -20.147  0.00  0.00    -0.040 SA
BRANCH   5   7
ATOM      7  N   UNL d   1      33.157  23.143 -18.902  0.00  0.00    -0.329 N 
ATOM      8  H   UNL d   1      33.875  23.468 -18.712  0.00  0.00     0.168 HD
BRANCH   7   9
ATOM      9  C   UNL d   1      32.646  22.913 -18.325  0.00  0.00     0.099 C 
BRANCH   9  10
ATOM     10  C   UNL d   1      32.839  23.045 -17.529  0.00  0.00     0.117 A 
ATOM     11  O   UNL d   1      33.092  22.412 -17.076  0.00  0.00    -0.304 OA
ATOM     12  C   UNL d   1      33.241  22.699 -16.325  0.00  0.00     0.123 A 
ATOM     13  C   UNL d   1      33.077  23.504 -16.327  0.00  0.00     0.029 A 
ATOM     14  C   UNL d   1      32.829  23.702 -17.080  0.00  0.00     0.028 A 
ENDBRANCH   9  10
ENDBRANCH   7   9
ENDBRANCH   5   7
ENDBRANCH   1   5
BRANCH   2  15
ATOM     15  C   UNL d   1      33.014  21.430 -21.120  0.00  0.00     0.056 A 
ATOM     16  C   UNL d   1      33.165  20.775 -20.639  0.00  0.00     0.005 A 
ATOM     17  C   UNL d   1      33.132  20.009 -20.963  0.00  0.00     0.000 A 
ATOM     18  C   UNL d   1      32.951  19.904 -21.759  0.00  0.00     0.000 A 
ATOM     19  C   UNL d   1      32.800  20.559 -22.240  0.00  0.00     0.000 A 
ATOM     20  C   UNL d   1      32.831  21.319 -21.924  0.00  0.00     0.005 A 
ENDBRANCH   2  15
TORSDOF 5
ENDMDL
MODEL 7
REMARK VINA RESULT:      -0.1      4.483      7.253
REMARK  5 active torsions:
REMARK  status: ('A' for Active; 'I' for Inactive)
REMARK       I    between atoms: C_2  and  N_1 
REMARK    1  A    between atoms: C_3  and  N_1 
REMARK    2  A    between atoms: C_9  and  C_2 
REMARK    3  A    between atoms: N_6  and  C_3 
REMARK    4  A    between atoms: C_4  and  C_13 
REMARK    5  A    between atoms: C_13  and  N_6 
ROOT
ATOM      1  N   UNL d   1      31.397  16.984 -23.486  0.00  0.00    -0.299 N 
ATOM      2  C   UNL d   1      30.919  16.710 -24.098  0.00  0.00     0.259 C 
ATOM      3  O   UNL d   1      31.207  16.690 -24.872  0.00  0.00    -0.267 OA
ATOM      4  H   UNL d   1      31.109  17.003 -22.711  0.00  0.00     0.171 HD
ENDROOT
BRANCH   1   5
ATOM      5  C   UNL d   1      32.151  17.236 -23.634  0.00  0.00     0.179 C 
ATOM      6  S   UNL d   1      32.702  16.705 -23.948  0.00  0.00    -0.040 SA
BRANCH   5   7
ATOM      7  N   UNL d   1      32.356  17.997 -23.476  0.00  0.00    -0.329 N 
ATOM      8  H   UNL d   1      32.033  18.599 -23.912  0.00  0.00     0.168 HD
BRANCH   7   9
ATOM      9  C   UNL d   1      32.879  18.152 -22.886  0.00  0.00     0.099 C 
BRANCH   9  10
ATOM     10  C   UNL d   1      33.017  18.937 -22.655  0.00  0.00     0.117 A 
ATOM     11  O   UNL d   1      33.115  19.103 -21.860  0.00  0.00    -0.304 OA
ATOM     12  C   UNL d   1      33.241  19.908 -21.795  0.00  0.00     0.123 A 
ATOM     13  C   UNL d   1      33.219  20.226 -22.552  0.00  0.00     0.029 A 
ATOM     14  C   UNL d   1      33.079  19.612 -23.073  0.00  0.00     0.028 A 
ENDBRANCH   9  10
ENDBRANCH   7   9
ENDBRANCH   5   7
ENDBRANCH   1   5
BRANCH   2  15
ATOM     15  C   UNL d   1      30.148  16.453 -23.937  0.00  0.00     0.056 A 
ATOM     16  C   UNL d   1      29.504  16.932 -24.135  0.00  0.00     0.005 A 
ATOM     17  C   UNL d   1      28.730  16.672 -23.973  0.00  0.00     0.000 A 
ATOM     18  C   UNL d   1      28.606  15.941 -23.616  0.00  0.00     0.000 A 
ATOM     19  C   UNL d   1      29.250  15.461 -23.418  0.00  0.00     0.000 A 
ATOM     20  C   UNL d   1      30.017  15.714 -23.577  0.00  0.00     0.005 A 
ENDBRANCH   2  15
TORSDOF 5
ENDMDL
