MODEL 1
REMARK VINA RESULT:      68.3      0.000      0.000
REMARK  3 active torsions:
REMARK  status: ('A' for Active; 'I' for Inactive)
REMARK    1  A    between atoms: C_7  and  C_3 
REMARK       I    between atoms: N_10  and  C_7 
REMARK    2  A    between atoms: C_16  and  N_10 
REMARK    3  A    between atoms: C_15  and  C_16 
ROOT
ATOM      1  C   UNL d   1      58.469  49.417  51.215  0.00  0.00     0.063 A 
ATOM      2  C   UNL d   1      59.271  49.312  51.399  0.00  0.00     0.033 A 
ATOM      3  C   UNL d   1      59.672  49.139  50.695  0.00  0.00     0.158 A 
ATOM      4  C   UNL d   1      58.375  49.309  50.402  0.00  0.00     0.099 A 
ATOM      5  O   UNL d   1      59.119  49.138  50.081  0.00  0.00    -0.302 OA
ATOM      6  C   UNL d   1      57.820  49.597  51.698  0.00  0.00     0.194 A 
ATOM      7  C   UNL d   1      57.631  49.382  50.069  0.00  0.00     0.002 A 
ATOM      8  C   UNL d   1      56.978  49.559  50.527  0.00  0.00     0.042 A 
ATOM      9  C   UNL d   1      57.072  49.667  51.343  0.00  0.00     0.019 A 
ATOM     10  O   UNL d   1      57.914  49.706  52.519  0.00  0.00    -0.287 OA
ATOM     11  C   UNL d   1      59.757  49.333  52.068  0.00  0.00     0.002 C 
ATOM     12  C   UNL d   1      56.165  49.705  50.601  0.00  0.00     0.009 C 
ATOM     13  C   UNL d   1      56.676  49.494  49.763  0.00  0.00     0.009 C 
ENDROOT
BRANCH   3  14
ATOM     14  C   UNL d   1      60.480  48.993  50.616  0.00  0.00     0.302 C 
ATOM     15  N   UNL d   1      60.746  48.319  50.211  0.00  0.00    -0.205 NA
ATOM     16  O   UNL d   1      61.032  49.522  50.943  0.00  0.00    -0.263 OA
BRANCH  15  17
ATOM     17  C   UNL d   1      61.553  48.170  50.131  0.00  0.00     0.104 C 
BRANCH  17  18
ATOM     18  C   UNL d   1      61.816  47.411  49.947  0.00  0.00     0.038 A 
ATOM     19  C   UNL d   1      62.621  47.277  49.817  0.00  0.00     0.101 A 
ATOM     20  N   UNL d   1      62.876  46.521  49.634  0.00  0.00    -0.242 NA
ATOM     21  C   UNL d   1      62.349  45.898  49.578  0.00  0.00     0.099 A 
ATOM     22  C   UNL d   1      61.541  46.038  49.709  0.00  0.00     0.021 A 
ATOM     23  C   UNL d   1      61.278  46.796  49.894  0.00  0.00     0.005 A 
ENDBRANCH  17  18
ENDBRANCH  15  17
ENDBRANCH   3  14
TORSDOF 3
ENDMDL
MODEL 2
REMARK VINA RESULT:      70.0      1.379      4.737
REMARK  3 active torsions:
REMARK  status: ('A' for Active; 'I' for Inactive)
REMARK    1  A    between atoms: C_7  and  C_3 
REMARK       I    between atoms: N_10  and  C_7 
REMARK    2  A    between atoms: C_16  and  N_10 
REMARK    3  A    between atoms: C_15  and  C_16 
ROOT
ATOM      1  C   UNL d   1      61.291  47.908  50.370  0.00  0.00     0.063 A 
ATOM      2  C   UNL d   1      60.961  48.640  50.577  0.00  0.00     0.033 A 
ATOM      3  C   UNL d   1      60.161  48.515  50.757  0.00  0.00     0.158 A 
ATOM      4  C   UNL d   1      60.700  47.334  50.422  0.00  0.00     0.099 A 
ATOM      5  O   UNL d   1      60.002  47.710  50.661  0.00  0.00    -0.302 OA
ATOM      6  C   UNL d   1      62.062  47.704  50.142  0.00  0.00     0.194 A 
ATOM      7  C   UNL d   1      60.877  46.555  50.246  0.00  0.00     0.002 A 
ATOM      8  C   UNL d   1      61.630  46.333  50.019  0.00  0.00     0.042 A 
ATOM      9  C   UNL d   1      62.224  46.909  49.967  0.00  0.00     0.019 A 
ATOM     10  O   UNL d   1      62.659  48.284  50.090  0.00  0.00    -0.287 OA
ATOM     11  C   UNL d   1      61.205  49.427  50.649  0.00  0.00     0.002 C 
ATOM     12  C   UNL d   1      62.173  45.752  49.784  0.00  0.00     0.009 C 
ATOM     13  C   UNL d   1      61.202  45.629  50.007  0.00  0.00     0.009 C 
ENDROOT
BRANCH   3  14
ATOM     14  C   UNL d   1      59.618  49.090  50.991  0.00  0.00     0.302 C 
ATOM     15  N   UNL d   1      58.869  49.128  50.634  0.00  0.00    -0.205 NA
ATOM     16  O   UNL d   1      59.819  49.635  51.586  0.00  0.00    -0.263 OA
BRANCH  15  17
ATOM     17  C   UNL d   1      58.324  49.702  50.865  0.00  0.00     0.104 C 
BRANCH  17  18
ATOM     18  C   UNL d   1      57.561  49.693  50.555  0.00  0.00     0.038 A 
ATOM     19  C   UNL d   1      56.911  49.676  51.066  0.00  0.00     0.101 A 
ATOM     20  N   UNL d   1      56.155  49.668  50.752  0.00  0.00    -0.242 NA
ATOM     21  C   UNL d   1      56.033  49.677  49.943  0.00  0.00     0.099 A 
ATOM     22  C   UNL d   1      56.688  49.694  49.434  0.00  0.00     0.021 A 
ATOM     23  C   UNL d   1      57.451  49.702  49.744  0.00  0.00     0.005 A 
ENDBRANCH  17  18
ENDBRANCH  15  17
ENDBRANCH   3  14
TORSDOF 3
ENDMDL
