MODEL 1
REMARK VINA RESULT:      12.1      0.000      0.000
REMARK  9 active torsions:
REMARK  status: ('A' for Active; 'I' for Inactive)
REMARK    1  A    between atoms: C_19  and  N_1 
REMARK    2  A    between atoms: S_15  and  C_2 
REMARK    3  A    between atoms: C_7  and  C_10 
REMARK       I    between atoms: N_12  and  C_7 
REMARK    4  A    between atoms: C_20  and  N_12 
REMARK    5  A    between atoms: C_22  and  S_15 
REMARK    6  A    between atoms: C_24  and  C_19 
REMARK    7  A    between atoms: C_21  and  C_20 
REMARK    8  A    between atoms: C_27  and  C_24 
REMARK    9  A    between atoms: C_26  and  C_27 
ROOT
ATOM      1  N   UNL d   1     -42.526-118.674 -53.796  0.00  0.00    -0.195 NA
ATOM      2  C   UNL d   1     -42.437-119.479 -53.627  0.00  0.00     0.086 C 
ATOM      3  C   UNL d   1     -42.352-120.280 -53.459  0.00  0.00     0.170 C 
ENDROOT
BRANCH   3   4
ATOM      4  S   UNL d   1     -41.615-120.582 -53.262  0.00  0.00    -0.060 SA
BRANCH   4   5
ATOM      5  C   UNL d   1     -41.547-121.371 -52.967  0.00  0.00     0.178 A 
ATOM      6  N   UNL d   1     -41.368-121.994 -53.479  0.00  0.00    -0.253 N 
ATOM      7  C   UNL d   1     -41.302-122.761 -53.190  0.00  0.00     0.268 A 
ATOM      8  C   UNL d   1     -41.418-122.904 -52.376  0.00  0.00     0.074 A 
ATOM      9  O   UNL d   1     -41.124-123.387 -53.696  0.00  0.00    -0.267 OA
ATOM     10  C   UNL d   1     -41.595-122.288 -51.869  0.00  0.00     0.088 A 
ATOM     11  C   UNL d   1     -41.353-123.675 -52.085  0.00  0.00     0.006 A 
ATOM     12  C   UNL d   1     -41.709-122.435 -51.065  0.00  0.00     0.024 A 
ATOM     13  N   UNL d   1     -41.661-121.521 -52.161  0.00  0.00    -0.222 NA
ATOM     14  C   UNL d   1     -41.644-123.201 -50.776  0.00  0.00     0.059 A 
ATOM     15  C   UNL d   1     -41.467-123.817 -51.282  0.00  0.00     0.005 A 
BRANCH   6  16
ATOM     16  C   UNL d   1     -41.253-121.838 -54.295  0.00  0.00     0.085 C 
BRANCH  16  17
ATOM     17  C   UNL d   1     -41.587-122.354 -54.845  0.00  0.00     0.019 C 
BRANCH  17  18
ATOM     18  C   UNL d   1     -41.760-122.068 -55.609  0.00  0.00     0.002 C 
BRANCH  18  19
ATOM     19  C   UNL d   1     -42.433-122.360 -56.012  0.00  0.00     0.000 C 
ATOM     20  C   UNL d   1     -43.084-121.871 -56.106  0.00  0.00     0.000 C 
ENDBRANCH  18  19
ENDBRANCH  17  18
ENDBRANCH  16  17
ENDBRANCH   6  16
BRANCH  14  21
ATOM     21  C   UNL d   1     -41.758-123.347 -49.973  0.00  0.00     0.279 C 
ATOM     22  N   UNL d   1     -41.126-123.302 -49.446  0.00  0.00    -0.204 NA
ATOM     23  O   UNL d   1     -42.509-123.542 -49.691  0.00  0.00    -0.265 OA
BRANCH  22  24
ATOM     24  C   UNL d   1     -41.242-123.449 -48.640  0.00  0.00     0.127 C 
BRANCH  24  25
ATOM     25  C   UNL d   1     -41.570-122.860 -48.154  0.00  0.00     0.119 A 
ATOM     26  O   UNL d   1     -42.372-122.702 -48.064  0.00  0.00    -0.304 OA
ATOM     27  C   UNL d   1     -42.452-122.075 -47.531  0.00  0.00     0.123 A 
ATOM     28  C   UNL d   1     -41.691-121.849 -47.293  0.00  0.00     0.029 A 
ATOM     29  C   UNL d   1     -41.152-122.333 -47.678  0.00  0.00     0.028 A 
ENDBRANCH  24  25
ENDBRANCH  22  24
ENDBRANCH  14  21
ENDBRANCH   4   5
ENDBRANCH   3   4
TORSDOF 9
ENDMDL
MODEL 2
REMARK VINA RESULT:      14.9      1.377      5.364
REMARK  9 active torsions:
REMARK  status: ('A' for Active; 'I' for Inactive)
REMARK    1  A    between atoms: C_19  and  N_1 
REMARK    2  A    between atoms: S_15  and  C_2 
REMARK    3  A    between atoms: C_7  and  C_10 
REMARK       I    between atoms: N_12  and  C_7 
REMARK    4  A    between atoms: C_20  and  N_12 
REMARK    5  A    between atoms: C_22  and  S_15 
REMARK    6  A    between atoms: C_24  and  C_19 
REMARK    7  A    between atoms: C_21  and  C_20 
REMARK    8  A    between atoms: C_27  and  C_24 
REMARK    9  A    between atoms: C_26  and  C_27 
ROOT
ATOM      1  N   UNL d   1     -42.363-119.657 -52.679  0.00  0.00    -0.195 NA
ATOM      2  C   UNL d   1     -42.360-120.095 -51.977  0.00  0.00     0.086 C 
ATOM      3  C   UNL d   1     -42.360-120.530 -51.278  0.00  0.00     0.170 C 
ENDROOT
BRANCH   3   4
ATOM      4  S   UNL d   1     -41.712-120.995 -51.084  0.00  0.00    -0.060 SA
BRANCH   4   5
ATOM      5  C   UNL d   1     -41.565-121.712 -51.507  0.00  0.00     0.178 A 
ATOM      6  N   UNL d   1     -41.423-122.415 -51.098  0.00  0.00    -0.253 N 
ATOM      7  C   UNL d   1     -41.280-123.111 -51.512  0.00  0.00     0.268 A 
ATOM      8  C   UNL d   1     -41.281-123.100 -52.347  0.00  0.00     0.074 A 
ATOM      9  O   UNL d   1     -41.137-123.817 -51.111  0.00  0.00    -0.267 OA
ATOM     10  C   UNL d   1     -41.422-122.404 -52.751  0.00  0.00     0.088 A 
ATOM     11  C   UNL d   1     -41.138-123.800 -52.763  0.00  0.00     0.006 A 
ATOM     12  C   UNL d   1     -41.422-122.400 -53.576  0.00  0.00     0.024 A 
ATOM     13  N   UNL d   1     -41.565-121.708 -52.335  0.00  0.00    -0.222 NA
ATOM     14  C   UNL d   1     -41.279-123.095 -53.990  0.00  0.00     0.059 A 
ATOM     15  C   UNL d   1     -41.138-123.791 -53.586  0.00  0.00     0.005 A 
BRANCH   6  16
ATOM     16  C   UNL d   1     -41.424-122.414 -50.261  0.00  0.00     0.085 C 
BRANCH  16  17
ATOM     17  C   UNL d   1     -42.087-122.709 -49.867  0.00  0.00     0.019 C 
BRANCH  17  18
ATOM     18  C   UNL d   1     -41.976-123.277 -49.266  0.00  0.00     0.002 C 
BRANCH  18  19
ATOM     19  C   UNL d   1     -41.666-123.035 -48.527  0.00  0.00     0.000 C 
ATOM     20  C   UNL d   1     -42.000-123.330 -47.840  0.00  0.00     0.000 C 
ENDBRANCH  18  19
ENDBRANCH  17  18
ENDBRANCH  16  17
ENDBRANCH   6  16
BRANCH  14  21
ATOM     21  C   UNL d   1     -41.279-123.089 -54.814  0.00  0.00     0.279 C 
ATOM     22  N   UNL d   1     -41.250-122.377 -55.227  0.00  0.00    -0.204 NA
ATOM     23  O   UNL d   1     -41.308-123.801 -55.232  0.00  0.00    -0.265 OA
BRANCH  22  24
ATOM     24  C   UNL d   1     -41.250-122.373 -56.054  0.00  0.00     0.127 C 
BRANCH  24  25
ATOM     25  C   UNL d   1     -41.654-121.774 -56.466  0.00  0.00     0.119 A 
ATOM     26  O   UNL d   1     -42.470-121.686 -56.510  0.00  0.00    -0.304 OA
ATOM     27  C   UNL d   1     -42.632-121.021 -56.974  0.00  0.00     0.123 A 
ATOM     28  C   UNL d   1     -41.907-120.700 -57.214  0.00  0.00     0.029 A 
ATOM     29  C   UNL d   1     -41.308-121.165 -56.900  0.00  0.00     0.028 A 
ENDBRANCH  24  25
ENDBRANCH  22  24
ENDBRANCH  14  21
ENDBRANCH   4   5
ENDBRANCH   3   4
TORSDOF 9
ENDMDL
MODEL 3
REMARK VINA RESULT:      14.9      1.443      1.944
REMARK  9 active torsions:
REMARK  status: ('A' for Active; 'I' for Inactive)
REMARK    1  A    between atoms: C_19  and  N_1 
REMARK    2  A    between atoms: S_15  and  C_2 
REMARK    3  A    between atoms: C_7  and  C_10 
REMARK       I    between atoms: N_12  and  C_7 
REMARK    4  A    between atoms: C_20  and  N_12 
REMARK    5  A    between atoms: C_22  and  S_15 
REMARK    6  A    between atoms: C_24  and  C_19 
REMARK    7  A    between atoms: C_21  and  C_20 
REMARK    8  A    between atoms: C_27  and  C_24 
REMARK    9  A    between atoms: C_26  and  C_27 
ROOT
ATOM      1  N   UNL d   1     -43.388-122.865 -56.290  0.00  0.00    -0.195 NA
ATOM      2  C   UNL d   1     -43.328-122.879 -55.466  0.00  0.00     0.086 C 
ATOM      3  C   UNL d   1     -43.268-122.896 -54.645  0.00  0.00     0.170 C 
ENDROOT
BRANCH   3   4
ATOM      4  S   UNL d   1     -43.310-122.198 -54.216  0.00  0.00    -0.060 SA
BRANCH   4   5
ATOM      5  C   UNL d   1     -42.768-122.057 -53.583  0.00  0.00     0.178 A 
ATOM      6  N   UNL d   1     -42.216-121.445 -53.635  0.00  0.00    -0.253 N 
ATOM      7  C   UNL d   1     -41.689-121.310 -53.018  0.00  0.00     0.268 A 
ATOM      8  C   UNL d   1     -41.717-121.797 -52.341  0.00  0.00     0.074 A 
ATOM      9  O   UNL d   1     -41.136-120.700 -53.064  0.00  0.00    -0.267 OA
ATOM     10  C   UNL d   1     -42.262-122.403 -52.290  0.00  0.00     0.088 A 
ATOM     11  C   UNL d   1     -41.187-121.662 -51.721  0.00  0.00     0.006 A 
ATOM     12  C   UNL d   1     -42.285-122.881 -51.618  0.00  0.00     0.024 A 
ATOM     13  N   UNL d   1     -42.789-122.536 -52.909  0.00  0.00    -0.222 NA
ATOM     14  C   UNL d   1     -41.759-122.748 -51.001  0.00  0.00     0.059 A 
ATOM     15  C   UNL d   1     -41.213-122.142 -51.052  0.00  0.00     0.005 A 
BRANCH   6  16
ATOM     16  C   UNL d   1     -42.198-120.962 -54.320  0.00  0.00     0.085 C 
BRANCH  16  17
ATOM     17  C   UNL d   1     -41.956-121.299 -55.033  0.00  0.00     0.019 C 
BRANCH  17  18
ATOM     18  C   UNL d   1     -41.461-120.856 -55.538  0.00  0.00     0.002 C 
BRANCH  18  19
ATOM     19  C   UNL d   1     -41.664-120.783 -56.347  0.00  0.00     0.000 C 
ATOM     20  C   UNL d   1     -41.194-120.322 -56.835  0.00  0.00     0.000 C 
ENDBRANCH  18  19
ENDBRANCH  17  18
ENDBRANCH  16  17
ENDBRANCH   6  16
BRANCH  14  21
ATOM     21  C   UNL d   1     -41.782-123.225 -50.331  0.00  0.00     0.279 C 
ATOM     22  N   UNL d   1     -42.370-123.121 -49.763  0.00  0.00    -0.204 NA
ATOM     23  O   UNL d   1     -41.214-123.815 -50.224  0.00  0.00    -0.265 OA
BRANCH  22  24
ATOM     24  C   UNL d   1     -42.392-123.602 -49.090  0.00  0.00     0.127 C 
BRANCH  24  25
ATOM     25  C   UNL d   1     -42.074-123.327 -48.373  0.00  0.00     0.119 A 
ATOM     26  O   UNL d   1     -41.360-122.929 -48.284  0.00  0.00    -0.304 OA
ATOM     27  C   UNL d   1     -41.260-122.759 -47.481  0.00  0.00     0.123 A 
ATOM     28  C   UNL d   1     -41.919-123.056 -47.077  0.00  0.00     0.029 A 
ATOM     29  C   UNL d   1     -42.417-123.404 -47.628  0.00  0.00     0.028 A 
ENDBRANCH  24  25
ENDBRANCH  22  24
ENDBRANCH  14  21
ENDBRANCH   4   5
ENDBRANCH   3   4
TORSDOF 9
ENDMDL
