MODEL 1
REMARK VINA RESULT:      -7.5      0.000      0.000
REMARK  6 active torsions:
REMARK  status: ('A' for Active; 'I' for Inactive)
REMARK    1  A    between atoms: C_16  and  C_2 
REMARK    2  A    between atoms: C_11  and  C_7 
REMARK    3  A    between atoms: S_17  and  C_9 
REMARK    4  A    between atoms: O_20  and  C_11 
REMARK    5  A    between atoms: C_13  and  C_19 
REMARK    6  A    between atoms: C_19  and  S_17 
ROOT
ATOM      1  N   UNL d   1     -49.755  12.558  23.376  0.00  0.00    -0.191 N 
ATOM      2  C   UNL d   1     -50.496  12.905  23.314  0.00  0.00     0.187 A 
ATOM      3  N   UNL d   1     -51.056  12.330  23.481  0.00  0.00    -0.127 NA
ATOM      4  C   UNL d   1     -49.844  11.770  23.580  0.00  0.00     0.187 A 
ATOM      5  N   UNL d   1     -48.984  12.871  23.268  0.00  0.00    -0.156 NA
ATOM      6  N   UNL d   1     -50.661  11.624  23.647  0.00  0.00    -0.127 NA
ATOM      7  C   UNL d   1     -48.324  12.387  23.367  0.00  0.00     0.131 A 
ATOM      8  C   UNL d   1     -49.183  11.286  23.679  0.00  0.00     0.043 A 
ATOM      9  C   UNL d   1     -48.424  11.594  23.573  0.00  0.00     0.031 A 
ENDROOT
BRANCH   7  10
ATOM     10  S   UNL d   1     -47.564  12.694  23.261  0.00  0.00    -0.064 SA
BRANCH  10  11
ATOM     11  C   UNL d   1     -47.210  12.665  22.518  0.00  0.00     0.062 C 
BRANCH  11  12
ATOM     12  C   UNL d   1     -46.440  12.922  22.426  0.00  0.00     0.107 A 
ATOM     13  O   UNL d   1     -45.797  12.454  22.223  0.00  0.00    -0.301 OA
ATOM     14  C   UNL d   1     -45.129  12.926  22.190  0.00  0.00     0.163 A 
ATOM     15  C   UNL d   1     -45.353  13.704  22.374  0.00  0.00     0.032 A 
ATOM     16  C   UNL d   1     -46.165  13.696  22.520  0.00  0.00     0.027 A 
BRANCH  14  17
ATOM     17  C   UNL d   1     -44.365  12.686  22.007  0.00  0.00     0.319 C 
ATOM     18  O   UNL d   1     -44.023  12.023  22.369  0.00  0.00    -0.257 OA
BRANCH  17  19
ATOM     19  O   UNL d   1     -43.924  13.109  21.453  0.00  0.00    -0.294 OA
ATOM     20  C   UNL d   1     -43.132  12.920  21.304  0.00  0.00     0.185 C 
ENDBRANCH  17  19
ENDBRANCH  14  17
ENDBRANCH  11  12
ENDBRANCH  10  11
ENDBRANCH   7  10
BRANCH   2  21
ATOM     21  C   UNL d   1     -50.656  13.685  23.121  0.00  0.00     0.038 A 
ATOM     22  C   UNL d   1     -50.828  13.882  22.336  0.00  0.00     0.003 A 
ATOM     23  C   UNL d   1     -50.992  14.669  22.135  0.00  0.00     0.000 A 
ATOM     24  C   UNL d   1     -50.981  15.251  22.720  0.00  0.00     0.000 A 
ATOM     25  C   UNL d   1     -50.808  15.054  23.506  0.00  0.00     0.000 A 
ATOM     26  C   UNL d   1     -50.647  14.266  23.698  0.00  0.00     0.003 A 
ENDBRANCH   2  21
TORSDOF 6
ENDMDL
MODEL 2
REMARK VINA RESULT:      -7.4      1.423      2.150
REMARK  6 active torsions:
REMARK  status: ('A' for Active; 'I' for Inactive)
REMARK    1  A    between atoms: C_16  and  C_2 
REMARK    2  A    between atoms: C_11  and  C_7 
REMARK    3  A    between atoms: S_17  and  C_9 
REMARK    4  A    between atoms: O_20  and  C_11 
REMARK    5  A    between atoms: C_13  and  C_19 
REMARK    6  A    between atoms: C_19  and  S_17 
ROOT
ATOM      1  N   UNL d   1     -49.353  14.461  22.719  0.00  0.00    -0.191 N 
ATOM      2  C   UNL d   1     -50.144  14.245  22.706  0.00  0.00     0.187 A 
ATOM      3  N   UNL d   1     -50.584  14.918  22.544  0.00  0.00    -0.127 NA
ATOM      4  C   UNL d   1     -49.291  15.263  22.567  0.00  0.00     0.187 A 
ATOM      5  N   UNL d   1     -48.657  14.013  22.855  0.00  0.00    -0.156 NA
ATOM      6  N   UNL d   1     -50.064  15.553  22.457  0.00  0.00    -0.127 NA
ATOM      7  C   UNL d   1     -47.918  14.380  22.834  0.00  0.00     0.131 A 
ATOM      8  C   UNL d   1     -48.552  15.630  22.547  0.00  0.00     0.043 A 
ATOM      9  C   UNL d   1     -47.866  15.189  22.680  0.00  0.00     0.031 A 
ENDROOT
BRANCH   7  10
ATOM     10  S   UNL d   1     -47.233  13.939  22.968  0.00  0.00    -0.064 SA
BRANCH  10  11
ATOM     11  C   UNL d   1     -46.746  13.735  22.336  0.00  0.00     0.062 C 
BRANCH  11  12
ATOM     12  C   UNL d   1     -46.143  13.194  22.446  0.00  0.00     0.107 A 
ATOM     13  O   UNL d   1     -45.407  13.213  22.082  0.00  0.00    -0.301 OA
ATOM     14  C   UNL d   1     -44.970  12.573  22.344  0.00  0.00     0.163 A 
ATOM     15  C   UNL d   1     -45.435  12.145  22.881  0.00  0.00     0.032 A 
ATOM     16  C   UNL d   1     -46.160  12.532  22.941  0.00  0.00     0.027 A 
BRANCH  14  17
ATOM     17  C   UNL d   1     -44.203  12.378  22.123  0.00  0.00     0.319 C 
ATOM     18  O   UNL d   1     -43.824  11.707  22.429  0.00  0.00    -0.257 OA
BRANCH  17  19
ATOM     19  O   UNL d   1     -43.797  12.854  21.585  0.00  0.00    -0.294 OA
ATOM     20  C   UNL d   1     -43.054  12.633  21.297  0.00  0.00     0.185 C 
ENDBRANCH  17  19
ENDBRANCH  14  17
ENDBRANCH  11  12
ENDBRANCH  10  11
ENDBRANCH   7  10
BRANCH   2  21
ATOM     21  C   UNL d   1     -50.449  13.495  22.831  0.00  0.00     0.038 A 
ATOM     22  C   UNL d   1     -50.468  12.954  22.205  0.00  0.00     0.003 A 
ATOM     23  C   UNL d   1     -50.775  12.194  22.326  0.00  0.00     0.000 A 
ATOM     24  C   UNL d   1     -51.060  11.983  23.071  0.00  0.00     0.000 A 
ATOM     25  C   UNL d   1     -51.041  12.523  23.697  0.00  0.00     0.000 A 
ATOM     26  C   UNL d   1     -50.733  13.280  23.569  0.00  0.00     0.003 A 
ENDBRANCH   2  21
TORSDOF 6
ENDMDL
MODEL 3
REMARK VINA RESULT:      -6.6      1.790      2.580
REMARK  6 active torsions:
REMARK  status: ('A' for Active; 'I' for Inactive)
REMARK    1  A    between atoms: C_16  and  C_2 
REMARK    2  A    between atoms: C_11  and  C_7 
REMARK    3  A    between atoms: S_17  and  C_9 
REMARK    4  A    between atoms: O_20  and  C_11 
REMARK    5  A    between atoms: C_13  and  C_19 
REMARK    6  A    between atoms: C_19  and  S_17 
ROOT
ATOM      1  N   UNL d   1     -48.597  14.308  22.710  0.00  0.00    -0.191 N 
ATOM      2  C   UNL d   1     -49.404  14.332  22.566  0.00  0.00     0.187 A 
ATOM      3  N   UNL d   1     -49.582  15.071  22.258  0.00  0.00    -0.127 NA
ATOM      4  C   UNL d   1     -48.265  15.025  22.496  0.00  0.00     0.187 A 
ATOM      5  N   UNL d   1     -48.105  13.704  23.020  0.00  0.00    -0.156 NA
ATOM      6  N   UNL d   1     -48.882  15.506  22.211  0.00  0.00    -0.127 NA
ATOM      7  C   UNL d   1     -47.295  13.833  23.107  0.00  0.00     0.131 A 
ATOM      8  C   UNL d   1     -47.455  15.155  22.583  0.00  0.00     0.043 A 
ATOM      9  C   UNL d   1     -46.970  14.560  22.888  0.00  0.00     0.031 A 
ENDROOT
BRANCH   7  10
ATOM     10  S   UNL d   1     -46.810  13.238  23.412  0.00  0.00    -0.064 SA
BRANCH  10  11
ATOM     11  C   UNL d   1     -46.348  12.785  22.904  0.00  0.00     0.062 C 
BRANCH  11  12
ATOM     12  C   UNL d   1     -46.050  12.067  23.158  0.00  0.00     0.107 A 
ATOM     13  O   UNL d   1     -45.269  11.820  23.094  0.00  0.00    -0.301 OA
ATOM     14  C   UNL d   1     -45.205  11.070  23.415  0.00  0.00     0.163 A 
ATOM     15  C   UNL d   1     -45.955  10.840  23.686  0.00  0.00     0.032 A 
ATOM     16  C   UNL d   1     -46.475  11.460  23.525  0.00  0.00     0.027 A 
BRANCH  14  17
ATOM     17  C   UNL d   1     -44.524  10.613  23.468  0.00  0.00     0.319 C 
ATOM     18  O   UNL d   1     -44.556   9.817  23.698  0.00  0.00    -0.257 OA
BRANCH  17  19
ATOM     19  O   UNL d   1     -43.792  10.948  23.288  0.00  0.00    -0.294 OA
ATOM     20  C   UNL d   1     -43.103  10.489  23.287  0.00  0.00     0.185 C 
ENDBRANCH  17  19
ENDBRANCH  14  17
ENDBRANCH  11  12
ENDBRANCH  10  11
ENDBRANCH   7  10
BRANCH   2  21
ATOM     21  C   UNL d   1     -49.943  13.730  22.702  0.00  0.00     0.038 A 
ATOM     22  C   UNL d   1     -50.293  13.659  23.449  0.00  0.00     0.003 A 
ATOM     23  C   UNL d   1     -50.839  13.052  23.592  0.00  0.00     0.000 A 
ATOM     24  C   UNL d   1     -51.029  12.523  22.988  0.00  0.00     0.000 A 
ATOM     25  C   UNL d   1     -50.679  12.594  22.241  0.00  0.00     0.000 A 
ATOM     26  C   UNL d   1     -50.136  13.202  22.106  0.00  0.00     0.003 A 
ENDBRANCH   2  21
TORSDOF 6
ENDMDL
MODEL 4
REMARK VINA RESULT:      -5.0      6.047      8.682
REMARK  6 active torsions:
REMARK  status: ('A' for Active; 'I' for Inactive)
REMARK    1  A    between atoms: C_16  and  C_2 
REMARK    2  A    between atoms: C_11  and  C_7 
REMARK    3  A    between atoms: S_17  and  C_9 
REMARK    4  A    between atoms: O_20  and  C_11 
REMARK    5  A    between atoms: C_13  and  C_19 
REMARK    6  A    between atoms: C_19  and  S_17 
ROOT
ATOM      1  N   UNL d   1     -40.084  14.761  19.921  0.00  0.00    -0.191 N 
ATOM      2  C   UNL d   1     -39.768  15.043  19.219  0.00  0.00     0.187 A 
ATOM      3  N   UNL d   1     -38.979  15.222  19.354  0.00  0.00    -0.127 NA
ATOM      4  C   UNL d   1     -39.502  14.762  20.498  0.00  0.00     0.187 A 
ATOM      5  N   UNL d   1     -40.855  14.495  20.116  0.00  0.00    -0.156 NA
ATOM      6  N   UNL d   1     -38.806  15.052  20.144  0.00  0.00    -0.127 NA
ATOM      7  C   UNL d   1     -41.023  14.237  20.882  0.00  0.00     0.131 A 
ATOM      8  C   UNL d   1     -39.670  14.504  21.264  0.00  0.00     0.043 A 
ATOM      9  C   UNL d   1     -40.429  14.242  21.456  0.00  0.00     0.031 A 
ENDROOT
BRANCH   7  10
ATOM     10  S   UNL d   1     -41.782  13.975  21.074  0.00  0.00    -0.064 SA
BRANCH  10  11
ATOM     11  C   UNL d   1     -41.957  13.171  21.051  0.00  0.00     0.062 C 
BRANCH  11  12
ATOM     12  C   UNL d   1     -42.671  12.903  21.345  0.00  0.00     0.107 A 
ATOM     13  O   UNL d   1     -42.767  12.342  21.937  0.00  0.00    -0.301 OA
ATOM     14  C   UNL d   1     -43.568  12.232  22.065  0.00  0.00     0.163 A 
ATOM     15  C   UNL d   1     -43.983  12.730  21.547  0.00  0.00     0.032 A 
ATOM     16  C   UNL d   1     -43.424  13.143  21.103  0.00  0.00     0.027 A 
BRANCH  14  17
ATOM     17  C   UNL d   1     -43.914  11.722  22.608  0.00  0.00     0.319 C 
ATOM     18  O   UNL d   1     -44.660  11.882  22.935  0.00  0.00    -0.257 OA
BRANCH  17  19
ATOM     19  O   UNL d   1     -43.518  11.035  22.837  0.00  0.00    -0.294 OA
ATOM     20  C   UNL d   1     -43.864  10.499  23.364  0.00  0.00     0.185 C 
ENDBRANCH  17  19
ENDBRANCH  14  17
ENDBRANCH  11  12
ENDBRANCH  10  11
ENDBRANCH   7  10
BRANCH   2  21
ATOM     21  C   UNL d   1     -40.161  15.131  18.506  0.00  0.00     0.038 A 
ATOM     22  C   UNL d   1     -40.159  14.509  17.961  0.00  0.00     0.003 A 
ATOM     23  C   UNL d   1     -40.556  14.594  17.238  0.00  0.00     0.000 A 
ATOM     24  C   UNL d   1     -40.950  15.299  17.068  0.00  0.00     0.000 A 
ATOM     25  C   UNL d   1     -40.952  15.921  17.614  0.00  0.00     0.000 A 
ATOM     26  C   UNL d   1     -40.554  15.829  18.333  0.00  0.00     0.003 A 
ENDBRANCH   2  21
TORSDOF 6
ENDMDL
