MODEL 1
REMARK VINA RESULT:      -3.7      0.000      0.000
REMARK  4 active torsions:
REMARK  status: ('A' for Active; 'I' for Inactive)
REMARK    1  A    between atoms: C_7  and  C_2 
REMARK    2  A    between atoms: C_9  and  C_4 
REMARK    3  A    between atoms: C_15  and  C_7 
REMARK    4  A    between atoms: N_8  and  C_9 
ROOT
ATOM      1  C   UNL d   1      59.211  -0.589  29.602  0.00  0.00     0.108 A 
ATOM      2  C   UNL d   1      58.268   0.035  30.320  0.00  0.00     0.139 A 
ATOM      3  O   UNL d   1      58.393  -0.460  29.663  0.00  0.00    -0.304 OA
ATOM      4  C   UNL d   1      59.662  -1.026  29.070  0.00  0.00     0.079 A 
ATOM      5  C   UNL d   1      59.584  -0.178  30.215  0.00  0.00     0.064 A 
ATOM      6  C   UNL d   1      59.002   0.206  30.656  0.00  0.00     0.220 A 
ATOM      7  C   UNL d   1      60.405  -0.206  30.292  0.00  0.00     0.009 A 
ATOM      8  C   UNL d   1      60.476  -1.051  29.151  0.00  0.00     0.199 A 
ATOM      9  O   UNL d   1      59.131   0.682  31.322  0.00  0.00    -0.284 OA
ATOM     10  C   UNL d   1      60.853  -0.645  29.757  0.00  0.00     0.042 A 
ATOM     11  O   UNL d   1      60.924  -1.491  28.615  0.00  0.00    -0.286 OA
ENDROOT
BRANCH   2  12
ATOM     12  C   UNL d   1      57.533   0.306  30.586  0.00  0.00     0.028 C 
BRANCH  12  13
ATOM     13  C   UNL d   1      57.151  -0.073  31.213  0.00  0.00     0.002 A 
ATOM     14  C   UNL d   1      56.881   0.370  31.855  0.00  0.00     0.000 A 
ATOM     15  C   UNL d   1      56.500  -0.001  32.482  0.00  0.00     0.000 A 
ATOM     16  C   UNL d   1      56.387  -0.824  32.469  0.00  0.00     0.000 A 
ATOM     17  C   UNL d   1      56.657  -1.268  31.827  0.00  0.00     0.000 A 
ATOM     18  C   UNL d   1      56.006  -1.199  33.096  0.00  0.00     0.000 C 
ATOM     19  C   UNL d   1      57.039  -0.888  31.200  0.00  0.00     0.000 A 
ENDBRANCH  12  13
ENDBRANCH   2  12
BRANCH   4  20
ATOM     20  C   UNL d   1      59.293  -1.434  28.464  0.00  0.00     0.086 C 
BRANCH  20  21
ATOM     21  N   UNL d   1      59.107  -2.245  28.468  0.00  0.00    -0.300 N 
ATOM     22  C   UNL d   1      58.318  -2.467  28.485  0.00  0.00     0.100 A 
ATOM     23  C   UNL d   1      58.124  -3.267  28.489  0.00  0.00     0.100 A 
ATOM     24  N   UNL d   1      58.722  -3.823  28.476  0.00  0.00    -0.299 N 
ATOM     25  C   UNL d   1      59.505  -3.586  28.459  0.00  0.00     0.100 A 
ATOM     26  C   UNL d   1      58.534  -4.616  28.480  0.00  0.00     0.100 C 
ATOM     27  C   UNL d   1      59.690  -2.794  28.455  0.00  0.00     0.100 A 
ENDBRANCH  20  21
ENDBRANCH   4  20
TORSDOF 4
ENDMDL
MODEL 2
REMARK VINA RESULT:      -2.9      1.708      4.383
REMARK  4 active torsions:
REMARK  status: ('A' for Active; 'I' for Inactive)
REMARK    1  A    between atoms: C_7  and  C_2 
REMARK    2  A    between atoms: C_9  and  C_4 
REMARK    3  A    between atoms: C_15  and  C_7 
REMARK    4  A    between atoms: N_8  and  C_9 
ROOT
ATOM      1  C   UNL d   1      58.956  -0.453  29.532  0.00  0.00     0.108 A 
ATOM      2  C   UNL d   1      60.229  -0.873  29.527  0.00  0.00     0.139 A 
ATOM      3  O   UNL d   1      59.489  -0.979  29.892  0.00  0.00    -0.304 OA
ATOM      4  C   UNL d   1      58.156  -0.308  29.657  0.00  0.00     0.079 A 
ATOM      5  C   UNL d   1      59.366  -0.029  28.952  0.00  0.00     0.064 A 
ATOM      6  C   UNL d   1      60.148  -0.289  28.951  0.00  0.00     0.220 A 
ATOM      7  C   UNL d   1      58.973   0.538  28.500  0.00  0.00     0.009 A 
ATOM      8  C   UNL d   1      57.770   0.256  29.206  0.00  0.00     0.199 A 
ATOM      9  O   UNL d   1      60.752  -0.011  28.455  0.00  0.00    -0.284 OA
ATOM     10  C   UNL d   1      58.170   0.682  28.628  0.00  0.00     0.042 A 
ATOM     11  O   UNL d   1      56.968   0.399  29.335  0.00  0.00    -0.286 OA
ENDROOT
BRANCH   2  12
ATOM     12  C   UNL d   1      60.921  -1.285  29.715  0.00  0.00     0.028 C 
BRANCH  12  13
ATOM     13  C   UNL d   1      60.974  -2.098  29.575  0.00  0.00     0.002 A 
ATOM     14  C   UNL d   1      61.009  -2.377  28.799  0.00  0.00     0.000 A 
ATOM     15  C   UNL d   1      61.062  -3.185  28.653  0.00  0.00     0.000 A 
ATOM     16  C   UNL d   1      61.079  -3.719  29.288  0.00  0.00     0.000 A 
ATOM     17  C   UNL d   1      61.043  -3.441  30.064  0.00  0.00     0.000 A 
ATOM     18  C   UNL d   1      61.131  -4.530  29.145  0.00  0.00     0.000 C 
ATOM     19  C   UNL d   1      60.990  -2.627  30.204  0.00  0.00     0.000 A 
ENDBRANCH  12  13
ENDBRANCH   2  12
BRANCH   4  20
ATOM     20  C   UNL d   1      57.751  -0.727  30.230  0.00  0.00     0.086 C 
BRANCH  20  21
ATOM     21  N   UNL d   1      57.553  -0.444  30.988  0.00  0.00    -0.300 N 
ATOM     22  C   UNL d   1      57.136  -0.937  31.494  0.00  0.00     0.100 A 
ATOM     23  C   UNL d   1      56.934  -0.667  32.245  0.00  0.00     0.100 A 
ATOM     24  N   UNL d   1      57.155   0.087  32.471  0.00  0.00    -0.299 N 
ATOM     25  C   UNL d   1      57.571   0.566  31.954  0.00  0.00     0.100 A 
ATOM     26  C   UNL d   1      56.958   0.358  33.214  0.00  0.00     0.100 C 
ATOM     27  C   UNL d   1      57.766   0.293  31.214  0.00  0.00     0.100 A 
ENDBRANCH  20  21
ENDBRANCH   4  20
TORSDOF 4
ENDMDL
MODEL 3
REMARK VINA RESULT:      -2.4      1.577      4.257
REMARK  4 active torsions:
REMARK  status: ('A' for Active; 'I' for Inactive)
REMARK    1  A    between atoms: C_7  and  C_2 
REMARK    2  A    between atoms: C_9  and  C_4 
REMARK    3  A    between atoms: C_15  and  C_7 
REMARK    4  A    between atoms: N_8  and  C_9 
ROOT
ATOM      1  C   UNL d   1      58.337  -0.195  30.462  0.00  0.00     0.108 A 
ATOM      2  C   UNL d   1      58.893  -0.674  29.341  0.00  0.00     0.139 A 
ATOM      3  O   UNL d   1      58.181  -0.626  29.769  0.00  0.00    -0.304 OA
ATOM      4  C   UNL d   1      57.856   0.028  31.091  0.00  0.00     0.079 A 
ATOM      5  C   UNL d   1      59.136   0.018  30.459  0.00  0.00     0.064 A 
ATOM      6  C   UNL d   1      59.476  -0.278  29.769  0.00  0.00     0.220 A 
ATOM      7  C   UNL d   1      59.449   0.453  31.086  0.00  0.00     0.009 A 
ATOM      8  C   UNL d   1      58.172   0.460  31.711  0.00  0.00     0.199 A 
ATOM      9  O   UNL d   1      60.269  -0.192  29.542  0.00  0.00    -0.284 OA
ATOM     10  C   UNL d   1      58.965   0.675  31.715  0.00  0.00     0.042 A 
ATOM     11  O   UNL d   1      57.686   0.682  32.340  0.00  0.00    -0.286 OA
ENDROOT
BRANCH   2  12
ATOM     12  C   UNL d   1      58.992  -1.055  28.614  0.00  0.00     0.028 C 
BRANCH  12  13
ATOM     13  C   UNL d   1      59.014  -1.881  28.575  0.00  0.00     0.002 A 
ATOM     14  C   UNL d   1      58.311  -2.304  28.494  0.00  0.00     0.000 A 
ATOM     15  C   UNL d   1      58.326  -3.126  28.455  0.00  0.00     0.000 A 
ATOM     16  C   UNL d   1      59.052  -3.528  28.497  0.00  0.00     0.000 A 
ATOM     17  C   UNL d   1      59.755  -3.105  28.578  0.00  0.00     0.000 A 
ATOM     18  C   UNL d   1      59.071  -4.352  28.458  0.00  0.00     0.000 C 
ATOM     19  C   UNL d   1      59.733  -2.279  28.616  0.00  0.00     0.000 A 
ENDBRANCH  12  13
ENDBRANCH   2  12
BRANCH   4  20
ATOM     20  C   UNL d   1      57.066  -0.183  31.094  0.00  0.00     0.086 C 
BRANCH  20  21
ATOM     21  N   UNL d   1      56.644  -0.474  31.750  0.00  0.00    -0.300 N 
ATOM     22  C   UNL d   1      56.678  -1.277  31.914  0.00  0.00     0.100 A 
ATOM     23  C   UNL d   1      56.264  -1.575  32.561  0.00  0.00     0.100 A 
ATOM     24  N   UNL d   1      55.828  -1.063  33.025  0.00  0.00    -0.299 N 
ATOM     25  C   UNL d   1      55.804  -0.265  32.848  0.00  0.00     0.100 A 
ATOM     26  C   UNL d   1      55.417  -1.355  33.666  0.00  0.00     0.100 C 
ATOM     27  C   UNL d   1      56.215   0.023  32.208  0.00  0.00     0.100 A 
ENDBRANCH  20  21
ENDBRANCH   4  20
TORSDOF 4
ENDMDL
MODEL 4
REMARK VINA RESULT:      -1.5      1.471      2.419
REMARK  4 active torsions:
REMARK  status: ('A' for Active; 'I' for Inactive)
REMARK    1  A    between atoms: C_7  and  C_2 
REMARK    2  A    between atoms: C_9  and  C_4 
REMARK    3  A    between atoms: C_15  and  C_7 
REMARK    4  A    between atoms: N_8  and  C_9 
ROOT
ATOM      1  C   UNL d   1      58.857   0.680  31.786  0.00  0.00     0.108 A 
ATOM      2  C   UNL d   1      57.886   0.679  32.709  0.00  0.00     0.139 A 
ATOM      3  O   UNL d   1      58.033   0.678  31.890  0.00  0.00    -0.304 OA
ATOM      4  C   UNL d   1      59.327   0.680  31.110  0.00  0.00     0.079 A 
ATOM      5  C   UNL d   1      59.211   0.680  32.533  0.00  0.00     0.064 A 
ATOM      6  C   UNL d   1      58.612   0.680  33.099  0.00  0.00     0.220 A 
ATOM      7  C   UNL d   1      60.033   0.682  32.600  0.00  0.00     0.009 A 
ATOM      8  C   UNL d   1      60.142   0.681  31.182  0.00  0.00     0.199 A 
ATOM      9  O   UNL d   1      58.720   0.680  33.921  0.00  0.00    -0.284 OA
ATOM     10  C   UNL d   1      60.501   0.682  31.921  0.00  0.00     0.042 A 
ATOM     11  O   UNL d   1      60.610   0.681  30.502  0.00  0.00    -0.286 OA
ENDROOT
BRANCH   2  12
ATOM     12  C   UNL d   1      57.138   0.678  33.063  0.00  0.00     0.028 C 
BRANCH  12  13
ATOM     13  C   UNL d   1      56.660   0.005  33.025  0.00  0.00     0.002 A 
ATOM     14  C   UNL d   1      56.460  -0.394  33.719  0.00  0.00     0.000 A 
ATOM     15  C   UNL d   1      55.984  -1.065  33.688  0.00  0.00     0.000 A 
ATOM     16  C   UNL d   1      55.705  -1.339  32.955  0.00  0.00     0.000 A 
ATOM     17  C   UNL d   1      55.904  -0.940  32.261  0.00  0.00     0.000 A 
ATOM     18  C   UNL d   1      55.227  -2.011  32.921  0.00  0.00     0.000 C 
ATOM     19  C   UNL d   1      56.383  -0.267  32.299  0.00  0.00     0.000 A 
ENDBRANCH  12  13
ENDBRANCH   2  12
BRANCH   4  20
ATOM     20  C   UNL d   1      58.976   0.679  30.371  0.00  0.00     0.086 C 
BRANCH  20  21
ATOM     21  N   UNL d   1      58.884   0.014  29.879  0.00  0.00    -0.300 N 
ATOM     22  C   UNL d   1      59.099  -0.722  30.169  0.00  0.00     0.100 A 
ATOM     23  C   UNL d   1      59.012  -1.386  29.690  0.00  0.00     0.100 A 
ATOM     24  N   UNL d   1      58.712  -1.297  28.935  0.00  0.00    -0.299 N 
ATOM     25  C   UNL d   1      58.502  -0.556  28.660  0.00  0.00     0.100 A 
ATOM     26  C   UNL d   1      58.624  -1.952  28.458  0.00  0.00     0.100 C 
ATOM     27  C   UNL d   1      58.591   0.096  29.139  0.00  0.00     0.100 A 
ENDBRANCH  20  21
ENDBRANCH   4  20
TORSDOF 4
ENDMDL
