MODEL 1
REMARK VINA RESULT:      -3.2      0.000      0.000
REMARK  4 active torsions:
REMARK  status: ('A' for Active; 'I' for Inactive)
REMARK    1  A    between atoms: C_5  and  C_1 
REMARK       I    between atoms: N_7  and  C_5 
REMARK    2  A    between atoms: C_9  and  N_7 
REMARK    3  A    between atoms: C_8  and  C_9 
REMARK    4  A    between atoms: O_13  and  C_11 
ROOT
ATOM      1  C   UNL d   1      32.997  18.856 -23.411  0.00  0.00     0.299 C 
ATOM      2  N   UNL d   1      32.952  19.307 -22.714  0.00  0.00    -0.205 NA
ATOM      3  O   UNL d   1      33.240  19.207 -24.114  0.00  0.00    -0.263 OA
ENDROOT
BRANCH   1   4
ATOM      4  C   UNL d   1      32.796  18.051 -23.395  0.00  0.00     0.162 A 
ATOM      5  N   UNL d   1      33.234  17.454 -23.035  0.00  0.00    -0.143 NA
ATOM      6  N   UNL d   1      32.835  16.729 -23.151  0.00  0.00    -0.148 NA
ATOM      7  C   UNL d   1      32.143  16.897 -23.591  0.00  0.00     0.105 A 
ATOM      8  C   UNL d   1      32.122  17.713 -23.740  0.00  0.00     0.044 A 
ATOM      9  C   UNL d   1      31.545  16.410 -23.866  0.00  0.00     0.021 A 
ATOM     10  C   UNL d   1      31.492  18.030 -24.169  0.00  0.00     0.003 A 
ATOM     11  C   UNL d   1      30.897  17.545 -24.442  0.00  0.00     0.000 A 
ATOM     12  C   UNL d   1      30.921  16.738 -24.293  0.00  0.00     0.002 A 
ENDBRANCH   1   4
BRANCH   2  13
ATOM     13  C   UNL d   1      33.152  20.108 -22.732  0.00  0.00     0.104 C 
BRANCH  13  14
ATOM     14  C   UNL d   1      33.180  20.554 -22.040  0.00  0.00     0.042 A 
ATOM     15  C   UNL d   1      33.207  21.383 -22.077  0.00  0.00     0.096 A 
ATOM     16  C   UNL d   1      33.234  21.814 -21.386  0.00  0.00     0.024 A 
ATOM     17  C   UNL d   1      33.236  21.434 -20.654  0.00  0.00     0.002 A 
ATOM     18  C   UNL d   1      33.210  20.618 -20.605  0.00  0.00     0.000 A 
ATOM     19  C   UNL d   1      33.181  20.168 -21.303  0.00  0.00     0.004 A 
BRANCH  15  20
ATOM     20  O   UNL d   1      33.205  21.773 -22.807  0.00  0.00    -0.328 OA
ATOM     21  C   UNL d   1      33.069  22.581 -22.859  0.00  0.00     0.181 C 
ENDBRANCH  15  20
ENDBRANCH  13  14
ENDBRANCH   2  13
TORSDOF 4
ENDMDL
MODEL 2
REMARK VINA RESULT:      -3.0      1.690      2.689
REMARK  4 active torsions:
REMARK  status: ('A' for Active; 'I' for Inactive)
REMARK    1  A    between atoms: C_5  and  C_1 
REMARK       I    between atoms: N_7  and  C_5 
REMARK    2  A    between atoms: C_9  and  N_7 
REMARK    3  A    between atoms: C_8  and  C_9 
REMARK    4  A    between atoms: O_13  and  C_11 
ROOT
ATOM      1  C   UNL d   1      31.297  16.948 -24.101  0.00  0.00     0.299 C 
ATOM      2  N   UNL d   1      31.639  17.543 -23.632  0.00  0.00    -0.205 NA
ATOM      3  O   UNL d   1      31.535  16.852 -24.883  0.00  0.00    -0.263 OA
ENDROOT
BRANCH   1   4
ATOM      4  C   UNL d   1      30.715  16.451 -23.779  0.00  0.00     0.162 A 
ATOM      5  N   UNL d   1      30.854  15.806 -23.288  0.00  0.00    -0.143 NA
ATOM      6  N   UNL d   1      30.118  15.461 -23.092  0.00  0.00    -0.148 NA
ATOM      7  C   UNL d   1      29.526  15.913 -23.475  0.00  0.00     0.105 A 
ATOM      8  C   UNL d   1      29.898  16.523 -23.898  0.00  0.00     0.044 A 
ATOM      9  C   UNL d   1      28.711  15.839 -23.486  0.00  0.00     0.021 A 
ATOM     10  C   UNL d   1      29.437  17.055 -24.330  0.00  0.00     0.003 A 
ATOM     11  C   UNL d   1      28.626  16.981 -24.341  0.00  0.00     0.000 A 
ATOM     12  C   UNL d   1      28.262  16.376 -23.921  0.00  0.00     0.002 A 
ENDBRANCH   1   4
BRANCH   2  13
ATOM     13  C   UNL d   1      32.218  18.036 -23.954  0.00  0.00     0.104 C 
BRANCH  13  14
ATOM     14  C   UNL d   1      32.559  18.638 -23.508  0.00  0.00     0.042 A 
ATOM     15  C   UNL d   1      32.795  19.346 -23.871  0.00  0.00     0.096 A 
ATOM     16  C   UNL d   1      33.132  19.935 -23.420  0.00  0.00     0.024 A 
ATOM     17  C   UNL d   1      33.241  19.832 -22.608  0.00  0.00     0.002 A 
ATOM     18  C   UNL d   1      33.013  19.138 -22.240  0.00  0.00     0.000 A 
ATOM     19  C   UNL d   1      32.668  18.531 -22.690  0.00  0.00     0.004 A 
BRANCH  15  20
ATOM     20  O   UNL d   1      32.691  19.460 -24.684  0.00  0.00    -0.328 OA
ATOM     21  C   UNL d   1      33.124  20.021 -25.096  0.00  0.00     0.181 C 
ENDBRANCH  15  20
ENDBRANCH  13  14
ENDBRANCH   2  13
TORSDOF 4
ENDMDL
MODEL 3
REMARK VINA RESULT:      -2.6      1.236      4.639
REMARK  4 active torsions:
REMARK  status: ('A' for Active; 'I' for Inactive)
REMARK    1  A    between atoms: C_5  and  C_1 
REMARK       I    between atoms: N_7  and  C_5 
REMARK    2  A    between atoms: C_9  and  N_7 
REMARK    3  A    between atoms: C_8  and  C_9 
REMARK    4  A    between atoms: O_13  and  C_11 
ROOT
ATOM      1  C   UNL d   1      33.025  19.658 -22.396  0.00  0.00     0.299 C 
ATOM      2  N   UNL d   1      32.804  19.246 -23.082  0.00  0.00    -0.205 NA
ATOM      3  O   UNL d   1      33.241  19.245 -21.718  0.00  0.00    -0.263 OA
ENDROOT
BRANCH   1   4
ATOM      4  C   UNL d   1      33.028  20.488 -22.395  0.00  0.00     0.162 A 
ATOM      5  N   UNL d   1      33.241  20.967 -23.029  0.00  0.00    -0.143 NA
ATOM      6  N   UNL d   1      33.165  21.766 -22.793  0.00  0.00    -0.148 NA
ATOM      7  C   UNL d   1      32.900  21.762 -21.999  0.00  0.00     0.105 A 
ATOM      8  C   UNL d   1      32.817  20.972 -21.756  0.00  0.00     0.044 A 
ATOM      9  C   UNL d   1      32.731  22.374 -21.482  0.00  0.00     0.021 A 
ATOM     10  C   UNL d   1      32.560  20.810 -20.988  0.00  0.00     0.003 A 
ATOM     11  C   UNL d   1      32.392  21.419 -20.475  0.00  0.00     0.000 A 
ATOM     12  C   UNL d   1      32.475  22.199 -20.718  0.00  0.00     0.002 A 
ENDBRANCH   1   4
BRANCH   2  13
ATOM     13  C   UNL d   1      32.802  18.419 -23.080  0.00  0.00     0.104 C 
BRANCH  13  14
ATOM     14  C   UNL d   1      32.433  17.995 -23.681  0.00  0.00     0.042 A 
ATOM     15  C   UNL d   1      32.522  17.170 -23.726  0.00  0.00     0.096 A 
ATOM     16  C   UNL d   1      32.152  16.760 -24.325  0.00  0.00     0.024 A 
ATOM     17  C   UNL d   1      31.692  17.156 -24.884  0.00  0.00     0.002 A 
ATOM     18  C   UNL d   1      31.598  17.967 -24.850  0.00  0.00     0.000 A 
ATOM     19  C   UNL d   1      31.970  18.397 -24.244  0.00  0.00     0.004 A 
BRANCH  15  20
ATOM     20  O   UNL d   1      32.980  16.764 -23.170  0.00  0.00    -0.328 OA
ATOM     21  C   UNL d   1      33.076  15.950 -23.209  0.00  0.00     0.181 C 
ENDBRANCH  15  20
ENDBRANCH  13  14
ENDBRANCH   2  13
TORSDOF 4
ENDMDL
MODEL 4
REMARK VINA RESULT:      -2.1      2.242      5.023
REMARK  4 active torsions:
REMARK  status: ('A' for Active; 'I' for Inactive)
REMARK    1  A    between atoms: C_5  and  C_1 
REMARK       I    between atoms: N_7  and  C_5 
REMARK    2  A    between atoms: C_9  and  N_7 
REMARK    3  A    between atoms: C_8  and  C_9 
REMARK    4  A    between atoms: O_13  and  C_11 
ROOT
ATOM      1  C   UNL d   1      31.802  17.047 -24.306  0.00  0.00     0.299 C 
ATOM      2  N   UNL d   1      30.975  16.996 -24.370  0.00  0.00    -0.205 NA
ATOM      3  O   UNL d   1      32.246  16.369 -24.160  0.00  0.00    -0.263 OA
ENDROOT
BRANCH   1   4
ATOM      4  C   UNL d   1      32.179  17.781 -24.389  0.00  0.00     0.162 A 
ATOM      5  N   UNL d   1      32.288  18.187 -25.097  0.00  0.00    -0.143 NA
ATOM      6  N   UNL d   1      32.691  18.900 -24.932  0.00  0.00    -0.148 NA
ATOM      7  C   UNL d   1      32.824  18.921 -24.105  0.00  0.00     0.105 A 
ATOM      8  C   UNL d   1      32.507  18.229 -23.774  0.00  0.00     0.044 A 
ATOM      9  C   UNL d   1      33.190  19.478 -23.630  0.00  0.00     0.021 A 
ATOM     10  C   UNL d   1      32.564  18.108 -22.959  0.00  0.00     0.003 A 
ATOM     11  C   UNL d   1      32.928  18.663 -22.486  0.00  0.00     0.000 A 
ATOM     12  C   UNL d   1      33.241  19.346 -22.818  0.00  0.00     0.002 A 
ENDBRANCH   1   4
BRANCH   2  13
ATOM     13  C   UNL d   1      30.602  16.263 -24.287  0.00  0.00     0.104 C 
BRANCH  13  14
ATOM     14  C   UNL d   1      29.783  16.209 -24.225  0.00  0.00     0.042 A 
ATOM     15  C   UNL d   1      29.436  15.863 -23.555  0.00  0.00     0.096 A 
ATOM     16  C   UNL d   1      28.624  15.814 -23.505  0.00  0.00     0.024 A 
ATOM     17  C   UNL d   1      28.147  16.104 -24.112  0.00  0.00     0.002 A 
ATOM     18  C   UNL d   1      28.478  16.447 -24.777  0.00  0.00     0.000 A 
ATOM     19  C   UNL d   1      29.305  16.503 -24.840  0.00  0.00     0.004 A 
BRANCH  15  20
ATOM     20  O   UNL d   1      29.905  15.568 -22.940  0.00  0.00    -0.328 OA
ATOM     21  C   UNL d   1      29.600  15.453 -22.188  0.00  0.00     0.181 C 
ENDBRANCH  15  20
ENDBRANCH  13  14
ENDBRANCH   2  13
TORSDOF 4
ENDMDL
MODEL 5
REMARK VINA RESULT:      -2.1      2.325      3.559
REMARK  4 active torsions:
REMARK  status: ('A' for Active; 'I' for Inactive)
REMARK    1  A    between atoms: C_5  and  C_1 
REMARK       I    between atoms: N_7  and  C_5 
REMARK    2  A    between atoms: C_9  and  N_7 
REMARK    3  A    between atoms: C_8  and  C_9 
REMARK    4  A    between atoms: O_13  and  C_11 
ROOT
ATOM      1  C   UNL d   1      30.215  17.298 -24.747  0.00  0.00     0.299 C 
ATOM      2  N   UNL d   1      30.997  17.230 -24.474  0.00  0.00    -0.205 NA
ATOM      3  O   UNL d   1      29.960  17.998 -25.097  0.00  0.00    -0.263 OA
ENDROOT
BRANCH   1   4
ATOM      4  C   UNL d   1      29.693  16.658 -24.667  0.00  0.00     0.162 A 
ATOM      5  N   UNL d   1      29.751  15.939 -25.063  0.00  0.00    -0.143 NA
ATOM      6  N   UNL d   1      29.115  15.453 -24.822  0.00  0.00    -0.148 NA
ATOM      7  C   UNL d   1      28.667  15.894 -24.268  0.00  0.00     0.105 A 
ATOM      8  C   UNL d   1      29.026  16.636 -24.176  0.00  0.00     0.044 A 
ATOM      9  C   UNL d   1      27.989  15.706 -23.850  0.00  0.00     0.021 A 
ATOM     10  C   UNL d   1      28.693  17.185 -23.656  0.00  0.00     0.003 A 
ATOM     11  C   UNL d   1      28.018  16.998 -23.240  0.00  0.00     0.000 A 
ATOM     12  C   UNL d   1      27.666  16.262 -23.334  0.00  0.00     0.002 A 
ENDBRANCH   1   4
BRANCH   2  13
ATOM     13  C   UNL d   1      31.515  17.869 -24.555  0.00  0.00     0.104 C 
BRANCH  13  14
ATOM     14  C   UNL d   1      32.092  18.021 -23.988  0.00  0.00     0.042 A 
ATOM     15  C   UNL d   1      32.606  18.668 -24.077  0.00  0.00     0.096 A 
ATOM     16  C   UNL d   1      33.173  18.809 -23.509  0.00  0.00     0.024 A 
ATOM     17  C   UNL d   1      33.241  18.317 -22.850  0.00  0.00     0.002 A 
ATOM     18  C   UNL d   1      32.741  17.678 -22.752  0.00  0.00     0.000 A 
ATOM     19  C   UNL d   1      32.158  17.523 -23.324  0.00  0.00     0.004 A 
BRANCH  15  20
ATOM     20  O   UNL d   1      32.547  19.167 -24.734  0.00  0.00    -0.328 OA
ATOM     21  C   UNL d   1      33.152  19.683 -24.934  0.00  0.00     0.181 C 
ENDBRANCH  15  20
ENDBRANCH  13  14
ENDBRANCH   2  13
TORSDOF 4
ENDMDL
MODEL 6
REMARK VINA RESULT:      -2.1      1.140      1.630
REMARK  4 active torsions:
REMARK  status: ('A' for Active; 'I' for Inactive)
REMARK    1  A    between atoms: C_5  and  C_1 
REMARK       I    between atoms: N_7  and  C_5 
REMARK    2  A    between atoms: C_9  and  N_7 
REMARK    3  A    between atoms: C_8  and  C_9 
REMARK    4  A    between atoms: O_13  and  C_11 
ROOT
ATOM      1  C   UNL d   1      33.034  19.085 -23.001  0.00  0.00     0.299 C 
ATOM      2  N   UNL d   1      32.942  19.907 -22.928  0.00  0.00    -0.205 NA
ATOM      3  O   UNL d   1      33.241  18.633 -22.345  0.00  0.00    -0.263 OA
ENDROOT
BRANCH   1   4
ATOM      4  C   UNL d   1      32.917  18.721 -23.737  0.00  0.00     0.162 A 
ATOM      5  N   UNL d   1      33.223  18.981 -24.456  0.00  0.00    -0.143 NA
ATOM      6  N   UNL d   1      32.972  18.455 -25.055  0.00  0.00    -0.148 NA
ATOM      7  C   UNL d   1      32.505  17.867 -24.684  0.00  0.00     0.105 A 
ATOM      8  C   UNL d   1      32.473  18.034 -23.872  0.00  0.00     0.044 A 
ATOM      9  C   UNL d   1      32.115  17.215 -24.989  0.00  0.00     0.021 A 
ATOM     10  C   UNL d   1      32.044  17.534 -23.374  0.00  0.00     0.003 A 
ATOM     11  C   UNL d   1      31.657  16.886 -23.677  0.00  0.00     0.000 A 
ATOM     12  C   UNL d   1      31.690  16.724 -24.481  0.00  0.00     0.002 A 
ENDBRANCH   1   4
BRANCH   2  13
ATOM     13  C   UNL d   1      33.058  20.269 -22.194  0.00  0.00     0.104 C 
BRANCH  13  14
ATOM     14  C   UNL d   1      33.076  21.088 -22.122  0.00  0.00     0.042 A 
ATOM     15  C   UNL d   1      32.950  21.447 -21.384  0.00  0.00     0.096 A 
ATOM     16  C   UNL d   1      32.970  22.259 -21.324  0.00  0.00     0.024 A 
ATOM     17  C   UNL d   1      33.115  22.726 -21.989  0.00  0.00     0.002 A 
ATOM     18  C   UNL d   1      33.240  22.384 -22.721  0.00  0.00     0.000 A 
ATOM     19  C   UNL d   1      33.222  21.556 -22.795  0.00  0.00     0.004 A 
BRANCH  15  20
ATOM     20  O   UNL d   1      32.804  20.988 -20.710  0.00  0.00    -0.328 OA
ATOM     21  C   UNL d   1      32.987  21.262 -19.959  0.00  0.00     0.181 C 
ENDBRANCH  15  20
ENDBRANCH  13  14
ENDBRANCH   2  13
TORSDOF 4
ENDMDL
MODEL 7
REMARK VINA RESULT:      -0.3      1.691      4.516
REMARK  4 active torsions:
REMARK  status: ('A' for Active; 'I' for Inactive)
REMARK    1  A    between atoms: C_5  and  C_1 
REMARK       I    between atoms: N_7  and  C_5 
REMARK    2  A    between atoms: C_9  and  N_7 
REMARK    3  A    between atoms: C_8  and  C_9 
REMARK    4  A    between atoms: O_13  and  C_11 
ROOT
ATOM      1  C   UNL d   1      32.482  18.180 -24.558  0.00  0.00     0.299 C 
ATOM      2  N   UNL d   1      31.744  17.855 -24.358  0.00  0.00    -0.205 NA
ATOM      3  O   UNL d   1      33.010  17.749 -25.020  0.00  0.00    -0.263 OA
ENDROOT
BRANCH   1   4
ATOM      4  C   UNL d   1      32.686  18.939 -24.291  0.00  0.00     0.162 A 
ATOM      5  N   UNL d   1      32.755  19.610 -24.762  0.00  0.00    -0.143 NA
ATOM      6  N   UNL d   1      32.969  20.253 -24.273  0.00  0.00    -0.148 NA
ATOM      7  C   UNL d   1      33.028  19.958 -23.492  0.00  0.00     0.105 A 
ATOM      8  C   UNL d   1      32.853  19.147 -23.507  0.00  0.00     0.044 A 
ATOM      9  C   UNL d   1      33.218  20.328 -22.786  0.00  0.00     0.021 A 
ATOM     10  C   UNL d   1      32.871  18.716 -22.802  0.00  0.00     0.003 A 
ATOM     11  C   UNL d   1      33.059  19.085 -22.101  0.00  0.00     0.000 A 
ATOM     12  C   UNL d   1      33.232  19.887 -22.090  0.00  0.00     0.002 A 
ENDBRANCH   1   4
BRANCH   2  13
ATOM     13  C   UNL d   1      31.542  17.100 -24.625  0.00  0.00     0.104 C 
BRANCH  13  14
ATOM     14  C   UNL d   1      31.027  16.622 -24.197  0.00  0.00     0.042 A 
ATOM     15  C   UNL d   1      30.206  16.705 -24.289  0.00  0.00     0.096 A 
ATOM     16  C   UNL d   1      29.704  16.226 -23.860  0.00  0.00     0.024 A 
ATOM     17  C   UNL d   1      30.006  15.663 -23.338  0.00  0.00     0.002 A 
ATOM     18  C   UNL d   1      30.812  15.572 -23.240  0.00  0.00     0.000 A 
ATOM     19  C   UNL d   1      31.334  16.054 -23.671  0.00  0.00     0.004 A 
BRANCH  15  20
ATOM     20  O   UNL d   1      29.893  17.267 -24.809  0.00  0.00    -0.328 OA
ATOM     21  C   UNL d   1      29.107  17.244 -25.041  0.00  0.00     0.181 C 
ENDBRANCH  15  20
ENDBRANCH  13  14
ENDBRANCH   2  13
TORSDOF 4
ENDMDL
