MODEL 1
REMARK VINA RESULT:      68.1      0.000      0.000
REMARK  4 active torsions:
REMARK  status: ('A' for Active; 'I' for Inactive)
REMARK    1  A    between atoms: C_9  and  C_3 
REMARK    2  A    between atoms: C_11  and  C_7 
REMARK    3  A    between atoms: O_22  and  C_16 
REMARK    4  A    between atoms: O_23  and  C_17 
ROOT
ATOM      1  N   UNL d   1     -54.868-100.044 -42.982  0.00  0.00    -0.186 N 
ATOM      2  N   UNL d   1     -54.851-100.645 -42.405  0.00  0.00    -0.162 NA
ATOM      3  C   UNL d   1     -54.932-100.064 -43.791  0.00  0.00     0.187 A 
ATOM      4  C   UNL d   1     -54.811 -99.256 -42.751  0.00  0.00     0.217 A 
ATOM      5  N   UNL d   1     -54.918 -99.301 -44.074  0.00  0.00    -0.127 NA
ATOM      6  N   UNL d   1     -54.844 -98.802 -43.440  0.00  0.00    -0.120 NA
ATOM      7  C   UNL d   1     -54.779-100.449 -41.610  0.00  0.00     0.108 A 
ATOM      8  S   UNL d   1     -54.740 -99.076 -41.952  0.00  0.00    -0.045 SA
ATOM      9  C   UNL d   1     -54.722 -99.660 -41.372  0.00  0.00     0.059 A 
ENDROOT
BRANCH   3  10
ATOM     10  C   UNL d   1     -55.001-100.762 -44.231  0.00  0.00     0.038 A 
ATOM     11  C   UNL d   1     -54.770-100.770 -45.011  0.00  0.00     0.005 A 
ATOM     12  C   UNL d   1     -54.839-101.469 -45.451  0.00  0.00     0.024 A 
ATOM     13  C   UNL d   1     -55.140-102.146 -45.089  0.00  0.00     0.094 A 
ATOM     14  C   UNL d   1     -55.372-102.136 -44.304  0.00  0.00     0.024 A 
ATOM     15  C   UNL d   1     -55.301-101.440 -43.872  0.00  0.00     0.005 A 
BRANCH  13  16
ATOM     16  O   UNL d   1     -55.218-102.860 -45.513  0.00  0.00    -0.328 OA
ATOM     17  C   UNL d   1     -55.384-102.847 -46.336  0.00  0.00     0.181 C 
ENDBRANCH  13  16
ENDBRANCH   3  10
BRANCH   7  18
ATOM     18  C   UNL d   1     -54.763-101.045 -41.043  0.00  0.00     0.020 A 
ATOM     19  C   UNL d   1     -54.782-100.856 -40.239  0.00  0.00     0.004 A 
ATOM     20  C   UNL d   1     -54.766-101.444 -39.661  0.00  0.00     0.024 A 
ATOM     21  C   UNL d   1     -54.731-102.246 -39.896  0.00  0.00     0.094 A 
ATOM     22  C   UNL d   1     -54.712-102.440 -40.682  0.00  0.00     0.024 A 
ATOM     23  C   UNL d   1     -54.728-101.839 -41.266  0.00  0.00     0.004 A 
BRANCH  21  24
ATOM     24  O   UNL d   1     -54.715-102.838 -39.317  0.00  0.00    -0.328 OA
ATOM     25  C   UNL d   1     -55.225-102.790 -38.662  0.00  0.00     0.181 C 
ENDBRANCH  21  24
ENDBRANCH   7  18
TORSDOF 4
ENDMDL
