MODEL 1
REMARK VINA RESULT:      -5.0      0.000      0.000
REMARK  0 active torsions:
REMARK  status: ('A' for Active; 'I' for Inactive)
ROOT
ATOM      1  C   UNL d   1     -41.867-122.280 -53.946  0.00  0.00     0.020 A 
ATOM      2  N   UNL d   1     -42.429-121.398 -54.926  0.00  0.00    -0.242 NA
ATOM      3  C   UNL d   1     -41.689-122.819 -54.541  0.00  0.00     0.003 A 
ATOM      4  C   UNL d   1     -41.679-122.442 -53.160  0.00  0.00     0.013 A 
ATOM      5  C   UNL d   1     -41.317-123.532 -54.343  0.00  0.00     0.001 A 
ATOM      6  C   UNL d   1     -41.311-123.149 -52.968  0.00  0.00     0.058 A 
ATOM      7  C   UNL d   1     -41.129-123.696 -53.561  0.00  0.00     0.011 A 
ATOM      8  C   UNL d   1     -42.239-121.565 -54.140  0.00  0.00     0.099 A 
ATOM      9 CL   UNL d   1     -41.123-123.313 -52.186  0.00  0.00    -0.082 Cl
ATOM     10  C   UNL d   1     -42.247-121.945 -55.519  0.00  0.00     0.099 A 
ATOM     11  C   UNL d   1     -41.875-122.661 -55.329  0.00  0.00     0.021 A 
ENDROOT
TORSDOF 0
ENDMDL
MODEL 2
REMARK VINA RESULT:      -4.8      1.564      2.305
REMARK  0 active torsions:
REMARK  status: ('A' for Active; 'I' for Inactive)
ROOT
ATOM      1  C   UNL d   1     -41.624-122.330 -53.480  0.00  0.00     0.020 A 
ATOM      2  N   UNL d   1     -41.380-122.327 -52.068  0.00  0.00    -0.242 NA
ATOM      3  C   UNL d   1     -41.371-123.113 -53.516  0.00  0.00     0.003 A 
ATOM      4  C   UNL d   1     -41.871-121.935 -54.159  0.00  0.00     0.013 A 
ATOM      5  C   UNL d   1     -41.369-123.503 -54.247  0.00  0.00     0.001 A 
ATOM      6  C   UNL d   1     -41.867-122.326 -54.880  0.00  0.00     0.058 A 
ATOM      7  C   UNL d   1     -41.615-123.112 -54.924  0.00  0.00     0.011 A 
ATOM      8  C   UNL d   1     -41.628-121.936 -52.751  0.00  0.00     0.099 A 
ATOM      9 CL   UNL d   1     -42.114-121.935 -55.559  0.00  0.00    -0.082 Cl
ATOM     10  C   UNL d   1     -41.128-123.114 -52.112  0.00  0.00     0.099 A 
ATOM     11  C   UNL d   1     -41.123-123.512 -52.839  0.00  0.00     0.021 A 
ENDROOT
TORSDOF 0
ENDMDL
MODEL 3
REMARK VINA RESULT:      -4.4      0.699      1.022
REMARK  0 active torsions:
REMARK  status: ('A' for Active; 'I' for Inactive)
ROOT
ATOM      1  C   UNL d   1     -41.536-122.446 -53.304  0.00  0.00     0.020 A 
ATOM      2  N   UNL d   1     -41.790-121.944 -54.622  0.00  0.00    -0.242 NA
ATOM      3  C   UNL d   1     -41.376-123.187 -53.624  0.00  0.00     0.003 A 
ATOM      4  C   UNL d   1     -41.492-122.318 -52.492  0.00  0.00     0.013 A 
ATOM      5  C   UNL d   1     -41.169-123.809 -53.117  0.00  0.00     0.001 A 
ATOM      6  C   UNL d   1     -41.286-122.936 -51.994  0.00  0.00     0.058 A 
ATOM      7  C   UNL d   1     -41.124-123.684 -52.308  0.00  0.00     0.011 A 
ATOM      8  C   UNL d   1     -41.744-121.821 -53.808  0.00  0.00     0.099 A 
ATOM      9 CL   UNL d   1     -41.241-122.812 -51.184  0.00  0.00    -0.082 Cl
ATOM     10  C   UNL d   1     -41.628-122.692 -54.936  0.00  0.00     0.099 A 
ATOM     11  C   UNL d   1     -41.420-123.319 -54.436  0.00  0.00     0.021 A 
ENDROOT
TORSDOF 0
ENDMDL
MODEL 4
REMARK VINA RESULT:      -4.0      1.831      2.539
REMARK  0 active torsions:
REMARK  status: ('A' for Active; 'I' for Inactive)
ROOT
ATOM      1  C   UNL d   1     -41.432-122.455 -51.723  0.00  0.00     0.020 A 
ATOM      2  N   UNL d   1     -41.438-121.985 -53.076  0.00  0.00    -0.242 NA
ATOM      3  C   UNL d   1     -41.227-123.206 -51.991  0.00  0.00     0.003 A 
ATOM      4  C   UNL d   1     -41.533-122.307 -50.919  0.00  0.00     0.013 A 
ATOM      5  C   UNL d   1     -41.123-123.817 -51.441  0.00  0.00     0.001 A 
ATOM      6  C   UNL d   1     -41.429-122.914 -50.378  0.00  0.00     0.058 A 
ATOM      7  C   UNL d   1     -41.223-123.672 -50.640  0.00  0.00     0.011 A 
ATOM      8  C   UNL d   1     -41.538-121.842 -52.271  0.00  0.00     0.099 A 
ATOM      9 CL   UNL d   1     -41.529-122.770 -49.576  0.00  0.00    -0.082 Cl
ATOM     10  C   UNL d   1     -41.232-122.742 -53.338  0.00  0.00     0.099 A 
ATOM     11  C   UNL d   1     -41.125-123.358 -52.794  0.00  0.00     0.021 A 
ENDROOT
TORSDOF 0
ENDMDL
MODEL 5
REMARK VINA RESULT:      -3.6      3.297      4.316
REMARK  0 active torsions:
REMARK  status: ('A' for Active; 'I' for Inactive)
ROOT
ATOM      1  C   UNL d   1     -42.246-122.604 -50.204  0.00  0.00     0.020 A 
ATOM      2  N   UNL d   1     -43.016-122.792 -49.011  0.00  0.00    -0.242 NA
ATOM      3  C   UNL d   1     -41.898-123.342 -50.089  0.00  0.00     0.003 A 
ATOM      4  C   UNL d   1     -42.041-122.138 -50.852  0.00  0.00     0.013 A 
ATOM      5  C   UNL d   1     -41.337-123.613 -50.634  0.00  0.00     0.001 A 
ATOM      6  C   UNL d   1     -41.485-122.411 -51.389  0.00  0.00     0.058 A 
ATOM      7  C   UNL d   1     -41.132-123.151 -51.280  0.00  0.00     0.011 A 
ATOM      8  C   UNL d   1     -42.808-122.329 -49.661  0.00  0.00     0.099 A 
ATOM      9 CL   UNL d   1     -41.279-121.949 -52.036  0.00  0.00    -0.082 Cl
ATOM     10  C   UNL d   1     -42.663-123.532 -48.902  0.00  0.00     0.099 A 
ATOM     11  C   UNL d   1     -42.101-123.811 -49.442  0.00  0.00     0.021 A 
ENDROOT
TORSDOF 0
ENDMDL
MODEL 6
REMARK VINA RESULT:      -3.2      4.644      5.782
REMARK  0 active torsions:
REMARK  status: ('A' for Active; 'I' for Inactive)
ROOT
ATOM      1  C   UNL d   1     -41.654-123.321 -48.795  0.00  0.00     0.020 A 
ATOM      2  N   UNL d   1     -41.395-123.817 -47.476  0.00  0.00    -0.242 NA
ATOM      3  C   UNL d   1     -42.422-123.132 -48.567  0.00  0.00     0.003 A 
ATOM      4  C   UNL d   1     -41.392-123.172 -49.561  0.00  0.00     0.013 A 
ATOM      5  C   UNL d   1     -42.934-122.788 -49.120  0.00  0.00     0.001 A 
ATOM      6  C   UNL d   1     -41.903-122.830 -50.105  0.00  0.00     0.058 A 
ATOM      7  C   UNL d   1     -42.676-122.638 -49.884  0.00  0.00     0.011 A 
ATOM      8  C   UNL d   1     -41.138-123.666 -48.245  0.00  0.00     0.099 A 
ATOM      9 CL   UNL d   1     -41.645-122.680 -50.871  0.00  0.00    -0.082 Cl
ATOM     10  C   UNL d   1     -42.169-123.625 -47.255  0.00  0.00     0.099 A 
ATOM     11  C   UNL d   1     -42.687-123.280 -47.801  0.00  0.00     0.021 A 
ENDROOT
TORSDOF 0
ENDMDL
