MODEL 1
REMARK VINA RESULT:      -1.3      0.000      0.000
REMARK  10 active torsions:
REMARK  status: ('A' for Active; 'I' for Inactive)
REMARK    1  A    between atoms: C_11  and  S_1 
REMARK    2  A    between atoms: N_12  and  S_1 
REMARK    3  A    between atoms: C_2  and  O_7 
REMARK    4  A    between atoms: C_3  and  S_18 
REMARK    5  A    between atoms: C_6  and  C_17 
REMARK    6  A    between atoms: O_7  and  C_6 
REMARK    7  A    between atoms: C_29  and  N_12 
REMARK    8  A    between atoms: C_30  and  N_12 
REMARK    9  A    between atoms: C_28  and  C_14 
REMARK   10  A    between atoms: S_18  and  C_28 
ROOT
ATOM      1  C   UNL d   1      33.152  20.349 -22.266  0.00  0.00     0.167 A 
ATOM      2  C   UNL d   1      33.029  20.270 -23.084  0.00  0.00     0.222 A 
ATOM      3  C   UNL d   1      32.982  19.505 -23.403  0.00  0.00     0.069 A 
ATOM      4  C   UNL d   1      33.226  19.684 -21.782  0.00  0.00     0.151 A 
ATOM      5  O   UNL d   1      33.178  18.931 -22.112  0.00  0.00    -0.302 OA
ATOM      6  C   UNL d   1      33.056  18.839 -22.920  0.00  0.00     0.110 A 
ATOM      7  O   UNL d   1      32.956  20.929 -23.563  0.00  0.00    -0.284 OA
ENDROOT
BRANCH   1   8
ATOM      8  O   UNL d   1      33.228  20.999 -21.754  0.00  0.00    -0.268 OA
BRANCH   8   9
ATOM      9  C   UNL d   1      32.561  21.321 -21.393  0.00  0.00     0.300 C 
ATOM     10  O   UNL d   1      31.822  21.192 -21.727  0.00  0.00    -0.259 OA
BRANCH   9  11
ATOM     11  C   UNL d   1      32.639  21.766 -20.707  0.00  0.00     0.064 A 
ATOM     12  C   UNL d   1      32.197  22.459 -20.594  0.00  0.00     0.006 A 
ATOM     13  C   UNL d   1      32.280  22.887 -19.922  0.00  0.00     0.013 A 
ATOM     14  C   UNL d   1      32.795  22.655 -19.341  0.00  0.00     0.104 A 
ATOM     15  C   UNL d   1      33.236  21.974 -19.443  0.00  0.00     0.013 A 
ATOM     16  C   UNL d   1      33.165  21.527 -20.118  0.00  0.00     0.006 A 
BRANCH  14  17
ATOM     17  S   UNL d   1      32.881  23.100 -18.643  0.00  0.00     0.271 S 
ATOM     18  O   UNL d   1      33.170  23.586 -19.258  0.00  0.00    -0.200 OA
ATOM     19  O   UNL d   1      33.055  23.701 -18.104  0.00  0.00    -0.200 OA
BRANCH  17  20
ATOM     20  N   UNL d   1      32.651  22.794 -17.921  0.00  0.00    -0.229 N 
BRANCH  20  21
ATOM     21  C   UNL d   1      33.206  22.462 -17.426  0.00  0.00     0.092 C 
ATOM     22  C   UNL d   1      33.056  22.391 -16.615  0.00  0.00     0.021 C 
ENDBRANCH  20  21
BRANCH  20  23
ATOM     23  C   UNL d   1      31.859  22.822 -17.693  0.00  0.00     0.092 C 
ATOM     24  C   UNL d   1      31.650  23.116 -16.960  0.00  0.00     0.021 C 
ENDBRANCH  20  23
ENDBRANCH  17  20
ENDBRANCH  14  17
ENDBRANCH   9  11
ENDBRANCH   8   9
ENDBRANCH   1   8
BRANCH   6  25
ATOM     25  C   UNL d   1      33.008  18.083 -23.247  0.00  0.00     0.063 C 
BRANCH  25  26
ATOM     26  S   UNL d   1      32.197  17.948 -23.346  0.00  0.00    -0.046 SA
BRANCH  26  27
ATOM     27  C   UNL d   1      31.922  17.191 -23.502  0.00  0.00     0.194 A 
ATOM     28  N   UNL d   1      32.272  16.745 -24.099  0.00  0.00    -0.221 NA
ATOM     29  C   UNL d   1      32.001  15.992 -24.255  0.00  0.00     0.085 A 
ATOM     30  C   UNL d   1      32.351  15.547 -24.852  0.00  0.00     0.021 C 
ATOM     31  C   UNL d   1      31.375  15.674 -23.816  0.00  0.00     0.038 A 
ATOM     32  C   UNL d   1      31.033  16.132 -23.219  0.00  0.00     0.085 A 
ATOM     33  N   UNL d   1      31.310  16.886 -23.069  0.00  0.00    -0.221 NA
ATOM     34  C   UNL d   1      30.407  15.814 -22.780  0.00  0.00     0.021 C 
ENDBRANCH  26  27
ENDBRANCH  25  26
ENDBRANCH   6  25
TORSDOF 10
ENDMDL
MODEL 2
REMARK VINA RESULT:       0.8      1.922      2.789
REMARK  10 active torsions:
REMARK  status: ('A' for Active; 'I' for Inactive)
REMARK    1  A    between atoms: C_11  and  S_1 
REMARK    2  A    between atoms: N_12  and  S_1 
REMARK    3  A    between atoms: C_2  and  O_7 
REMARK    4  A    between atoms: C_3  and  S_18 
REMARK    5  A    between atoms: C_6  and  C_17 
REMARK    6  A    between atoms: O_7  and  C_6 
REMARK    7  A    between atoms: C_29  and  N_12 
REMARK    8  A    between atoms: C_30  and  N_12 
REMARK    9  A    between atoms: C_28  and  C_14 
REMARK   10  A    between atoms: S_18  and  C_28 
ROOT
ATOM      1  C   UNL d   1      32.686  18.783 -23.835  0.00  0.00     0.167 A 
ATOM      2  C   UNL d   1      32.299  18.935 -24.555  0.00  0.00     0.222 A 
ATOM      3  C   UNL d   1      31.831  18.333 -24.886  0.00  0.00     0.069 A 
ATOM      4  C   UNL d   1      32.606  18.052 -23.457  0.00  0.00     0.151 A 
ATOM      5  O   UNL d   1      32.139  17.466 -23.796  0.00  0.00    -0.302 OA
ATOM      6  C   UNL d   1      31.752  17.603 -24.508  0.00  0.00     0.110 A 
ATOM      7  O   UNL d   1      32.378  19.658 -24.929  0.00  0.00    -0.284 OA
ENDROOT
BRANCH   1   8
ATOM      8  O   UNL d   1      33.186  19.227 -23.344  0.00  0.00    -0.268 OA
BRANCH   8   9
ATOM      9  C   UNL d   1      33.093  19.200 -22.524  0.00  0.00     0.300 C 
ATOM     10  O   UNL d   1      33.037  18.471 -22.152  0.00  0.00    -0.259 OA
BRANCH   9  11
ATOM     11  C   UNL d   1      33.057  19.897 -22.092  0.00  0.00     0.064 A 
ATOM     12  C   UNL d   1      33.122  20.635 -22.465  0.00  0.00     0.006 A 
ATOM     13  C   UNL d   1      33.086  21.311 -22.035  0.00  0.00     0.013 A 
ATOM     14  C   UNL d   1      32.986  21.289 -21.232  0.00  0.00     0.104 A 
ATOM     15  C   UNL d   1      32.920  20.566 -20.854  0.00  0.00     0.013 A 
ATOM     16  C   UNL d   1      32.955  19.870 -21.274  0.00  0.00     0.006 A 
BRANCH  14  17
ATOM     17  S   UNL d   1      32.948  21.990 -20.786  0.00  0.00     0.271 S 
ATOM     18  O   UNL d   1      33.210  21.400 -20.257  0.00  0.00    -0.200 OA
ATOM     19  O   UNL d   1      32.986  22.540 -20.171  0.00  0.00    -0.200 OA
BRANCH  17  20
ATOM     20  N   UNL d   1      32.710  22.692 -21.130  0.00  0.00    -0.229 N 
BRANCH  20  21
ATOM     21  C   UNL d   1      33.234  23.119 -21.586  0.00  0.00     0.092 C 
ATOM     22  C   UNL d   1      32.977  23.496 -22.277  0.00  0.00     0.021 C 
ENDBRANCH  20  21
BRANCH  20  23
ATOM     23  C   UNL d   1      31.942  22.969 -21.015  0.00  0.00     0.092 C 
ATOM     24  C   UNL d   1      31.812  23.700 -20.673  0.00  0.00     0.021 C 
ENDBRANCH  20  23
ENDBRANCH  17  20
ENDBRANCH  14  17
ENDBRANCH   9  11
ENDBRANCH   8   9
ENDBRANCH   1   8
BRANCH   6  25
ATOM     25  C   UNL d   1      31.284  17.013 -24.846  0.00  0.00     0.063 C 
BRANCH  25  26
ATOM     26  S   UNL d   1      31.174  16.458 -24.239  0.00  0.00    -0.046 SA
BRANCH  26  27
ATOM     27  C   UNL d   1      30.421  16.188 -24.061  0.00  0.00     0.194 A 
ATOM     28  N   UNL d   1      30.176  16.151 -23.276  0.00  0.00    -0.221 NA
ATOM     29  C   UNL d   1      29.428  15.883 -23.096  0.00  0.00     0.085 A 
ATOM     30  C   UNL d   1      29.184  15.846 -22.311  0.00  0.00     0.021 C 
ATOM     31  C   UNL d   1      28.913  15.647 -23.700  0.00  0.00     0.038 A 
ATOM     32  C   UNL d   1      29.170  15.689 -24.484  0.00  0.00     0.085 A 
ATOM     33  N   UNL d   1      29.922  15.959 -24.656  0.00  0.00    -0.221 NA
ATOM     34  C   UNL d   1      28.655  15.453 -25.088  0.00  0.00     0.021 C 
ENDBRANCH  26  27
ENDBRANCH  25  26
ENDBRANCH   6  25
TORSDOF 10
ENDMDL
