MODEL 1
REMARK VINA RESULT:     111.4      0.000      0.000
REMARK  2 active torsions:
REMARK  status: ('A' for Active; 'I' for Inactive)
REMARK    1  A    between atoms: N_11  and  C_4 
REMARK    2  A    between atoms: C_16  and  N_12 
ROOT
ATOM      1  N   UNL d   1     -56.499 -99.922 -44.035  0.00  0.00    -0.195 N 
ATOM      2  C   UNL d   1     -56.682 -99.531 -44.721  0.00  0.00     0.168 A 
ATOM      3  C   UNL d   1     -57.438 -99.338 -44.890  0.00  0.00     0.073 A 
ATOM      4  C   UNL d   1     -55.738-100.107 -43.881  0.00  0.00     0.153 A 
ATOM      5  N   UNL d   1     -57.828 -99.930 -43.685  0.00  0.00    -0.143 NA
ATOM      6  C   UNL d   1     -58.010 -99.539 -44.371  0.00  0.00     0.185 A 
ATOM      7  N   UNL d   1     -56.098 -99.335 -45.234  0.00  0.00    -0.227 NA
ATOM      8  C   UNL d   1     -57.618 -98.952 -45.568  0.00  0.00     0.007 A 
ATOM      9  N   UNL d   1     -58.781 -99.351 -44.529  0.00  0.00    -0.225 NA
ATOM     10  C   UNL d   1     -55.158 -99.914 -44.388  0.00  0.00     0.057 A 
ATOM     11  C   UNL d   1     -58.374 -98.759 -45.738  0.00  0.00     0.019 A 
ATOM     12  C   UNL d   1     -55.340 -99.523 -45.073  0.00  0.00     0.086 A 
ATOM     13  C   UNL d   1     -58.963 -98.960 -45.214  0.00  0.00     0.083 A 
ATOM     14  C   UNL d   1     -57.031 -98.755 -46.084  0.00  0.00     0.000 C 
ATOM     15  C   UNL d   1     -54.732 -99.321 -45.606  0.00  0.00     0.021 C 
ATOM     16  C   UNL d   1     -59.718 -98.771 -45.377  0.00  0.00     0.021 C 
ENDROOT
BRANCH   4  17
ATOM     17  N   UNL d   1     -55.558-100.510 -43.172  0.00  0.00    -0.286 N 
ATOM     18  C   UNL d   1     -55.007-101.127 -43.143  0.00  0.00     0.101 A 
ATOM     19  C   UNL d   1     -54.854-101.504 -42.421  0.00  0.00     0.100 A 
ATOM     20  N   UNL d   1     -55.248-101.269 -41.729  0.00  0.00    -0.301 N 
ATOM     21  C   UNL d   1     -55.810-100.643 -41.750  0.00  0.00     0.100 A 
ATOM     22  C   UNL d   1     -55.960-100.268 -42.473  0.00  0.00     0.101 A 
BRANCH  20  23
ATOM     23  C   UNL d   1     -55.092-101.649 -41.010  0.00  0.00     0.064 A 
ATOM     24  C   UNL d   1     -54.873-101.211 -40.344  0.00  0.00     0.016 A 
ATOM     25  C   UNL d   1     -54.809-100.390 -40.391  0.00  0.00     0.002 C 
ATOM     26  C   UNL d   1     -54.714-101.597 -39.613  0.00  0.00     0.001 A 
ATOM     27  C   UNL d   1     -54.777-102.431 -39.559  0.00  0.00     0.000 A 
ATOM     28  C   UNL d   1     -55.000-102.872 -40.239  0.00  0.00     0.002 A 
ATOM     29  C   UNL d   1     -55.155-102.482 -40.958  0.00  0.00     0.018 A 
ENDBRANCH  20  23
ENDBRANCH   4  17
TORSDOF 2
ENDMDL
