MODEL 1
REMARK VINA RESULT:     -10.2      0.000      0.000
REMARK  3 active torsions:
REMARK  status: ('A' for Active; 'I' for Inactive)
REMARK    1  A    between atoms: C_6  and  C_1 
REMARK    2  A    between atoms: C_12  and  C_6 
REMARK    3  A    between atoms: C_9  and  C_10 
ROOT
ATOM      1  C   UNL d   1      52.862  32.670  53.171  0.00  0.00     0.139 A 
ATOM      2  C   UNL d   1      53.412  31.511  53.526  0.00  0.00     0.064 A 
ATOM      3  C   UNL d   1      53.502  32.328  53.567  0.00  0.00     0.220 A 
ATOM      4  C   UNL d   1      52.720  31.342  53.108  0.00  0.00     0.106 A 
ATOM      5  O   UNL d   1      52.380  32.063  52.888  0.00  0.00    -0.304 OA
ATOM      6  C   UNL d   1      52.499  30.566  52.987  0.00  0.00     0.067 A 
ATOM      7  C   UNL d   1      53.876  30.897  53.820  0.00  0.00     0.009 A 
ATOM      8  O   UNL d   1      54.116  32.741  53.933  0.00  0.00    -0.284 OA
ATOM      9  C   UNL d   1      52.964  29.952  53.281  0.00  0.00     0.198 A 
ATOM     10  C   UNL d   1      53.649  30.119  53.695  0.00  0.00     0.042 A 
ATOM     11  O   UNL d   1      52.737  29.170  53.157  0.00  0.00    -0.286 OA
ENDROOT
BRANCH   1  12
ATOM     12  C   UNL d   1      52.724  33.477  53.073  0.00  0.00     0.028 C 
BRANCH  12  13
ATOM     13  C   UNL d   1      51.969  33.756  52.878  0.00  0.00     0.002 A 
ATOM     14  C   UNL d   1      51.818  33.997  52.108  0.00  0.00    -0.000 A 
ATOM     15  C   UNL d   1      51.075  34.275  51.901  0.00  0.00    -0.004 A 
ATOM     16  C   UNL d   1      50.472  34.313  52.475  0.00  0.00    -0.023 A 
ATOM     17  C   UNL d   1      50.628  34.069  53.250  0.00  0.00    -0.004 A 
ATOM     18  C   UNL d   1      51.382  33.790  53.446  0.00  0.00    -0.000 A 
BRANCH  16  19
ATOM     19  C   UNL d   1      49.717  34.594  52.268  0.00  0.00     0.019 C 
ATOM     20  C   UNL d   1      48.973  34.873  52.067  0.00  0.00     0.004 C 
ATOM     21  C   UNL d   1      49.790  34.237  51.525  0.00  0.00     0.004 C 
ATOM     22  C   UNL d   1      49.656  34.946  53.011  0.00  0.00     0.004 C 
ENDBRANCH  16  19
ENDBRANCH  12  13
ENDBRANCH   1  12
TORSDOF 3
ENDMDL
MODEL 2
REMARK VINA RESULT:      -9.8      1.802      4.671
REMARK  3 active torsions:
REMARK  status: ('A' for Active; 'I' for Inactive)
REMARK    1  A    between atoms: C_6  and  C_1 
REMARK    2  A    between atoms: C_12  and  C_6 
REMARK    3  A    between atoms: C_9  and  C_10 
ROOT
ATOM      1  C   UNL d   1      52.837  32.696  53.033  0.00  0.00     0.139 A 
ATOM      2  C   UNL d   1      52.576  33.964  53.342  0.00  0.00     0.064 A 
ATOM      3  C   UNL d   1      52.415  33.367  52.798  0.00  0.00     0.220 A 
ATOM      4  C   UNL d   1      53.093  33.668  53.912  0.00  0.00     0.106 A 
ATOM      5  O   UNL d   1      53.255  32.881  53.719  0.00  0.00    -0.304 OA
ATOM      6  C   UNL d   1      53.343  34.151  54.521  0.00  0.00     0.067 A 
ATOM      7  C   UNL d   1      52.312  34.743  53.387  0.00  0.00     0.009 A 
ATOM      8  O   UNL d   1      51.924  33.419  52.136  0.00  0.00    -0.284 OA
ATOM      9  C   UNL d   1      53.080  34.931  54.567  0.00  0.00     0.198 A 
ATOM     10  C   UNL d   1      52.567  35.223  54.002  0.00  0.00     0.042 A 
ATOM     11  O   UNL d   1      53.335  35.414  55.183  0.00  0.00    -0.286 OA
ENDROOT
BRANCH   1  12
ATOM     12  C   UNL d   1      52.841  31.965  52.650  0.00  0.00     0.028 C 
BRANCH  12  13
ATOM     13  C   UNL d   1      52.960  31.266  53.077  0.00  0.00     0.002 A 
ATOM     14  C   UNL d   1      52.311  30.802  53.273  0.00  0.00    -0.000 A 
ATOM     15  C   UNL d   1      52.413  30.107  53.695  0.00  0.00    -0.004 A 
ATOM     16  C   UNL d   1      53.178  29.871  53.927  0.00  0.00    -0.023 A 
ATOM     17  C   UNL d   1      53.830  30.341  53.728  0.00  0.00    -0.004 A 
ATOM     18  C   UNL d   1      53.712  31.041  53.301  0.00  0.00    -0.000 A 
BRANCH  16  19
ATOM     19  C   UNL d   1      53.285  29.167  54.356  0.00  0.00     0.019 C 
ATOM     20  C   UNL d   1      53.390  28.471  54.776  0.00  0.00     0.004 C 
ATOM     21  C   UNL d   1      53.251  29.595  55.063  0.00  0.00     0.004 C 
ATOM     22  C   UNL d   1      53.317  28.751  53.645  0.00  0.00     0.004 C 
ENDBRANCH  16  19
ENDBRANCH  12  13
ENDBRANCH   1  12
TORSDOF 3
ENDMDL
MODEL 3
REMARK VINA RESULT:      -9.5      1.250      2.295
REMARK  3 active torsions:
REMARK  status: ('A' for Active; 'I' for Inactive)
REMARK    1  A    between atoms: C_6  and  C_1 
REMARK    2  A    between atoms: C_12  and  C_6 
REMARK    3  A    between atoms: C_9  and  C_10 
ROOT
ATOM      1  C   UNL d   1      52.801  33.005  53.280  0.00  0.00     0.139 A 
ATOM      2  C   UNL d   1      53.754  32.789  54.183  0.00  0.00     0.064 A 
ATOM      3  C   UNL d   1      53.240  32.416  53.660  0.00  0.00     0.220 A 
ATOM      4  C   UNL d   1      53.638  33.604  54.132  0.00  0.00     0.106 A 
ATOM      5  O   UNL d   1      53.046  33.737  53.570  0.00  0.00    -0.304 OA
ATOM      6  C   UNL d   1      54.083  34.107  54.597  0.00  0.00     0.067 A 
ATOM      7  C   UNL d   1      54.316  32.484  54.703  0.00  0.00     0.009 A 
ATOM      8  O   UNL d   1      53.168  31.605  53.530  0.00  0.00    -0.284 OA
ATOM      9  C   UNL d   1      54.644  33.802  55.117  0.00  0.00     0.198 A 
ATOM     10  C   UNL d   1      54.759  32.995  55.168  0.00  0.00     0.042 A 
ATOM     11  O   UNL d   1      55.090  34.313  55.585  0.00  0.00    -0.286 OA
ENDROOT
BRANCH   1  12
ATOM     12  C   UNL d   1      52.218  32.886  52.708  0.00  0.00     0.028 C 
BRANCH  12  13
ATOM     13  C   UNL d   1      51.543  33.365  52.689  0.00  0.00     0.002 A 
ATOM     14  C   UNL d   1      51.509  33.987  52.154  0.00  0.00    -0.000 A 
ATOM     15  C   UNL d   1      50.847  34.469  52.123  0.00  0.00    -0.004 A 
ATOM     16  C   UNL d   1      50.206  34.326  52.637  0.00  0.00    -0.023 A 
ATOM     17  C   UNL d   1      50.243  33.698  53.175  0.00  0.00    -0.004 A 
ATOM     18  C   UNL d   1      50.918  33.219  53.195  0.00  0.00    -0.000 A 
BRANCH  16  19
ATOM     19  C   UNL d   1      49.533  34.814  52.608  0.00  0.00     0.019 C 
ATOM     20  C   UNL d   1      48.869  35.293  52.577  0.00  0.00     0.004 C 
ATOM     21  C   UNL d   1      49.698  35.083  53.373  0.00  0.00     0.004 C 
ATOM     22  C   UNL d   1      49.378  34.537  51.847  0.00  0.00     0.004 C 
ENDBRANCH  16  19
ENDBRANCH  12  13
ENDBRANCH   1  12
TORSDOF 3
ENDMDL
MODEL 4
REMARK VINA RESULT:      -9.4      1.950      2.712
REMARK  3 active torsions:
REMARK  status: ('A' for Active; 'I' for Inactive)
REMARK    1  A    between atoms: C_6  and  C_1 
REMARK    2  A    between atoms: C_12  and  C_6 
REMARK    3  A    between atoms: C_9  and  C_10 
ROOT
ATOM      1  C   UNL d   1      53.443  31.295  53.197  0.00  0.00     0.139 A 
ATOM      2  C   UNL d   1      53.076  30.036  53.421  0.00  0.00     0.064 A 
ATOM      3  C   UNL d   1      53.078  30.636  52.858  0.00  0.00     0.220 A 
ATOM      4  C   UNL d   1      53.437  30.318  54.108  0.00  0.00     0.106 A 
ATOM      5  O   UNL d   1      53.664  31.100  53.967  0.00  0.00    -0.304 OA
ATOM      6  C   UNL d   1      53.508  29.829  54.758  0.00  0.00     0.067 A 
ATOM      7  C   UNL d   1      52.789  29.264  53.393  0.00  0.00     0.009 A 
ATOM      8  O   UNL d   1      52.774  30.596  52.092  0.00  0.00    -0.284 OA
ATOM      9  C   UNL d   1      53.221  29.057  54.730  0.00  0.00     0.198 A 
ATOM     10  C   UNL d   1      52.863  28.778  54.050  0.00  0.00     0.042 A 
ATOM     11  O   UNL d   1      53.295  28.568  55.388  0.00  0.00    -0.286 OA
ENDROOT
BRANCH   1  12
ATOM     12  C   UNL d   1      53.566  32.025  52.832  0.00  0.00     0.028 C 
BRANCH  12  13
ATOM     13  C   UNL d   1      53.435  32.731  53.245  0.00  0.00     0.002 A 
ATOM     14  C   UNL d   1      54.070  33.108  53.603  0.00  0.00    -0.000 A 
ATOM     15  C   UNL d   1      53.956  33.807  54.015  0.00  0.00    -0.004 A 
ATOM     16  C   UNL d   1      53.191  34.135  54.071  0.00  0.00    -0.023 A 
ATOM     17  C   UNL d   1      52.553  33.752  53.709  0.00  0.00    -0.004 A 
ATOM     18  C   UNL d   1      52.683  33.046  53.296  0.00  0.00    -0.000 A 
BRANCH  16  19
ATOM     19  C   UNL d   1      53.072  34.845  54.489  0.00  0.00     0.019 C 
ATOM     20  C   UNL d   1      52.955  35.542  54.903  0.00  0.00     0.004 C 
ATOM     21  C   UNL d   1      52.771  35.195  53.802  0.00  0.00     0.004 C 
ATOM     22  C   UNL d   1      53.373  34.484  55.166  0.00  0.00     0.004 C 
ENDBRANCH  16  19
ENDBRANCH  12  13
ENDBRANCH   1  12
TORSDOF 3
ENDMDL
MODEL 5
REMARK VINA RESULT:      -8.8      2.500      5.220
REMARK  3 active torsions:
REMARK  status: ('A' for Active; 'I' for Inactive)
REMARK    1  A    between atoms: C_6  and  C_1 
REMARK    2  A    between atoms: C_12  and  C_6 
REMARK    3  A    between atoms: C_9  and  C_10 
ROOT
ATOM      1  C   UNL d   1      49.655  34.555  52.250  0.00  0.00     0.139 A 
ATOM      2  C   UNL d   1      48.537  35.267  52.125  0.00  0.00     0.064 A 
ATOM      3  C   UNL d   1      49.052  34.764  51.725  0.00  0.00     0.220 A 
ATOM      4  C   UNL d   1      48.817  35.372  52.894  0.00  0.00     0.106 A 
ATOM      5  O   UNL d   1      49.511  34.930  52.971  0.00  0.00    -0.304 OA
ATOM      6  C   UNL d   1      48.405  35.851  53.413  0.00  0.00     0.067 A 
ATOM      7  C   UNL d   1      47.846  35.643  51.882  0.00  0.00     0.009 A 
ATOM      8  O   UNL d   1      48.986  34.508  50.943  0.00  0.00    -0.284 OA
ATOM      9  C   UNL d   1      47.714  36.227  53.169  0.00  0.00     0.198 A 
ATOM     10  C   UNL d   1      47.437  36.122  52.408  0.00  0.00     0.042 A 
ATOM     11  O   UNL d   1      47.302  36.709  53.696  0.00  0.00    -0.286 OA
ENDROOT
BRANCH   1  12
ATOM     12  C   UNL d   1      50.293  34.059  52.087  0.00  0.00     0.028 C 
BRANCH  12  13
ATOM     13  C   UNL d   1      50.962  34.055  52.576  0.00  0.00     0.002 A 
ATOM     14  C   UNL d   1      51.591  34.551  52.397  0.00  0.00    -0.000 A 
ATOM     15  C   UNL d   1      52.259  34.558  52.873  0.00  0.00    -0.004 A 
ATOM     16  C   UNL d   1      52.298  34.060  53.540  0.00  0.00    -0.023 A 
ATOM     17  C   UNL d   1      51.661  33.562  53.718  0.00  0.00    -0.004 A 
ATOM     18  C   UNL d   1      50.993  33.565  53.229  0.00  0.00    -0.000 A 
BRANCH  16  19
ATOM     19  C   UNL d   1      52.974  34.065  54.025  0.00  0.00     0.019 C 
ATOM     20  C   UNL d   1      53.641  34.067  54.501  0.00  0.00     0.004 C 
ATOM     21  C   UNL d   1      52.867  34.874  54.161  0.00  0.00     0.004 C 
ATOM     22  C   UNL d   1      53.070  33.259  53.881  0.00  0.00     0.004 C 
ENDBRANCH  16  19
ENDBRANCH  12  13
ENDBRANCH   1  12
TORSDOF 3
ENDMDL
