MODEL 1
REMARK VINA RESULT:      91.4      0.000      0.000
REMARK  5 active torsions:
REMARK  status: ('A' for Active; 'I' for Inactive)
REMARK    1  A    between atoms: C_2  and  S_1 
REMARK    2  A    between atoms: N_4  and  S_1 
REMARK    3  A    between atoms: C_10  and  C_9 
REMARK       I    between atoms: N_15  and  C_10 
REMARK    4  A    between atoms: C_24  and  N_15 
REMARK    5  A    between atoms: C_16  and  C_24 
ROOT
ATOM      1  N   UNL d   1     -56.139-100.370 -44.159  0.00  0.00    -0.229 N 
ATOM      2  C   UNL d   1     -55.603-101.583 -43.639  0.00  0.00     0.076 A 
ATOM      3  C   UNL d   1     -56.043-100.910 -43.538  0.00  0.00     0.096 A 
ATOM      4  C   UNL d   1     -55.785-100.522 -44.877  0.00  0.00     0.092 A 
ATOM      5  C   UNL d   1     -55.235-101.740 -44.389  0.00  0.00     0.008 A 
ATOM      6  C   UNL d   1     -55.338-101.194 -44.999  0.00  0.00     0.020 A 
ENDROOT
BRANCH   1   7
ATOM      7  S   UNL d   1     -56.593 -99.682 -44.042  0.00  0.00     0.273 S 
ATOM      8  O   UNL d   1     -57.042 -99.000 -43.928  0.00  0.00    -0.200 OA
ATOM      9  O   UNL d   1     -56.859 -99.974 -43.315  0.00  0.00    -0.200 OA
BRANCH   7  10
ATOM     10  C   UNL d   1     -56.330 -99.384 -44.770  0.00  0.00     0.125 A 
ATOM     11  C   UNL d   1     -56.847 -99.294 -45.401  0.00  0.00     0.142 A 
ATOM     12  C   UNL d   1     -56.576 -98.996 -46.124  0.00  0.00     0.131 A 
ATOM     13  N   UNL d   1     -57.654 -99.455 -45.466  0.00  0.00    -0.101 NA
ATOM     14  N   UNL d   1     -57.221 -98.972 -46.639  0.00  0.00    -0.102 NA
ATOM     15  C   UNL d   1     -55.797 -98.789 -46.216  0.00  0.00     0.023 A 
ATOM     16  O   UNL d   1     -57.879 -99.253 -46.237  0.00  0.00    -0.106 OA
ATOM     17  C   UNL d   1     -55.266 -98.874 -45.591  0.00  0.00     0.002 A 
ATOM     18  C   UNL d   1     -55.536 -99.174 -44.864  0.00  0.00     0.015 A 
ENDBRANCH   7  10
ENDBRANCH   1   7
BRANCH   2  19
ATOM     19  C   UNL d   1     -55.501-102.126 -43.032  0.00  0.00     0.281 C 
ATOM     20  N   UNL d   1     -54.861-102.070 -42.518  0.00  0.00    -0.204 NA
ATOM     21  O   UNL d   1     -56.056-102.736 -42.945  0.00  0.00    -0.265 OA
BRANCH  20  22
ATOM     22  C   UNL d   1     -54.767-102.638 -41.895  0.00  0.00     0.127 C 
BRANCH  22  23
ATOM     23  C   UNL d   1     -54.825-102.386 -41.088  0.00  0.00     0.119 A 
ATOM     24  O   UNL d   1     -54.941-102.880 -40.438  0.00  0.00    -0.304 OA
ATOM     25  C   UNL d   1     -54.963-102.408 -39.759  0.00  0.00     0.123 A 
ATOM     26  C   UNL d   1     -54.860-101.625 -39.993  0.00  0.00     0.029 A 
ATOM     27  C   UNL d   1     -54.774-101.614 -40.818  0.00  0.00     0.028 A 
ENDBRANCH  22  23
ENDBRANCH  20  22
ENDBRANCH   2  19
TORSDOF 5
ENDMDL
