MODEL 1
REMARK VINA RESULT:      51.0      0.000      0.000
REMARK  3 active torsions:
REMARK  status: ('A' for Active; 'I' for Inactive)
REMARK    1  A    between atoms: C_4  and  C_1 
REMARK    2  A    between atoms: C_9  and  N_2 
REMARK    3  A    between atoms: C_8  and  C_13 
ROOT
ATOM      1  N   UNL d   1      13.497  14.023  -4.160  0.00  0.00    -0.273 N 
ATOM      2  C   UNL d   1      13.694  13.122  -3.177  0.00  0.00     0.056 A 
ATOM      3  C   UNL d   1      13.205  13.286  -4.419  0.00  0.00     0.265 A 
ATOM      4  C   UNL d   1      13.796  13.918  -3.401  0.00  0.00     0.086 A 
ATOM      5  C   UNL d   1      13.326  12.736  -3.816  0.00  0.00     0.066 A 
ATOM      6  O   UNL d   1      12.854  13.143  -5.157  0.00  0.00    -0.267 OA
ENDROOT
BRANCH   1   7
ATOM      7  C   UNL d   1      13.472  14.696  -4.610  0.00  0.00     0.067 A 
ATOM      8  C   UNL d   1      14.123  15.190  -4.642  0.00  0.00     0.021 A 
ATOM      9  C   UNL d   1      14.112  15.885  -5.100  0.00  0.00     0.073 A 
ATOM     10  C   UNL d   1      13.421  16.078  -5.533  0.00  0.00     0.004 A 
ATOM     11  C   UNL d   1      12.769  15.583  -5.500  0.00  0.00     0.001 A 
ATOM     12  C   UNL d   1      12.792  14.890  -5.039  0.00  0.00     0.018 A 
BRANCH   9  13
ATOM     13  C   UNL d   1      14.766  16.365  -5.121  0.00  0.00     0.419 C 
ATOM     14  F   UNL d   1      15.442  16.859  -5.137  0.00  0.00    -0.166 F 
ATOM     15  F   UNL d   1      14.616  16.546  -5.907  0.00  0.00    -0.166 F 
ATOM     16  F   UNL d   1      14.930  16.192  -4.328  0.00  0.00    -0.166 F 
ENDBRANCH   9  13
ENDBRANCH   1   7
BRANCH   2  17
ATOM     17  C   UNL d   1      13.932  12.828  -2.451  0.00  0.00     0.142 A 
ATOM     18  N   UNL d   1      13.512  12.436  -1.898  0.00  0.00    -0.227 NA
ATOM     19  C   UNL d   1      14.011  12.259  -1.258  0.00  0.00     0.099 A 
ATOM     20  C   UNL d   1      13.872  11.870  -0.552  0.00  0.00     0.021 A 
ATOM     21  C   UNL d   1      14.752  12.556  -1.436  0.00  0.00     0.076 A 
ATOM     22  C   UNL d   1      14.503  11.780  -0.014  0.00  0.00     0.002 A 
ATOM     23  C   UNL d   1      15.244  12.078  -0.193  0.00  0.00     0.002 A 
ATOM     24  C   UNL d   1      15.376  12.473  -0.914  0.00  0.00     0.019 A 
ATOM     25  N   UNL d   1      14.701  12.913  -2.184  0.00  0.00    -0.338 N 
ATOM     26  H   UNL d   1      15.325  13.293  -2.597  0.00  0.00     0.167 HD
ENDBRANCH   2  17
TORSDOF 3
ENDMDL
MODEL 2
REMARK VINA RESULT:      51.2      2.215      4.792
REMARK  3 active torsions:
REMARK  status: ('A' for Active; 'I' for Inactive)
REMARK    1  A    between atoms: C_4  and  C_1 
REMARK    2  A    between atoms: C_9  and  N_2 
REMARK    3  A    between atoms: C_8  and  C_13 
ROOT
ATOM      1  N   UNL d   1      13.512  12.918  -3.054  0.00  0.00    -0.273 N 
ATOM      2  C   UNL d   1      13.525  13.792  -4.079  0.00  0.00     0.056 A 
ATOM      3  C   UNL d   1      13.157  12.551  -3.713  0.00  0.00     0.265 A 
ATOM      4  C   UNL d   1      13.736  13.676  -3.281  0.00  0.00     0.086 A 
ATOM      5  C   UNL d   1      13.166  13.088  -4.340  0.00  0.00     0.066 A 
ATOM      6  O   UNL d   1      12.851  11.781  -3.726  0.00  0.00    -0.267 OA
ENDROOT
BRANCH   1   7
ATOM      7  C   UNL d   1      13.601  12.553  -2.335  0.00  0.00     0.067 A 
ATOM      8  C   UNL d   1      14.323  12.580  -1.950  0.00  0.00     0.021 A 
ATOM      9  C   UNL d   1      14.428  12.211  -1.212  0.00  0.00     0.073 A 
ATOM     10  C   UNL d   1      13.783  11.807  -0.861  0.00  0.00     0.004 A 
ATOM     11  C   UNL d   1      13.062  11.780  -1.247  0.00  0.00     0.001 A 
ATOM     12  C   UNL d   1      12.967  12.153  -1.985  0.00  0.00     0.018 A 
BRANCH   9  13
ATOM     13  C   UNL d   1      15.150  12.246  -0.843  0.00  0.00     0.419 C 
ATOM     14  F   UNL d   1      15.898  12.280  -0.468  0.00  0.00    -0.166 F 
ATOM     15  F   UNL d   1      14.807  12.605  -0.190  0.00  0.00    -0.166 F 
ATOM     16  F   UNL d   1      15.512  11.884  -1.494  0.00  0.00    -0.166 F 
ENDBRANCH   9  13
ENDBRANCH   1   7
BRANCH   2  17
ATOM     17  C   UNL d   1      13.669  14.491  -4.481  0.00  0.00     0.142 A 
ATOM     18  N   UNL d   1      13.460  14.705  -5.220  0.00  0.00    -0.227 NA
ATOM     19  C   UNL d   1      13.741  15.474  -5.366  0.00  0.00     0.099 A 
ATOM     20  C   UNL d   1      13.684  15.957  -6.023  0.00  0.00     0.021 A 
ATOM     21  C   UNL d   1      14.130  15.723  -4.691  0.00  0.00     0.076 A 
ATOM     22  C   UNL d   1      14.032  16.714  -5.993  0.00  0.00     0.002 A 
ATOM     23  C   UNL d   1      14.421  16.963  -5.318  0.00  0.00     0.002 A 
ATOM     24  C   UNL d   1      14.474  16.464  -4.653  0.00  0.00     0.019 A 
ATOM     25  N   UNL d   1      14.084  15.106  -4.137  0.00  0.00    -0.338 N 
ATOM     26  H   UNL d   1      14.405  15.110  -3.362  0.00  0.00     0.167 HD
ENDBRANCH   2  17
TORSDOF 3
ENDMDL
MODEL 3
REMARK VINA RESULT:      52.5      2.740      3.755
REMARK  3 active torsions:
REMARK  status: ('A' for Active; 'I' for Inactive)
REMARK    1  A    between atoms: C_4  and  C_1 
REMARK    2  A    between atoms: C_9  and  N_2 
REMARK    3  A    between atoms: C_8  and  C_13 
ROOT
ATOM      1  N   UNL d   1      14.180  13.144  -2.271  0.00  0.00    -0.273 N 
ATOM      2  C   UNL d   1      14.761  14.083  -1.499  0.00  0.00     0.056 A 
ATOM      3  C   UNL d   1      14.594  12.758  -1.659  0.00  0.00     0.265 A 
ATOM      4  C   UNL d   1      14.284  13.953  -2.169  0.00  0.00     0.086 A 
ATOM      5  C   UNL d   1      14.949  13.334  -1.187  0.00  0.00     0.066 A 
ATOM      6  O   UNL d   1      14.635  11.936  -1.552  0.00  0.00    -0.267 OA
ENDROOT
BRANCH   1   7
ATOM      7  C   UNL d   1      13.761  12.751  -2.843  0.00  0.00     0.067 A 
ATOM      8  C   UNL d   1      13.895  12.917  -3.633  0.00  0.00     0.021 A 
ATOM      9  C   UNL d   1      13.473  12.522  -4.232  0.00  0.00     0.073 A 
ATOM     10  C   UNL d   1      12.903  11.946  -4.017  0.00  0.00     0.004 A 
ATOM     11  C   UNL d   1      12.770  11.780  -3.227  0.00  0.00     0.001 A 
ATOM     12  C   UNL d   1      13.197  12.182  -2.636  0.00  0.00     0.018 A 
BRANCH   9  13
ATOM     13  C   UNL d   1      13.618  12.698  -5.011  0.00  0.00     0.419 C 
ATOM     14  F   UNL d   1      13.769  12.872  -5.816  0.00  0.00    -0.166 F 
ATOM     15  F   UNL d   1      13.396  13.477  -4.883  0.00  0.00    -0.166 F 
ATOM     16  F   UNL d   1      13.844  11.914  -5.155  0.00  0.00    -0.166 F 
ENDBRANCH   9  13
ENDBRANCH   1   7
BRANCH   2  17
ATOM     17  C   UNL d   1      14.974  14.830  -1.240  0.00  0.00     0.142 A 
ATOM     18  N   UNL d   1      15.323  15.052  -0.558  0.00  0.00    -0.227 NA
ATOM     19  C   UNL d   1      15.421  15.877  -0.564  0.00  0.00     0.099 A 
ATOM     20  C   UNL d   1      15.742  16.390  -0.014  0.00  0.00     0.021 A 
ATOM     21  C   UNL d   1      15.121  16.154  -1.273  0.00  0.00     0.076 A 
ATOM     22  C   UNL d   1      15.759  17.205  -0.189  0.00  0.00     0.002 A 
ATOM     23  C   UNL d   1      15.459  17.481  -0.898  0.00  0.00     0.002 A 
ATOM     24  C   UNL d   1      15.133  16.951  -1.453  0.00  0.00     0.019 A 
ATOM     25  N   UNL d   1      14.841  15.496  -1.696  0.00  0.00    -0.338 N 
ATOM     26  H   UNL d   1      14.485  15.509  -2.455  0.00  0.00     0.167 HD
ENDBRANCH   2  17
TORSDOF 3
ENDMDL
