MODEL 1
REMARK VINA RESULT:       4.7      0.000      0.000
REMARK  4 active torsions:
REMARK  status: ('A' for Active; 'I' for Inactive)
REMARK    1  A    between atoms: C_13  and  N_5 
REMARK    2  A    between atoms: C_14  and  C_6 
REMARK    3  A    between atoms: C_21  and  C_13 
REMARK    4  A    between atoms: O_25  and  C_20 
ROOT
ATOM      1  C   UNL d   1     -41.466-122.577 -52.350  0.00  0.00     0.080 A 
ATOM      2  C   UNL d   1     -41.317-122.159 -53.054  0.00  0.00     0.267 A 
ATOM      3  C   UNL d   1     -41.566-123.396 -52.364  0.00  0.00     0.108 A 
ATOM      4  C   UNL d   1     -41.662-122.570 -50.929  0.00  0.00     0.111 A 
ATOM      5  N   UNL d   1     -41.271-122.584 -53.766  0.00  0.00    -0.273 N 
ATOM      6  C   UNL d   1     -41.513-122.161 -51.639  0.00  0.00     0.020 A 
ATOM      7  C   UNL d   1     -41.762-123.398 -50.948  0.00  0.00     0.213 A 
ATOM      8  C   UNL d   1     -41.518-123.809 -53.074  0.00  0.00     0.043 A 
ATOM      9  O   UNL d   1     -41.713-123.803 -51.662  0.00  0.00    -0.287 OA
ATOM     10  C   UNL d   1     -41.371-123.403 -53.775  0.00  0.00     0.069 A 
ATOM     11  C   UNL d   1     -41.711-122.166 -50.215  0.00  0.00     0.105 C 
ATOM     12  N   UNL d   1     -41.757-121.745 -49.504  0.00  0.00    -0.191 NA
ATOM     13  O   UNL d   1     -41.217-121.340 -53.044  0.00  0.00    -0.267 OA
ATOM     14  N   UNL d   1     -41.909-123.808 -50.247  0.00  0.00    -0.120 N 
ATOM     15  C   UNL d   1     -41.323-123.816 -54.495  0.00  0.00     0.019 C 
ENDROOT
BRANCH   6  16
ATOM     16  C   UNL d   1     -41.414-121.341 -51.621  0.00  0.00     0.001 A 
ATOM     17  C   UNL d   1     -41.223-120.931 -52.307  0.00  0.00     0.002 A 
ATOM     18  C   UNL d   1     -41.125-120.112 -52.285  0.00  0.00     0.024 A 
ATOM     19  C   UNL d   1     -41.220-119.708 -51.574  0.00  0.00     0.094 A 
ATOM     20  C   UNL d   1     -41.414-120.122 -50.876  0.00  0.00     0.024 A 
ATOM     21  C   UNL d   1     -41.510-120.941 -50.910  0.00  0.00     0.002 A 
BRANCH  19  22
ATOM     22  O   UNL d   1     -41.123-118.889 -51.548  0.00  0.00    -0.328 OA
ATOM     23  C   UNL d   1     -41.127-118.451 -52.246  0.00  0.00     0.181 C 
ENDBRANCH  19  22
ENDBRANCH   6  16
BRANCH   5  24
ATOM     24  C   UNL d   1     -41.123-122.174 -54.475  0.00  0.00     0.083 C 
BRANCH  24  25
ATOM     25  C   UNL d   1     -41.736-122.014 -55.011  0.00  0.00     0.021 A 
ATOM     26  C   UNL d   1     -41.570-121.756 -55.775  0.00  0.00     0.022 A 
ATOM     27  C   UNL d   1     -42.187-121.601 -56.298  0.00  0.00     0.099 A 
ATOM     28  N   UNL d   1     -42.967-121.702 -56.061  0.00  0.00    -0.242 NA
ATOM     29  C   UNL d   1     -43.134-121.963 -55.292  0.00  0.00     0.099 A 
ATOM     30  C   UNL d   1     -42.518-122.118 -54.770  0.00  0.00     0.022 A 
ENDBRANCH  24  25
ENDBRANCH   5  24
TORSDOF 4
ENDMDL
MODEL 2
REMARK VINA RESULT:       6.9      1.238      3.744
REMARK  4 active torsions:
REMARK  status: ('A' for Active; 'I' for Inactive)
REMARK    1  A    between atoms: C_13  and  N_5 
REMARK    2  A    between atoms: C_14  and  C_6 
REMARK    3  A    between atoms: C_21  and  C_13 
REMARK    4  A    between atoms: O_25  and  C_20 
ROOT
ATOM      1  C   UNL d   1     -41.466-122.590 -52.781  0.00  0.00     0.080 A 
ATOM      2  C   UNL d   1     -41.500-122.173 -52.060  0.00  0.00     0.267 A 
ATOM      3  C   UNL d   1     -41.327-123.403 -52.787  0.00  0.00     0.108 A 
ATOM      4  C   UNL d   1     -41.543-122.585 -54.212  0.00  0.00     0.111 A 
ATOM      5  N   UNL d   1     -41.390-122.595 -51.354  0.00  0.00    -0.273 N 
ATOM      6  C   UNL d   1     -41.575-122.177 -53.487  0.00  0.00     0.020 A 
ATOM      7  C   UNL d   1     -41.402-123.407 -54.214  0.00  0.00     0.213 A 
ATOM      8  C   UNL d   1     -41.219-123.812 -52.081  0.00  0.00     0.043 A 
ATOM      9  O   UNL d   1     -41.295-123.808 -53.504  0.00  0.00    -0.287 OA
ATOM     10  C   UNL d   1     -41.251-123.408 -51.364  0.00  0.00     0.069 A 
ATOM     11  C   UNL d   1     -41.650-122.184 -54.922  0.00  0.00     0.105 C 
ATOM     12  N   UNL d   1     -41.759-121.767 -55.629  0.00  0.00    -0.191 NA
ATOM     13  O   UNL d   1     -41.639-121.360 -52.050  0.00  0.00    -0.267 OA
ATOM     14  N   UNL d   1     -41.370-123.814 -54.931  0.00  0.00    -0.120 N 
ATOM     15  C   UNL d   1     -41.142-123.817 -50.649  0.00  0.00     0.019 C 
ENDROOT
BRANCH   6  16
ATOM     16  C   UNL d   1     -41.715-121.363 -53.485  0.00  0.00     0.001 A 
ATOM     17  C   UNL d   1     -41.123-120.841 -53.257  0.00  0.00     0.002 A 
ATOM     18  C   UNL d   1     -41.266-120.029 -53.256  0.00  0.00     0.024 A 
ATOM     19  C   UNL d   1     -42.004-119.744 -53.484  0.00  0.00     0.094 A 
ATOM     20  C   UNL d   1     -42.606-120.272 -53.716  0.00  0.00     0.024 A 
ATOM     21  C   UNL d   1     -42.452-121.082 -53.714  0.00  0.00     0.002 A 
BRANCH  19  22
ATOM     22  O   UNL d   1     -42.151-118.932 -53.485  0.00  0.00    -0.328 OA
ATOM     23  C   UNL d   1     -41.559-118.405 -53.711  0.00  0.00     0.181 C 
ENDBRANCH  19  22
ENDBRANCH   6  16
BRANCH   5  24
ATOM     24  C   UNL d   1     -41.422-122.187 -50.628  0.00  0.00     0.083 C 
BRANCH  24  25
ATOM     25  C   UNL d   1     -42.002-122.367 -50.064  0.00  0.00     0.021 A 
ATOM     26  C   UNL d   1     -42.783-122.132 -50.173  0.00  0.00     0.022 A 
ATOM     27  C   UNL d   1     -43.351-122.317 -49.605  0.00  0.00     0.099 A 
ATOM     28  N   UNL d   1     -43.141-122.735 -48.930  0.00  0.00    -0.242 NA
ATOM     29  C   UNL d   1     -42.354-122.971 -48.819  0.00  0.00     0.099 A 
ATOM     30  C   UNL d   1     -41.788-122.787 -49.386  0.00  0.00     0.022 A 
ENDBRANCH  24  25
ENDBRANCH   5  24
TORSDOF 4
ENDMDL
