MODEL 1
REMARK VINA RESULT:      -2.2      0.000      0.000
REMARK  3 active torsions:
REMARK  status: ('A' for Active; 'I' for Inactive)
REMARK    1  A    between atoms: C_8  and  N_1 
REMARK    2  A    between atoms: C_6  and  C_2 
REMARK    3  A    between atoms: C_14  and  C_8 
ROOT
ATOM      1  N   UNL d   1     -41.370-122.515 -51.899  0.00  0.00    -0.289 N 
ATOM      2  C   UNL d   1     -41.520-123.251 -51.544  0.00  0.00     0.154 A 
ATOM      3  N   UNL d   1     -41.590-123.811 -52.141  0.00  0.00    -0.226 NA
ATOM      4  C   UNL d   1     -41.348-122.626 -52.717  0.00  0.00     0.083 A 
ATOM      5  C   UNL d   1     -41.484-123.426 -52.869  0.00  0.00     0.099 A 
ATOM      6  C   UNL d   1     -41.222-122.105 -53.356  0.00  0.00     0.019 A 
ATOM      7  C   UNL d   1     -41.494-123.705 -53.650  0.00  0.00     0.021 A 
ATOM      8  C   UNL d   1     -41.233-122.386 -54.130  0.00  0.00     0.002 A 
ATOM      9  C   UNL d   1     -41.369-123.186 -54.277  0.00  0.00     0.002 A 
ENDROOT
BRANCH   2  10
ATOM     10  C   UNL d   1     -41.586-123.388 -50.734  0.00  0.00     0.064 A 
ATOM     11  S   UNL d   1     -41.129-123.573 -50.206  0.00  0.00    -0.083 SA
ATOM     12  C   UNL d   1     -41.376-123.651 -49.535  0.00  0.00     0.035 A 
ATOM     13  C   UNL d   1     -42.069-123.547 -49.384  0.00  0.00     0.008 A 
ATOM     14  C   UNL d   1     -42.526-123.362 -49.911  0.00  0.00     0.010 A 
ENDBRANCH   2  10
BRANCH   1  15
ATOM     15  C   UNL d   1     -41.285-121.893 -51.366  0.00  0.00     0.082 C 
BRANCH  15  16
ATOM     16  C   UNL d   1     -41.602-121.154 -51.546  0.00  0.00     0.018 C 
ATOM     17  C   UNL d   1     -41.123-120.485 -51.516  0.00  0.00     0.002 C 
ATOM     18  C   UNL d   1     -42.397-121.085 -51.755  0.00  0.00     0.002 C 
ENDBRANCH  15  16
ENDBRANCH   1  15
TORSDOF 3
ENDMDL
MODEL 2
REMARK VINA RESULT:      -1.4      1.756      4.222
REMARK  3 active torsions:
REMARK  status: ('A' for Active; 'I' for Inactive)
REMARK    1  A    between atoms: C_8  and  N_1 
REMARK    2  A    between atoms: C_6  and  C_2 
REMARK    3  A    between atoms: C_14  and  C_8 
ROOT
ATOM      1  N   UNL d   1     -42.360-123.385 -49.221  0.00  0.00    -0.289 N 
ATOM      2  C   UNL d   1     -41.622-123.125 -49.498  0.00  0.00     0.154 A 
ATOM      3  N   UNL d   1     -41.123-123.042 -48.850  0.00  0.00    -0.226 NA
ATOM      4  C   UNL d   1     -42.313-123.461 -48.400  0.00  0.00     0.083 A 
ATOM      5  C   UNL d   1     -41.550-123.250 -48.168  0.00  0.00     0.099 A 
ATOM      6  C   UNL d   1     -42.866-123.696 -47.821  0.00  0.00     0.019 A 
ATOM      7  C   UNL d   1     -41.337-123.272 -47.367  0.00  0.00     0.021 A 
ATOM      8  C   UNL d   1     -42.650-123.717 -47.026  0.00  0.00     0.002 A 
ATOM      9  C   UNL d   1     -41.886-123.505 -46.799  0.00  0.00     0.002 A 
ENDROOT
BRANCH   2  10
ATOM     10  C   UNL d   1     -41.429-122.978 -50.285  0.00  0.00     0.064 A 
ATOM     11  S   UNL d   1     -41.282-122.388 -50.676  0.00  0.00    -0.083 SA
ATOM     12  C   UNL d   1     -41.130-122.456 -51.376  0.00  0.00     0.035 A 
ATOM     13  C   UNL d   1     -41.123-123.101 -51.690  0.00  0.00     0.008 A 
ATOM     14  C   UNL d   1     -41.269-123.689 -51.300  0.00  0.00     0.010 A 
ENDBRANCH   2  10
BRANCH   1  15
ATOM     15  C   UNL d   1     -42.924-123.494 -49.812  0.00  0.00     0.082 C 
BRANCH  15  16
ATOM     16  C   UNL d   1     -43.701-123.253 -49.685  0.00  0.00     0.018 C 
ATOM     17  C   UNL d   1     -43.885-122.450 -49.677  0.00  0.00     0.002 C 
ATOM     18  C   UNL d   1     -44.295-123.814 -49.568  0.00  0.00     0.002 C 
ENDBRANCH  15  16
ENDBRANCH   1  15
TORSDOF 3
ENDMDL
MODEL 3
REMARK VINA RESULT:      -0.3      0.936      3.010
REMARK  3 active torsions:
REMARK  status: ('A' for Active; 'I' for Inactive)
REMARK    1  A    between atoms: C_8  and  N_1 
REMARK    2  A    between atoms: C_6  and  C_2 
REMARK    3  A    between atoms: C_14  and  C_8 
ROOT
ATOM      1  N   UNL d   1     -41.365-122.480 -51.588  0.00  0.00    -0.289 N 
ATOM      2  C   UNL d   1     -41.281-123.191 -52.009  0.00  0.00     0.154 A 
ATOM      3  N   UNL d   1     -41.217-123.803 -51.464  0.00  0.00    -0.226 NA
ATOM      4  C   UNL d   1     -41.351-122.657 -50.782  0.00  0.00     0.083 A 
ATOM      5  C   UNL d   1     -41.260-123.473 -50.703  0.00  0.00     0.099 A 
ATOM      6  C   UNL d   1     -41.409-122.184 -50.097  0.00  0.00     0.019 A 
ATOM      7  C   UNL d   1     -41.227-123.817 -49.948  0.00  0.00     0.021 A 
ATOM      8  C   UNL d   1     -41.376-122.529 -49.350  0.00  0.00     0.002 A 
ATOM      9  C   UNL d   1     -41.285-123.346 -49.275  0.00  0.00     0.002 A 
ENDROOT
BRANCH   2  10
ATOM     10  C   UNL d   1     -41.267-123.264 -52.830  0.00  0.00     0.064 A 
ATOM     11  S   UNL d   1     -41.325-123.813 -53.297  0.00  0.00    -0.083 SA
ATOM     12  C   UNL d   1     -41.287-123.681 -54.003  0.00  0.00     0.035 A 
ATOM     13  C   UNL d   1     -41.193-123.014 -54.249  0.00  0.00     0.008 A 
ATOM     14  C   UNL d   1     -41.135-122.467 -53.783  0.00  0.00     0.010 A 
ENDBRANCH   2  10
BRANCH   1  15
ATOM     15  C   UNL d   1     -41.436-121.811 -52.064  0.00  0.00     0.082 C 
BRANCH  15  16
ATOM     16  C   UNL d   1     -41.681-121.098 -51.733  0.00  0.00     0.018 C 
ATOM     17  C   UNL d   1     -42.483-120.958 -51.609  0.00  0.00     0.002 C 
ATOM     18  C   UNL d   1     -41.124-120.525 -51.527  0.00  0.00     0.002 C 
ENDBRANCH  15  16
ENDBRANCH   1  15
TORSDOF 3
ENDMDL
MODEL 4
REMARK VINA RESULT:       0.4      1.349      3.417
REMARK  3 active torsions:
REMARK  status: ('A' for Active; 'I' for Inactive)
REMARK    1  A    between atoms: C_8  and  N_1 
REMARK    2  A    between atoms: C_6  and  C_2 
REMARK    3  A    between atoms: C_14  and  C_8 
ROOT
ATOM      1  N   UNL d   1     -41.459-122.378 -52.309  0.00  0.00    -0.289 N 
ATOM      2  C   UNL d   1     -41.455-122.041 -53.068  0.00  0.00     0.154 A 
ATOM      3  N   UNL d   1     -41.353-121.229 -52.984  0.00  0.00    -0.226 NA
ATOM      4  C   UNL d   1     -41.360-121.770 -51.759  0.00  0.00     0.083 A 
ATOM      5  C   UNL d   1     -41.294-121.060 -52.173  0.00  0.00     0.099 A 
ATOM      6  C   UNL d   1     -41.319-121.763 -50.926  0.00  0.00     0.019 A 
ATOM      7  C   UNL d   1     -41.189-120.347 -51.763  0.00  0.00     0.021 A 
ATOM      8  C   UNL d   1     -41.215-121.052 -50.522  0.00  0.00     0.002 A 
ATOM      9  C   UNL d   1     -41.150-120.344 -50.941  0.00  0.00     0.002 A 
ENDROOT
BRANCH   2  10
ATOM     10  C   UNL d   1     -41.538-122.453 -53.777  0.00  0.00     0.064 A 
ATOM     11  S   UNL d   1     -41.128-122.914 -54.153  0.00  0.00    -0.083 SA
ATOM     12  C   UNL d   1     -41.375-123.181 -54.774  0.00  0.00     0.035 A 
ATOM     13  C   UNL d   1     -42.021-122.995 -55.023  0.00  0.00     0.008 A 
ATOM     14  C   UNL d   1     -42.430-122.534 -54.648  0.00  0.00     0.010 A 
ENDBRANCH   2  10
BRANCH   1  15
ATOM     15  C   UNL d   1     -41.557-123.196 -52.303  0.00  0.00     0.082 C 
BRANCH  15  16
ATOM     16  C   UNL d   1     -41.761-123.578 -51.603  0.00  0.00     0.018 C 
ATOM     17  C   UNL d   1     -41.171-123.817 -51.080  0.00  0.00     0.002 C 
ATOM     18  C   UNL d   1     -42.554-123.721 -51.425  0.00  0.00     0.002 C 
ENDBRANCH  15  16
ENDBRANCH   1  15
TORSDOF 3
ENDMDL
