MODEL 1
REMARK VINA RESULT:      -5.2      0.000      0.000
REMARK  6 active torsions:
REMARK  status: ('A' for Active; 'I' for Inactive)
REMARK    1  A    between atoms: C_4  and  N_1 
REMARK    2  A    between atoms: C_3  and  C_2 
REMARK    3  A    between atoms: S_6  and  C_11 
REMARK    4  A    between atoms: C_7  and  S_6 
REMARK    5  A    between atoms: C_8  and  C_10 
REMARK    6  A    between atoms: C_11  and  C_8 
ROOT
ATOM      1  C   UNL d   1     -41.543-121.990 -51.646  0.00  0.00     0.202 C 
ATOM      2  O   UNL d   1     -41.496-121.161 -51.697  0.00  0.00    -0.286 OA
ENDROOT
BRANCH   1   3
ATOM      3  C   UNL d   1     -41.675-122.349 -50.912  0.00  0.00     0.040 A 
ATOM      4  C   UNL d   1     -41.123-122.881 -50.606  0.00  0.00     0.005 A 
ATOM      5  C   UNL d   1     -41.275-123.225 -49.876  0.00  0.00     0.024 A 
ATOM      6  C   UNL d   1     -41.965-123.049 -49.447  0.00  0.00     0.127 A 
ATOM      7  C   UNL d   1     -42.509-122.518 -49.760  0.00  0.00     0.024 A 
ATOM      8  C   UNL d   1     -42.353-122.177 -50.490  0.00  0.00     0.005 A 
BRANCH   6   9
ATOM      9  N   UNL d   1     -42.123-123.402 -48.696  0.00  0.00    -0.114 N 
ATOM     10  O   UNL d   1     -41.490-123.571 -48.197  0.00  0.00    -0.532 OA
ATOM     11  O   UNL d   1     -42.917-123.569 -48.480  0.00  0.00    -0.532 OA
ENDBRANCH   6   9
ENDBRANCH   1   3
BRANCH   1  12
ATOM     12  C   UNL d   1     -41.460-122.449 -52.314  0.00  0.00     0.077 C 
BRANCH  12  13
ATOM     13  S   UNL d   1     -41.680-122.155 -53.062  0.00  0.00    -0.083 SA
BRANCH  13  14
ATOM     14  C   UNL d   1     -41.592-122.632 -53.757  0.00  0.00     0.035 A 
ATOM     15  C   UNL d   1     -41.900-122.356 -54.468  0.00  0.00     0.070 A 
ATOM     16  C   UNL d   1     -41.813-122.827 -55.154  0.00  0.00     0.007 A 
ATOM     17  C   UNL d   1     -41.420-123.562 -55.113  0.00  0.00     0.000 A 
ATOM     18  C   UNL d   1     -41.123-123.817 -54.396  0.00  0.00     0.001 A 
ATOM     19  C   UNL d   1     -41.208-123.352 -53.719  0.00  0.00     0.007 A 
BRANCH  15  20
ATOM     20  C   UNL d   1     -42.300-121.608 -54.514  0.00  0.00     0.211 C 
ATOM     21  O   UNL d   1     -43.093-121.552 -54.268  0.00  0.00    -0.644 OA
ATOM     22  O   UNL d   1     -41.912-120.936 -54.802  0.00  0.00    -0.644 OA
ENDBRANCH  15  20
ENDBRANCH  13  14
ENDBRANCH  12  13
ENDBRANCH   1  12
TORSDOF 6
ENDMDL
MODEL 2
REMARK VINA RESULT:      -3.2      1.847      4.676
REMARK  6 active torsions:
REMARK  status: ('A' for Active; 'I' for Inactive)
REMARK    1  A    between atoms: C_4  and  N_1 
REMARK    2  A    between atoms: C_3  and  C_2 
REMARK    3  A    between atoms: S_6  and  C_11 
REMARK    4  A    between atoms: C_7  and  S_6 
REMARK    5  A    between atoms: C_8  and  C_10 
REMARK    6  A    between atoms: C_11  and  C_8 
ROOT
ATOM      1  C   UNL d   1     -41.507-121.960 -51.921  0.00  0.00     0.202 C 
ATOM      2  O   UNL d   1     -41.420-121.177 -51.652  0.00  0.00    -0.286 OA
ENDROOT
BRANCH   1   3
ATOM      3  C   UNL d   1     -41.506-122.118 -52.733  0.00  0.00     0.040 A 
ATOM      4  C   UNL d   1     -41.130-122.794 -53.022  0.00  0.00     0.005 A 
ATOM      5  C   UNL d   1     -41.142-122.930 -53.832  0.00  0.00     0.024 A 
ATOM      6  C   UNL d   1     -41.519-122.407 -54.357  0.00  0.00     0.127 A 
ATOM      7  C   UNL d   1     -41.890-121.736 -54.058  0.00  0.00     0.024 A 
ATOM      8  C   UNL d   1     -41.876-121.604 -53.248  0.00  0.00     0.005 A 
BRANCH   6   9
ATOM      9  N   UNL d   1     -41.532-122.546 -55.190  0.00  0.00    -0.114 N 
ATOM     10  O   UNL d   1     -41.380-123.306 -55.467  0.00  0.00    -0.532 OA
ATOM     11  O   UNL d   1     -41.699-121.908 -55.709  0.00  0.00    -0.532 OA
ENDBRANCH   6   9
ENDBRANCH   1   3
BRANCH   1  12
ATOM     12  C   UNL d   1     -41.593-122.570 -51.388  0.00  0.00     0.077 C 
BRANCH  12  13
ATOM     13  S   UNL d   1     -42.111-122.498 -50.739  0.00  0.00    -0.083 SA
BRANCH  13  14
ATOM     14  C   UNL d   1     -41.982-122.945 -50.030  0.00  0.00     0.035 A 
ATOM     15  C   UNL d   1     -42.607-123.044 -49.505  0.00  0.00     0.070 A 
ATOM     16  C   UNL d   1     -42.479-123.485 -48.806  0.00  0.00     0.007 A 
ATOM     17  C   UNL d   1     -41.729-123.816 -48.648  0.00  0.00     0.000 A 
ATOM     18  C   UNL d   1     -41.123-123.705 -49.184  0.00  0.00     0.001 A 
ATOM     19  C   UNL d   1     -41.249-123.270 -49.875  0.00  0.00     0.007 A 
BRANCH  15  20
ATOM     20  C   UNL d   1     -43.371-122.708 -49.661  0.00  0.00     0.211 C 
ATOM     21  O   UNL d   1     -43.949-123.168 -50.047  0.00  0.00    -0.644 OA
ATOM     22  O   UNL d   1     -43.550-121.933 -49.435  0.00  0.00    -0.644 OA
ENDBRANCH  15  20
ENDBRANCH  13  14
ENDBRANCH  12  13
ENDBRANCH   1  12
TORSDOF 6
ENDMDL
