MODEL 1
REMARK VINA RESULT:      -3.1      0.000      0.000
REMARK  4 active torsions:
REMARK  status: ('A' for Active; 'I' for Inactive)
REMARK    1  A    between atoms: C_8  and  C_1 
REMARK    2  A    between atoms: N_7  and  C_8 
REMARK    3  A    between atoms: C_18  and  N_9 
REMARK    4  A    between atoms: C_21  and  C_18 
ROOT
ATOM      1  C   UNL d   1      58.983  -0.040  29.706  0.00  0.00     0.059 A 
ATOM      2  C   UNL d   1      60.052  -0.802  29.155  0.00  0.00     0.121 A 
ATOM      3  C   UNL d   1      59.757  -0.076  29.439  0.00  0.00     0.214 A 
ATOM      4  C   UNL d   1      59.569  -1.471  29.143  0.00  0.00     0.032 A 
ATOM      5  C   UNL d   1      58.794  -1.429  29.411  0.00  0.00     0.059 A 
ATOM      6  C   UNL d   1      58.498  -0.712  29.694  0.00  0.00     0.016 A 
ATOM      7  N   UNL d   1      60.832  -0.843  28.886  0.00  0.00    -0.241 NA
ATOM      8 CL   UNL d   1      58.313  -2.094  29.400  0.00  0.00    -0.082 Cl
ATOM      9  O   UNL d   1      60.236   0.586  29.451  0.00  0.00    -0.285 OA
ATOM     10  C   UNL d   1      59.877  -2.187  28.857  0.00  0.00     0.004 A 
ATOM     11  C   UNL d   1      61.130  -1.561  28.602  0.00  0.00     0.099 A 
ATOM     12  C   UNL d   1      60.642  -2.236  28.591  0.00  0.00     0.021 A 
ENDROOT
BRANCH   1  13
ATOM     13  C   UNL d   1      58.678   0.679  29.992  0.00  0.00     0.084 C 
BRANCH  13  14
ATOM     14  N   UNL d   1      58.215   0.679  30.680  0.00  0.00    -0.300 N 
ATOM     15  C   UNL d   1      57.387   0.677  30.620  0.00  0.00     0.100 A 
ATOM     16  C   UNL d   1      56.929   0.677  31.301  0.00  0.00     0.100 A 
ATOM     17  N   UNL d   1      57.288   0.679  32.044  0.00  0.00    -0.297 N 
ATOM     18  C   UNL d   1      58.116   0.682  32.104  0.00  0.00     0.100 A 
ATOM     19  C   UNL d   1      58.572   0.682  31.426  0.00  0.00     0.100 A 
BRANCH  17  20
ATOM     20  C   UNL d   1      56.830   0.679  32.724  0.00  0.00     0.126 C 
BRANCH  20  21
ATOM     21  C   UNL d   1      56.527  -0.024  33.023  0.00  0.00     0.253 C 
ATOM     22  O   UNL d   1      55.954  -0.006  33.627  0.00  0.00    -0.281 OA
ENDBRANCH  20  21
ENDBRANCH  17  20
ENDBRANCH  13  14
ENDBRANCH   1  13
TORSDOF 4
ENDMDL
MODEL 2
REMARK VINA RESULT:      -2.9      8.894      9.689
REMARK  4 active torsions:
REMARK  status: ('A' for Active; 'I' for Inactive)
REMARK    1  A    between atoms: C_8  and  C_1 
REMARK    2  A    between atoms: N_7  and  C_8 
REMARK    3  A    between atoms: C_18  and  N_9 
REMARK    4  A    between atoms: C_21  and  C_18 
ROOT
ATOM      1  C   UNL d   1      59.238  -9.813  33.676  0.00  0.00     0.059 A 
ATOM      2  C   UNL d   1      58.552  -9.815  32.428  0.00  0.00     0.121 A 
ATOM      3  C   UNL d   1      58.530  -9.814  33.261  0.00  0.00     0.214 A 
ATOM      4  C   UNL d   1      59.275  -9.816  32.030  0.00  0.00     0.032 A 
ATOM      5  C   UNL d   1      59.980  -9.815  32.450  0.00  0.00     0.059 A 
ATOM      6  C   UNL d   1      59.964  -9.814  33.276  0.00  0.00     0.016 A 
ATOM      7  N   UNL d   1      57.841  -9.816  32.006  0.00  0.00    -0.241 NA
ATOM      8 CL   UNL d   1      60.700  -9.816  32.055  0.00  0.00    -0.082 Cl
ATOM      9  O   UNL d   1      57.815  -9.813  33.655  0.00  0.00    -0.285 OA
ATOM     10  C   UNL d   1      59.279  -9.817  31.200  0.00  0.00     0.004 A 
ATOM     11  C   UNL d   1      57.856  -9.817  31.179  0.00  0.00     0.099 A 
ATOM     12  C   UNL d   1      58.586  -9.818  30.778  0.00  0.00     0.021 A 
ENDROOT
BRANCH   1  13
ATOM     13  C   UNL d   1      59.229  -9.812  34.508  0.00  0.00     0.084 C 
BRANCH  13  14
ATOM     14  N   UNL d   1      59.533  -9.157  34.916  0.00  0.00    -0.300 N 
ATOM     15  C   UNL d   1      59.057  -8.488  35.033  0.00  0.00     0.100 A 
ATOM     16  C   UNL d   1      59.357  -7.840  35.438  0.00  0.00     0.100 A 
ATOM     17  N   UNL d   1      60.129  -7.852  35.728  0.00  0.00    -0.297 N 
ATOM     18  C   UNL d   1      60.606  -8.521  35.611  0.00  0.00     0.100 A 
ATOM     19  C   UNL d   1      60.307  -9.166  35.208  0.00  0.00     0.100 A 
BRANCH  17  20
ATOM     20  C   UNL d   1      60.429  -7.204  36.132  0.00  0.00     0.126 C 
BRANCH  20  21
ATOM     21  C   UNL d   1      60.176  -6.444  35.949  0.00  0.00     0.253 C 
ATOM     22  O   UNL d   1      60.592  -5.785  36.243  0.00  0.00    -0.281 OA
ENDBRANCH  20  21
ENDBRANCH  17  20
ENDBRANCH  13  14
ENDBRANCH   1  13
TORSDOF 4
ENDMDL
MODEL 3
REMARK VINA RESULT:      -2.5      2.006      5.356
REMARK  4 active torsions:
REMARK  status: ('A' for Active; 'I' for Inactive)
REMARK    1  A    between atoms: C_8  and  C_1 
REMARK    2  A    between atoms: N_7  and  C_8 
REMARK    3  A    between atoms: C_18  and  N_9 
REMARK    4  A    between atoms: C_21  and  C_18 
ROOT
ATOM      1  C   UNL d   1      56.440   0.671  32.797  0.00  0.00     0.059 A 
ATOM      2  C   UNL d   1      55.854   0.675  34.095  0.00  0.00     0.121 A 
ATOM      3  C   UNL d   1      55.767   0.672  33.266  0.00  0.00     0.214 A 
ATOM      4  C   UNL d   1      56.606   0.678  34.434  0.00  0.00     0.032 A 
ATOM      5  C   UNL d   1      57.277   0.677  33.960  0.00  0.00     0.059 A 
ATOM      6  C   UNL d   1      57.195   0.674  33.138  0.00  0.00     0.016 A 
ATOM      7  N   UNL d   1      55.179   0.676  34.572  0.00  0.00    -0.241 NA
ATOM      8 CL   UNL d   1      58.025   0.680  34.297  0.00  0.00    -0.082 Cl
ATOM      9  O   UNL d   1      55.023   0.669  32.931  0.00  0.00    -0.285 OA
ATOM     10  C   UNL d   1      56.677   0.681  35.261  0.00  0.00     0.004 A 
ATOM     11  C   UNL d   1      55.260   0.679  35.395  0.00  0.00     0.099 A 
ATOM     12  C   UNL d   1      56.019   0.682  35.737  0.00  0.00     0.021 A 
ENDROOT
BRANCH   1  13
ATOM     13  C   UNL d   1      56.366   0.668  31.969  0.00  0.00     0.084 C 
BRANCH  13  14
ATOM     14  N   UNL d   1      56.881   0.203  31.516  0.00  0.00    -0.300 N 
ATOM     15  C   UNL d   1      56.836  -0.624  31.561  0.00  0.00     0.100 A 
ATOM     16  C   UNL d   1      57.347  -1.085  31.113  0.00  0.00     0.100 A 
ATOM     17  N   UNL d   1      57.904  -0.729  30.619  0.00  0.00    -0.297 N 
ATOM     18  C   UNL d   1      57.950   0.099  30.575  0.00  0.00     0.100 A 
ATOM     19  C   UNL d   1      57.441   0.557  31.020  0.00  0.00     0.100 A 
BRANCH  17  20
ATOM     20  C   UNL d   1      58.414  -1.189  30.172  0.00  0.00     0.126 C 
BRANCH  20  21
ATOM     21  C   UNL d   1      58.793  -0.874  29.515  0.00  0.00     0.253 C 
ATOM     22  O   UNL d   1      59.290  -1.354  29.050  0.00  0.00    -0.281 OA
ENDBRANCH  20  21
ENDBRANCH  17  20
ENDBRANCH  13  14
ENDBRANCH   1  13
TORSDOF 4
ENDMDL
MODEL 4
REMARK VINA RESULT:      -2.2      1.726      2.422
REMARK  4 active torsions:
REMARK  status: ('A' for Active; 'I' for Inactive)
REMARK    1  A    between atoms: C_8  and  C_1 
REMARK    2  A    between atoms: N_7  and  C_8 
REMARK    3  A    between atoms: C_18  and  N_9 
REMARK    4  A    between atoms: C_21  and  C_18 
ROOT
ATOM      1  C   UNL d   1      57.747   0.182  30.989  0.00  0.00     0.059 A 
ATOM      2  C   UNL d   1      58.946   0.191  30.221  0.00  0.00     0.121 A 
ATOM      3  C   UNL d   1      58.121   0.086  30.265  0.00  0.00     0.214 A 
ATOM      4  C   UNL d   1      59.377   0.388  30.896  0.00  0.00     0.032 A 
ATOM      5  C   UNL d   1      58.999   0.483  31.618  0.00  0.00     0.059 A 
ATOM      6  C   UNL d   1      58.180   0.380  31.667  0.00  0.00     0.016 A 
ATOM      7  N   UNL d   1      59.326   0.095  29.493  0.00  0.00    -0.241 NA
ATOM      8 CL   UNL d   1      59.428   0.680  32.290  0.00  0.00    -0.082 Cl
ATOM      9  O   UNL d   1      57.694  -0.110  29.597  0.00  0.00    -0.285 OA
ATOM     10  C   UNL d   1      60.199   0.490  30.835  0.00  0.00     0.004 A 
ATOM     11  C   UNL d   1      60.145   0.198  29.443  0.00  0.00     0.099 A 
ATOM     12  C   UNL d   1      60.581   0.398  30.125  0.00  0.00     0.021 A 
ENDROOT
BRANCH   1  13
ATOM     13  C   UNL d   1      56.924   0.079  31.046  0.00  0.00     0.084 C 
BRANCH  13  14
ATOM     14  N   UNL d   1      56.574   0.006  31.794  0.00  0.00    -0.300 N 
ATOM     15  C   UNL d   1      56.296   0.682  32.187  0.00  0.00     0.100 A 
ATOM     16  C   UNL d   1      55.950   0.609  32.928  0.00  0.00     0.100 A 
ATOM     17  N   UNL d   1      55.877  -0.132  33.282  0.00  0.00    -0.297 N 
ATOM     18  C   UNL d   1      56.155  -0.808  32.890  0.00  0.00     0.100 A 
ATOM     19  C   UNL d   1      56.500  -0.736  32.152  0.00  0.00     0.100 A 
BRANCH  17  20
ATOM     20  C   UNL d   1      55.532  -0.204  34.022  0.00  0.00     0.126 C 
BRANCH  20  21
ATOM     21  C   UNL d   1      54.872   0.244  34.220  0.00  0.00     0.253 C 
ATOM     22  O   UNL d   1      54.782   0.531  34.997  0.00  0.00    -0.281 OA
ENDBRANCH  20  21
ENDBRANCH  17  20
ENDBRANCH  13  14
ENDBRANCH   1  13
TORSDOF 4
ENDMDL
