MODEL 1
REMARK VINA RESULT:      65.4      0.000      0.000
REMARK  4 active torsions:
REMARK  status: ('A' for Active; 'I' for Inactive)
REMARK    1  A    between atoms: S_4  and  C_3 
REMARK    2  A    between atoms: C_12  and  S_4 
REMARK    3  A    between atoms: C_23  and  N_6 
REMARK    4  A    between atoms: C_27  and  C_23 
ROOT
ATOM      1  C   UNL d   1      14.023  13.037  -2.728  0.00  0.00     0.155 A 
ATOM      2  C   UNL d   1      13.981  13.772  -3.089  0.00  0.00     0.092 A 
ATOM      3  C   UNL d   1      14.588  14.361  -1.944  0.00  0.00     0.124 A 
ATOM      4  N   UNL d   1      13.740  12.368  -3.117  0.00  0.00    -0.210 NA
ATOM      5  N   UNL d   1      14.346  12.963  -1.978  0.00  0.00    -0.273 N 
ATOM      6  C   UNL d   1      14.631  13.630  -1.585  0.00  0.00     0.181 A 
ATOM      7  C   UNL d   1      13.655  13.847  -3.845  0.00  0.00     0.269 A 
ATOM      8  N   UNL d   1      13.373  13.179  -4.234  0.00  0.00    -0.258 N 
ATOM      9  C   UNL d   1      14.263  14.440  -2.701  0.00  0.00     0.022 A 
ATOM     10  C   UNL d   1      13.416  12.440  -3.870  0.00  0.00     0.152 A 
ATOM     11  N   UNL d   1      14.956  13.551  -0.827  0.00  0.00    -0.128 N 
ATOM     12  C   UNL d   1      13.047  13.257  -4.991  0.00  0.00     0.084 A 
ATOM     13  O   UNL d   1      13.616  14.589  -4.202  0.00  0.00    -0.266 OA
ATOM     14  C   UNL d   1      13.132  11.779  -4.264  0.00  0.00     0.038 A 
ATOM     15  C   UNL d   1      12.769  12.585  -5.370  0.00  0.00     0.019 A 
ATOM     16  C   UNL d   1      12.811  11.846  -5.006  0.00  0.00     0.005 A 
ENDROOT
BRANCH   3  17
ATOM     17  S   UNL d   1      14.875  15.033  -1.548  0.00  0.00     0.213 S 
ATOM     18  O   UNL d   1      14.566  14.746  -0.846  0.00  0.00    -0.217 OA
ATOM     19  O   UNL d   1      15.185  15.317  -2.268  0.00  0.00    -0.217 OA
BRANCH  17  20
ATOM     20  C   UNL d   1      15.163  15.706  -1.163  0.00  0.00     0.088 A 
ATOM     21  C   UNL d   1      14.950  16.455  -1.436  0.00  0.00     0.011 A 
ATOM     22  C   UNL d   1      15.235  17.121  -1.056  0.00  0.00     0.001 A 
ATOM     23  C   UNL d   1      15.022  17.871  -1.328  0.00  0.00     0.000 C 
ATOM     24  C   UNL d   1      15.736  17.046  -0.398  0.00  0.00     0.000 A 
ATOM     25  C   UNL d   1      15.949  16.297  -0.125  0.00  0.00     0.001 A 
ATOM     26  C   UNL d   1      16.023  17.723  -0.014  0.00  0.00     0.000 C 
ATOM     27  C   UNL d   1      15.661  15.619  -0.509  0.00  0.00     0.011 A 
ENDBRANCH  17  20
ENDBRANCH   3  17
BRANCH   5  28
ATOM     28  C   UNL d   1      14.385  12.220  -1.622  0.00  0.00     0.083 C 
BRANCH  28  29
ATOM     29  C   UNL d   1      14.366  12.161  -0.799  0.00  0.00     0.019 C 
ATOM     30  C   UNL d   1      13.723  11.806  -0.422  0.00  0.00     0.002 C 
ENDBRANCH  28  29
ENDBRANCH   5  28
TORSDOF 4
ENDMDL
MODEL 2
REMARK VINA RESULT:      66.3      1.868      3.678
REMARK  4 active torsions:
REMARK  status: ('A' for Active; 'I' for Inactive)
REMARK    1  A    between atoms: S_4  and  C_3 
REMARK    2  A    between atoms: C_12  and  S_4 
REMARK    3  A    between atoms: C_23  and  N_6 
REMARK    4  A    between atoms: C_27  and  C_23 
ROOT
ATOM      1  C   UNL d   1      13.834  13.141  -2.707  0.00  0.00     0.155 A 
ATOM      2  C   UNL d   1      14.285  13.782  -2.469  0.00  0.00     0.092 A 
ATOM      3  C   UNL d   1      13.948  14.458  -3.676  0.00  0.00     0.124 A 
ATOM      4  N   UNL d   1      13.773  12.476  -2.224  0.00  0.00    -0.210 NA
ATOM      5  N   UNL d   1      13.440  13.156  -3.426  0.00  0.00    -0.273 N 
ATOM      6  C   UNL d   1      13.498  13.819  -3.913  0.00  0.00     0.181 A 
ATOM      7  C   UNL d   1      14.682  13.767  -1.745  0.00  0.00     0.269 A 
ATOM      8  N   UNL d   1      14.622  13.104  -1.262  0.00  0.00    -0.258 N 
ATOM      9  C   UNL d   1      14.346  14.446  -2.952  0.00  0.00     0.022 A 
ATOM     10  C   UNL d   1      14.167  12.458  -1.502  0.00  0.00     0.152 A 
ATOM     11  N   UNL d   1      13.099  13.831  -4.639  0.00  0.00    -0.128 N 
ATOM     12  C   UNL d   1      15.020  13.091  -0.537  0.00  0.00     0.084 A 
ATOM     13  O   UNL d   1      15.135  14.416  -1.512  0.00  0.00    -0.266 OA
ATOM     14  C   UNL d   1      14.111  11.801  -1.016  0.00  0.00     0.038 A 
ATOM     15  C   UNL d   1      14.953  12.425  -0.063  0.00  0.00     0.019 A 
ATOM     16  C   UNL d   1      14.499  11.780  -0.303  0.00  0.00     0.005 A 
ENDROOT
BRANCH   3  17
ATOM     17  S   UNL d   1      14.007  15.126  -4.167  0.00  0.00     0.213 S 
ATOM     18  O   UNL d   1      13.353  15.452  -3.794  0.00  0.00    -0.217 OA
ATOM     19  O   UNL d   1      14.670  14.786  -4.539  0.00  0.00    -0.217 OA
BRANCH  17  20
ATOM     20  C   UNL d   1      14.073  15.788  -4.659  0.00  0.00     0.088 A 
ATOM     21  C   UNL d   1      14.527  16.433  -4.416  0.00  0.00     0.011 A 
ATOM     22  C   UNL d   1      14.594  17.088  -4.902  0.00  0.00     0.001 A 
ATOM     23  C   UNL d   1      15.047  17.733  -4.660  0.00  0.00     0.000 C 
ATOM     24  C   UNL d   1      14.208  17.104  -5.637  0.00  0.00     0.000 A 
ATOM     25  C   UNL d   1      13.754  16.459  -5.879  0.00  0.00     0.001 A 
ATOM     26  C   UNL d   1      14.277  17.770  -6.128  0.00  0.00     0.000 C 
ATOM     27  C   UNL d   1      13.685  15.794  -5.388  0.00  0.00     0.011 A 
ENDBRANCH  17  20
ENDBRANCH   3  17
BRANCH   5  28
ATOM     28  C   UNL d   1      12.988  12.507  -3.658  0.00  0.00     0.083 C 
BRANCH  28  29
ATOM     29  C   UNL d   1      13.286  11.981  -4.221  0.00  0.00     0.019 C 
ATOM     30  C   UNL d   1      12.835  11.780  -4.882  0.00  0.00     0.002 C 
ENDBRANCH  28  29
ENDBRANCH   5  28
TORSDOF 4
ENDMDL
