MODEL 1
REMARK VINA RESULT:      -6.2      0.000      0.000
REMARK  4 active torsions:
REMARK  status: ('A' for Active; 'I' for Inactive)
REMARK    1  A    between atoms: N_2  and  S_1 
REMARK    2  A    between atoms: C_4  and  S_1 
REMARK    3  A    between atoms: O_16  and  C_13 
REMARK    4  A    between atoms: C_19  and  O_16 
ROOT
ATOM      1  S   UNL d   1     -41.502-123.018 -52.040  0.00  0.00     0.271 S 
ATOM      2  O   UNL d   1     -41.767-123.798 -52.099  0.00  0.00    -0.200 OA
ATOM      3  O   UNL d   1     -41.236-122.234 -51.983  0.00  0.00    -0.200 OA
ENDROOT
BRANCH   1   4
ATOM      4  N   UNL d   1     -41.503-122.957 -52.869  0.00  0.00    -0.229 N 
ATOM      5  C   UNL d   1     -41.882-122.324 -53.235  0.00  0.00     0.092 A 
ATOM      6  C   UNL d   1     -41.881-122.267 -54.057  0.00  0.00     0.018 A 
ATOM      7  C   UNL d   1     -42.261-121.632 -54.427  0.00  0.00     0.002 A 
ATOM      8  C   UNL d   1     -41.501-122.841 -54.511  0.00  0.00     0.003 A 
ATOM      9  C   UNL d   1     -42.260-121.575 -55.248  0.00  0.00     0.000 A 
ATOM     10  C   UNL d   1     -41.880-122.149 -55.703  0.00  0.00     0.000 A 
ATOM     11  C   UNL d   1     -41.501-122.782 -55.336  0.00  0.00     0.000 A 
ATOM     12  C   UNL d   1     -41.123-123.474 -54.144  0.00  0.00     0.020 A 
ATOM     13  C   UNL d   1     -41.124-123.531 -53.323  0.00  0.00     0.092 A 
ENDBRANCH   1   4
BRANCH   1  14
ATOM     14  C   UNL d   1     -41.502-123.082 -51.220  0.00  0.00     0.104 A 
ATOM     15  C   UNL d   1     -41.883-122.510 -50.760  0.00  0.00     0.015 A 
ATOM     16  C   UNL d   1     -41.883-122.574 -49.939  0.00  0.00     0.025 A 
ATOM     17  C   UNL d   1     -41.503-123.210 -49.574  0.00  0.00     0.100 A 
ATOM     18  C   UNL d   1     -41.124-123.780 -50.031  0.00  0.00     0.025 A 
ATOM     19  C   UNL d   1     -41.123-123.718 -50.855  0.00  0.00     0.015 A 
BRANCH  17  20
ATOM     20  O   UNL d   1     -41.503-123.274 -48.754  0.00  0.00    -0.305 OA
BRANCH  20  21
ATOM     21  C   UNL d   1     -42.208-123.194 -48.333  0.00  0.00     0.123 C 
ATOM     22  C   UNL d   1     -42.234-123.382 -47.531  0.00  0.00     0.029 C 
ENDBRANCH  20  21
ENDBRANCH  17  20
ENDBRANCH   1  14
TORSDOF 4
ENDMDL
MODEL 2
REMARK VINA RESULT:      -5.8      1.230      5.126
REMARK  4 active torsions:
REMARK  status: ('A' for Active; 'I' for Inactive)
REMARK    1  A    between atoms: N_2  and  S_1 
REMARK    2  A    between atoms: C_4  and  S_1 
REMARK    3  A    between atoms: O_16  and  C_13 
REMARK    4  A    between atoms: C_19  and  O_16 
ROOT
ATOM      1  S   UNL d   1     -41.878-123.030 -50.472  0.00  0.00     0.271 S 
ATOM      2  O   UNL d   1     -41.548-123.785 -50.532  0.00  0.00    -0.200 OA
ATOM      3  O   UNL d   1     -42.210-122.272 -50.410  0.00  0.00    -0.200 OA
ENDROOT
BRANCH   1   4
ATOM      4  N   UNL d   1     -42.067-123.178 -49.677  0.00  0.00    -0.229 N 
ATOM      5  C   UNL d   1     -41.503-123.056 -49.090  0.00  0.00     0.092 A 
ATOM      6  C   UNL d   1     -41.694-123.204 -48.302  0.00  0.00     0.018 A 
ATOM      7  C   UNL d   1     -41.129-123.082 -47.711  0.00  0.00     0.002 A 
ATOM      8  C   UNL d   1     -42.448-123.472 -48.102  0.00  0.00     0.003 A 
ATOM      9  C   UNL d   1     -41.320-123.230 -46.923  0.00  0.00     0.000 A 
ATOM     10  C   UNL d   1     -42.074-123.498 -46.723  0.00  0.00     0.000 A 
ATOM     11  C   UNL d   1     -42.638-123.619 -47.311  0.00  0.00     0.000 A 
ATOM     12  C   UNL d   1     -43.012-123.593 -48.690  0.00  0.00     0.020 A 
ATOM     13  C   UNL d   1     -42.821-123.446 -49.477  0.00  0.00     0.092 A 
ENDBRANCH   1   4
BRANCH   1  14
ATOM     14  C   UNL d   1     -41.689-122.888 -51.260  0.00  0.00     0.104 A 
ATOM     15  C   UNL d   1     -41.530-122.117 -51.515  0.00  0.00     0.015 A 
ATOM     16  C   UNL d   1     -41.342-121.974 -52.304  0.00  0.00     0.025 A 
ATOM     17  C   UNL d   1     -41.311-122.599 -52.841  0.00  0.00     0.100 A 
ATOM     18  C   UNL d   1     -41.469-123.367 -52.589  0.00  0.00     0.025 A 
ATOM     19  C   UNL d   1     -41.659-123.513 -51.798  0.00  0.00     0.015 A 
BRANCH  17  20
ATOM     20  O   UNL d   1     -41.123-122.457 -53.629  0.00  0.00    -0.305 OA
BRANCH  20  21
ATOM     21  C   UNL d   1     -41.723-122.373 -54.189  0.00  0.00     0.123 C 
ATOM     22  C   UNL d   1     -41.535-122.208 -54.974  0.00  0.00     0.029 C 
ENDBRANCH  20  21
ENDBRANCH  17  20
ENDBRANCH   1  14
TORSDOF 4
ENDMDL
MODEL 3
REMARK VINA RESULT:      -4.7      0.759      1.283
REMARK  4 active torsions:
REMARK  status: ('A' for Active; 'I' for Inactive)
REMARK    1  A    between atoms: N_2  and  S_1 
REMARK    2  A    between atoms: C_4  and  S_1 
REMARK    3  A    between atoms: O_16  and  C_13 
REMARK    4  A    between atoms: C_19  and  O_16 
ROOT
ATOM      1  S   UNL d   1     -41.715-122.894 -51.417  0.00  0.00     0.271 S 
ATOM      2  O   UNL d   1     -42.303-122.321 -51.330  0.00  0.00    -0.200 OA
ATOM      3  O   UNL d   1     -41.123-123.469 -51.507  0.00  0.00    -0.200 OA
ENDROOT
BRANCH   1   4
ATOM      4  N   UNL d   1     -41.665-122.718 -52.228  0.00  0.00    -0.229 N 
ATOM      5  C   UNL d   1     -41.544-123.321 -52.774  0.00  0.00     0.092 A 
ATOM      6  C   UNL d   1     -41.496-123.142 -53.577  0.00  0.00     0.018 A 
ATOM      7  C   UNL d   1     -41.374-123.747 -54.128  0.00  0.00     0.002 A 
ATOM      8  C   UNL d   1     -41.569-122.361 -53.832  0.00  0.00     0.003 A 
ATOM      9  C   UNL d   1     -41.325-123.568 -54.931  0.00  0.00     0.000 A 
ATOM     10  C   UNL d   1     -41.398-122.787 -55.186  0.00  0.00     0.000 A 
ATOM     11  C   UNL d   1     -41.520-122.183 -54.638  0.00  0.00     0.000 A 
ATOM     12  C   UNL d   1     -41.690-121.758 -53.284  0.00  0.00     0.020 A 
ATOM     13  C   UNL d   1     -41.738-121.937 -52.482  0.00  0.00     0.092 A 
ENDBRANCH   1   4
BRANCH   1  14
ATOM     14  C   UNL d   1     -41.766-123.066 -50.614  0.00  0.00     0.104 A 
ATOM     15  C   UNL d   1     -42.462-123.385 -50.303  0.00  0.00     0.015 A 
ATOM     16  C   UNL d   1     -42.514-123.557 -49.499  0.00  0.00     0.025 A 
ATOM     17  C   UNL d   1     -41.871-123.412 -49.003  0.00  0.00     0.100 A 
ATOM     18  C   UNL d   1     -41.177-123.095 -49.312  0.00  0.00     0.025 A 
ATOM     19  C   UNL d   1     -41.123-122.921 -50.119  0.00  0.00     0.015 A 
BRANCH  17  20
ATOM     20  O   UNL d   1     -41.922-123.584 -48.201  0.00  0.00    -0.305 OA
BRANCH  20  21
ATOM     21  C   UNL d   1     -42.011-122.974 -47.652  0.00  0.00     0.123 C 
ATOM     22  C   UNL d   1     -42.147-123.149 -46.859  0.00  0.00     0.029 C 
ENDBRANCH  20  21
ENDBRANCH  17  20
ENDBRANCH   1  14
TORSDOF 4
ENDMDL
