MODEL 1
REMARK VINA RESULT:      -5.0      0.000      0.000
REMARK  1 active torsions:
REMARK  status: ('A' for Active; 'I' for Inactive)
REMARK    1  A    between atoms: C_6  and  C_2 
ROOT
ATOM      1  C   UNL d   1     -41.736-122.417 -54.170  0.00  0.00     0.019 A 
ATOM      2  C   UNL d   1     -41.290-122.653 -54.812  0.00  0.00     0.001 A 
ATOM      3  C   UNL d   1     -42.396-121.944 -54.259  0.00  0.00     0.001 A 
ATOM      4  C   UNL d   1     -42.621-121.697 -55.012  0.00  0.00     0.000 A 
ATOM      5  C   UNL d   1     -41.512-122.407 -55.572  0.00  0.00     0.000 A 
ATOM      6  C   UNL d   1     -42.175-121.932 -55.669  0.00  0.00     0.000 A 
ENDROOT
BRANCH   1   7
ATOM      7  C   UNL d   1     -41.512-122.664 -53.409  0.00  0.00     0.102 A 
ATOM      8  N   UNL d   1     -41.309-122.171 -52.781  0.00  0.00    -0.222 NA
ATOM      9  C   UNL d   1     -41.124-122.648 -52.132  0.00  0.00     0.199 A 
ATOM     10  N   UNL d   1     -41.213-123.434 -52.359  0.00  0.00    -0.221 NA
ATOM     11  C   UNL d   1     -41.453-123.449 -53.150  0.00  0.00     0.120 A 
ENDBRANCH   1   7
TORSDOF 1
ENDMDL
MODEL 2
REMARK VINA RESULT:      -4.9      1.222      2.741
REMARK  1 active torsions:
REMARK  status: ('A' for Active; 'I' for Inactive)
REMARK    1  A    between atoms: C_6  and  C_2 
ROOT
ATOM      1  C   UNL d   1     -41.612-122.624 -53.699  0.00  0.00     0.019 A 
ATOM      2  C   UNL d   1     -41.495-122.117 -53.070  0.00  0.00     0.001 A 
ATOM      3  C   UNL d   1     -41.490-123.428 -53.627  0.00  0.00     0.001 A 
ATOM      4  C   UNL d   1     -41.244-123.740 -52.906  0.00  0.00     0.000 A 
ATOM      5  C   UNL d   1     -41.247-122.425 -52.342  0.00  0.00     0.000 A 
ATOM      6  C   UNL d   1     -41.123-123.233 -52.262  0.00  0.00     0.000 A 
ENDROOT
BRANCH   1   7
ATOM      7  C   UNL d   1     -41.861-122.312 -54.429  0.00  0.00     0.102 A 
ATOM      8  N   UNL d   1     -41.420-122.303 -55.125  0.00  0.00    -0.222 NA
ATOM      9  C   UNL d   1     -41.879-121.943 -55.711  0.00  0.00     0.199 A 
ATOM     10  N   UNL d   1     -42.600-121.731 -55.376  0.00  0.00    -0.221 NA
ATOM     11  C   UNL d   1     -42.593-121.958 -54.582  0.00  0.00     0.120 A 
ENDBRANCH   1   7
TORSDOF 1
ENDMDL
MODEL 3
REMARK VINA RESULT:      -4.4      1.018      2.893
REMARK  1 active torsions:
REMARK  status: ('A' for Active; 'I' for Inactive)
REMARK    1  A    between atoms: C_6  and  C_2 
ROOT
ATOM      1  C   UNL d   1     -41.320-122.736 -52.432  0.00  0.00     0.019 A 
ATOM      2  C   UNL d   1     -41.195-123.449 -52.054  0.00  0.00     0.001 A 
ATOM      3  C   UNL d   1     -41.376-122.037 -52.015  0.00  0.00     0.001 A 
ATOM      4  C   UNL d   1     -41.306-122.044 -51.195  0.00  0.00     0.000 A 
ATOM      5  C   UNL d   1     -41.123-123.463 -51.229  0.00  0.00     0.000 A 
ATOM      6  C   UNL d   1     -41.178-122.763 -50.803  0.00  0.00     0.000 A 
ENDROOT
BRANCH   1   7
ATOM      7  C   UNL d   1     -41.392-122.725 -53.260  0.00  0.00     0.102 A 
ATOM      8  N   UNL d   1     -41.693-122.104 -53.710  0.00  0.00    -0.222 NA
ATOM      9  C   UNL d   1     -41.662-122.328 -54.505  0.00  0.00     0.199 A 
ATOM     10  N   UNL d   1     -41.342-123.085 -54.545  0.00  0.00    -0.221 NA
ATOM     11  C   UNL d   1     -41.173-123.335 -53.776  0.00  0.00     0.120 A 
ENDBRANCH   1   7
TORSDOF 1
ENDMDL
MODEL 4
REMARK VINA RESULT:      -4.0      2.045      4.129
REMARK  1 active torsions:
REMARK  status: ('A' for Active; 'I' for Inactive)
REMARK    1  A    between atoms: C_6  and  C_2 
ROOT
ATOM      1  C   UNL d   1     -41.712-122.786 -50.489  0.00  0.00     0.019 A 
ATOM      2  C   UNL d   1     -41.200-123.229 -50.033  0.00  0.00     0.001 A 
ATOM      3  C   UNL d   1     -42.424-122.517 -50.192  0.00  0.00     0.001 A 
ATOM      4  C   UNL d   1     -42.634-122.694 -49.416  0.00  0.00     0.000 A 
ATOM      5  C   UNL d   1     -41.406-123.410 -49.251  0.00  0.00     0.000 A 
ATOM      6  C   UNL d   1     -42.120-123.143 -48.946  0.00  0.00     0.000 A 
ENDROOT
BRANCH   1   7
ATOM      7  C   UNL d   1     -41.503-122.606 -51.273  0.00  0.00     0.102 A 
ATOM      8  N   UNL d   1     -41.481-123.138 -51.901  0.00  0.00    -0.222 NA
ATOM      9  C   UNL d   1     -41.245-122.724 -52.577  0.00  0.00     0.199 A 
ATOM     10  N   UNL d   1     -41.122-121.939 -52.365  0.00  0.00    -0.221 NA
ATOM     11  C   UNL d   1     -41.281-121.861 -51.559  0.00  0.00     0.120 A 
ENDBRANCH   1   7
TORSDOF 1
ENDMDL
MODEL 5
REMARK VINA RESULT:      -3.8      2.601      3.609
REMARK  1 active torsions:
REMARK  status: ('A' for Active; 'I' for Inactive)
REMARK    1  A    between atoms: C_6  and  C_2 
ROOT
ATOM      1  C   UNL d   1     -41.782-122.766 -50.810  0.00  0.00     0.019 A 
ATOM      2  C   UNL d   1     -41.710-122.019 -51.131  0.00  0.00     0.001 A 
ATOM      3  C   UNL d   1     -41.532-123.430 -51.214  0.00  0.00     0.001 A 
ATOM      4  C   UNL d   1     -41.199-123.350 -51.964  0.00  0.00     0.000 A 
ATOM      5  C   UNL d   1     -41.376-121.932 -51.884  0.00  0.00     0.000 A 
ATOM      6  C   UNL d   1     -41.123-122.595 -52.297  0.00  0.00     0.000 A 
ENDROOT
BRANCH   1   7
ATOM      7  C   UNL d   1     -42.117-122.851 -50.054  0.00  0.00     0.102 A 
ATOM      8  N   UNL d   1     -42.896-122.676 -49.849  0.00  0.00    -0.222 NA
ATOM      9  C   UNL d   1     -42.990-122.843 -49.045  0.00  0.00     0.199 A 
ATOM     10  N   UNL d   1     -42.271-123.119 -48.755  0.00  0.00    -0.221 NA
ATOM     11  C   UNL d   1     -41.728-123.126 -49.377  0.00  0.00     0.120 A 
ENDBRANCH   1   7
TORSDOF 1
ENDMDL
MODEL 6
REMARK VINA RESULT:      -2.8      9.950     10.398
REMARK  1 active torsions:
REMARK  status: ('A' for Active; 'I' for Inactive)
REMARK    1  A    between atoms: C_6  and  C_2 
ROOT
ATOM      1  C   UNL d   1     -42.752-114.947 -47.237  0.00  0.00     0.019 A 
ATOM      2  C   UNL d   1     -42.333-115.577 -46.931  0.00  0.00     0.001 A 
ATOM      3  C   UNL d   1     -42.376-114.268 -47.491  0.00  0.00     0.001 A 
ATOM      4  C   UNL d   1     -41.556-114.213 -47.440  0.00  0.00     0.000 A 
ATOM      5  C   UNL d   1     -41.508-115.528 -46.877  0.00  0.00     0.000 A 
ATOM      6  C   UNL d   1     -41.123-114.848 -47.130  0.00  0.00     0.000 A 
ENDROOT
BRANCH   1   7
ATOM      7  C   UNL d   1     -43.580-114.999 -47.291  0.00  0.00     0.102 A 
ATOM      8  N   UNL d   1     -44.007-115.216 -47.961  0.00  0.00    -0.222 NA
ATOM      9  C   UNL d   1     -44.811-115.194 -47.767  0.00  0.00     0.199 A 
ATOM     10  N   UNL d   1     -44.878-114.964 -46.980  0.00  0.00    -0.221 NA
ATOM     11  C   UNL d   1     -44.118-114.842 -46.681  0.00  0.00     0.120 A 
ENDBRANCH   1   7
TORSDOF 1
ENDMDL
