MODEL 1
REMARK VINA RESULT:      -7.6      0.000      0.000
REMARK  2 active torsions:
REMARK  status: ('A' for Active; 'I' for Inactive)
REMARK    1  A    between atoms: N_8  and  C_7 
REMARK    2  A    between atoms: C_9  and  N_8 
ROOT
ATOM      1  N   UNL d   1     -48.039  12.088  22.449  0.00  0.00    -0.245 NA
ENDROOT
BRANCH   1   2
ATOM      2  C   UNL d   1     -47.516  12.664  22.702  0.00  0.00     0.093 A 
ATOM      3  C   UNL d   1     -46.870  12.551  23.197  0.00  0.00     0.118 A 
ATOM      4  S   UNL d   1     -46.504  13.288  23.300  0.00  0.00     0.213 S 
ATOM      5  C   UNL d   1     -46.922  13.850  22.871  0.00  0.00     0.100 A 
ATOM      6  O   UNL d   1     -46.189  14.046  23.361  0.00  0.00    -0.217 OA
ATOM      7  O   UNL d   1     -46.149  12.664  23.696  0.00  0.00    -0.217 OA
ATOM      8  C   UNL d   1     -47.549  13.464  22.501  0.00  0.00     0.032 A 
ENDBRANCH   1   2
BRANCH   1   9
ATOM      9  C   UNL d   1     -48.824  12.110  22.707  0.00  0.00     0.082 A 
ATOM     10  C   UNL d   1     -49.401  12.476  22.244  0.00  0.00     0.030 A 
ATOM     11  C   UNL d   1     -50.175  12.499  22.496  0.00  0.00     0.059 A 
ATOM     12 CL   UNL d   1     -50.808  12.838  22.105  0.00  0.00    -0.082 Cl
ATOM     13  C   UNL d   1     -50.385  12.156  23.217  0.00  0.00     0.011 A 
ATOM     14  C   UNL d   1     -49.809  11.790  23.681  0.00  0.00     0.002 A 
ATOM     15  C   UNL d   1     -49.023  11.768  23.423  0.00  0.00     0.019 A 
ENDBRANCH   1   9
TORSDOF 2
ENDMDL
MODEL 2
REMARK VINA RESULT:      -7.3      1.675      2.055
REMARK  2 active torsions:
REMARK  status: ('A' for Active; 'I' for Inactive)
REMARK    1  A    between atoms: N_8  and  C_7 
REMARK    2  A    between atoms: C_9  and  N_8 
ROOT
ATOM      1  N   UNL d   1     -48.143  14.126  22.205  0.00  0.00    -0.245 NA
ENDROOT
BRANCH   1   2
ATOM      2  C   UNL d   1     -47.582  13.707  22.628  0.00  0.00     0.093 A 
ATOM      3  C   UNL d   1     -46.858  13.993  22.892  0.00  0.00     0.118 A 
ATOM      4  S   UNL d   1     -46.478  13.375  23.293  0.00  0.00     0.213 S 
ATOM      5  C   UNL d   1     -46.965  12.714  23.276  0.00  0.00     0.100 A 
ATOM      6  O   UNL d   1     -46.156  12.722  23.677  0.00  0.00    -0.217 OA
ATOM      7  O   UNL d   1     -46.060  14.079  23.262  0.00  0.00    -0.217 OA
ATOM      8  C   UNL d   1     -47.649  12.919  22.864  0.00  0.00     0.032 A 
ENDBRANCH   1   2
BRANCH   1   9
ATOM      9  C   UNL d   1     -48.867  14.310  22.559  0.00  0.00     0.082 A 
ATOM     10  C   UNL d   1     -48.972  15.042  22.925  0.00  0.00     0.030 A 
ATOM     11  C   UNL d   1     -49.684  15.226  23.275  0.00  0.00     0.059 A 
ATOM     12 CL   UNL d   1     -49.878  15.922  23.658  0.00  0.00    -0.082 Cl
ATOM     13  C   UNL d   1     -50.303  14.679  23.265  0.00  0.00     0.011 A 
ATOM     14  C   UNL d   1     -50.198  13.947  22.900  0.00  0.00     0.002 A 
ATOM     15  C   UNL d   1     -49.474  13.762  22.544  0.00  0.00     0.019 A 
ENDBRANCH   1   9
TORSDOF 2
ENDMDL
MODEL 3
REMARK VINA RESULT:      -7.2      2.374      3.324
REMARK  2 active torsions:
REMARK  status: ('A' for Active; 'I' for Inactive)
REMARK    1  A    between atoms: N_8  and  C_7 
REMARK    2  A    between atoms: C_9  and  N_8 
ROOT
ATOM      1  N   UNL d   1     -48.462  11.945  22.412  0.00  0.00    -0.245 NA
ENDROOT
BRANCH   1   2
ATOM      2  C   UNL d   1     -49.189  11.962  22.786  0.00  0.00     0.093 A 
ATOM      3  C   UNL d   1     -49.875  12.313  22.500  0.00  0.00     0.118 A 
ATOM      4  S   UNL d   1     -50.470  12.192  23.064  0.00  0.00     0.213 S 
ATOM      5  C   UNL d   1     -50.153  11.770  23.693  0.00  0.00     0.100 A 
ATOM      6  O   UNL d   1     -51.014  12.038  23.662  0.00  0.00    -0.217 OA
ATOM      7  O   UNL d   1     -50.702  12.608  22.398  0.00  0.00    -0.217 OA
ATOM      8  C   UNL d   1     -49.359  11.628  23.521  0.00  0.00     0.032 A 
ENDBRANCH   1   2
BRANCH   1   9
ATOM      9  C   UNL d   1     -47.820  12.339  22.753  0.00  0.00     0.082 A 
ATOM     10  C   UNL d   1     -47.666  13.125  22.555  0.00  0.00     0.030 A 
ATOM     11  C   UNL d   1     -47.034  13.516  22.890  0.00  0.00     0.059 A 
ATOM     12 CL   UNL d   1     -46.807  14.289  22.754  0.00  0.00    -0.082 Cl
ATOM     13  C   UNL d   1     -46.545  13.125  23.429  0.00  0.00     0.011 A 
ATOM     14  C   UNL d   1     -46.699  12.339  23.627  0.00  0.00     0.002 A 
ATOM     15  C   UNL d   1     -47.341  11.944  23.287  0.00  0.00     0.019 A 
ENDBRANCH   1   9
TORSDOF 2
ENDMDL
MODEL 4
REMARK VINA RESULT:      -7.1      2.569      3.348
REMARK  2 active torsions:
REMARK  status: ('A' for Active; 'I' for Inactive)
REMARK    1  A    between atoms: N_8  and  C_7 
REMARK    2  A    between atoms: C_9  and  N_8 
ROOT
ATOM      1  N   UNL d   1     -48.465  13.924  22.222  0.00  0.00    -0.245 NA
ENDROOT
BRANCH   1   2
ATOM      2  C   UNL d   1     -48.976  14.428  22.617  0.00  0.00     0.093 A 
ATOM      3  C   UNL d   1     -49.671  14.214  22.999  0.00  0.00     0.118 A 
ATOM      4  S   UNL d   1     -50.001  14.904  23.318  0.00  0.00     0.213 S 
ATOM      5  C   UNL d   1     -49.513  15.538  23.133  0.00  0.00     0.100 A 
ATOM      6  O   UNL d   1     -50.276  15.624  23.608  0.00  0.00    -0.217 OA
ATOM      7  O   UNL d   1     -50.428  14.218  23.457  0.00  0.00    -0.217 OA
ATOM      8  C   UNL d   1     -48.877  15.243  22.699  0.00  0.00     0.032 A 
ENDBRANCH   1   2
BRANCH   1   9
ATOM      9  C   UNL d   1     -47.772  13.673  22.596  0.00  0.00     0.082 A 
ATOM     10  C   UNL d   1     -47.739  12.926  22.945  0.00  0.00     0.030 A 
ATOM     11  C   UNL d   1     -47.058  12.676  23.314  0.00  0.00     0.059 A 
ATOM     12 CL   UNL d   1     -46.935  11.957  23.684  0.00  0.00    -0.082 Cl
ATOM     13  C   UNL d   1     -46.396  13.170  23.339  0.00  0.00     0.011 A 
ATOM     14  C   UNL d   1     -46.428  13.917  22.990  0.00  0.00     0.002 A 
ATOM     15  C   UNL d   1     -47.122  14.169  22.615  0.00  0.00     0.019 A 
ENDBRANCH   1   9
TORSDOF 2
ENDMDL
