MODEL 1
REMARK VINA RESULT:      63.2      0.000      0.000
REMARK  4 active torsions:
REMARK  status: ('A' for Active; 'I' for Inactive)
REMARK    1  A    between atoms: S_3  and  N_1 
REMARK    2  A    between atoms: C_7  and  C_4 
REMARK    3  A    between atoms: C_8  and  C_5 
REMARK    4  A    between atoms: O_19  and  C_17 
ROOT
ATOM      1  N   UNL d   1      60.399  49.067  50.546  0.00  0.00    -0.155 N 
ATOM      2  N   UNL d   1      61.056  49.070  51.062  0.00  0.00    -0.155 NA
ATOM      3  C   UNL d   1      60.804  49.384  51.771  0.00  0.00     0.110 A 
ATOM      4  C   UNL d   1      59.742  49.379  50.934  0.00  0.00     0.096 A 
ATOM      5  C   UNL d   1      59.985  49.585  51.714  0.00  0.00     0.041 A 
ENDROOT
BRANCH   4   6
ATOM      6  C   UNL d   1      58.984  49.475  50.623  0.00  0.00     0.021 A 
ATOM      7  C   UNL d   1      58.332  49.466  51.114  0.00  0.00     0.026 A 
ATOM      8  C   UNL d   1      57.574  49.562  50.803  0.00  0.00     0.094 A 
ATOM      9  C   UNL d   1      57.468  49.667  50.000  0.00  0.00     0.024 A 
ATOM     10  C   UNL d   1      58.124  49.677  49.500  0.00  0.00     0.002 A 
ATOM     11  C   UNL d   1      58.882  49.581  49.811  0.00  0.00     0.002 A 
BRANCH   8  12
ATOM     12  O   UNL d   1      56.917  49.551  51.309  0.00  0.00    -0.328 OA
ATOM     13  C   UNL d   1      56.369  48.943  51.258  0.00  0.00     0.181 C 
ENDBRANCH   8  12
ENDBRANCH   4   6
BRANCH   1  14
ATOM     14  S   UNL d   1      60.412  48.799  49.785  0.00  0.00     0.266 S 
ATOM     15  O   UNL d   1      60.279  48.017  50.052  0.00  0.00    -0.203 OA
ATOM     16  O   UNL d   1      60.543  49.546  49.489  0.00  0.00    -0.203 OA
ATOM     17  C   UNL d   1      60.423  48.495  48.995  0.00  0.00     0.165 C 
ENDBRANCH   1  14
BRANCH   3  18
ATOM     18  C   UNL d   1      61.257  49.501  52.456  0.00  0.00     0.049 A 
ATOM     19  S   UNL d   1      60.931  49.516  53.206  0.00  0.00    -0.085 SA
ATOM     20  C   UNL d   1      61.555  49.643  53.733  0.00  0.00     0.035 A 
ATOM     21  C   UNL d   1      62.264  49.704  53.279  0.00  0.00     0.007 A 
ATOM     22  C   UNL d   1      62.071  49.615  52.500  0.00  0.00     0.009 A 
ENDBRANCH   3  18
TORSDOF 4
ENDMDL
MODEL 2
REMARK VINA RESULT:      63.9      1.413      3.648
REMARK  4 active torsions:
REMARK  status: ('A' for Active; 'I' for Inactive)
REMARK    1  A    between atoms: S_3  and  N_1 
REMARK    2  A    between atoms: C_7  and  C_4 
REMARK    3  A    between atoms: C_8  and  C_5 
REMARK    4  A    between atoms: O_19  and  C_17 
ROOT
ATOM      1  N   UNL d   1      60.021  49.085  50.729  0.00  0.00    -0.155 N 
ATOM      2  N   UNL d   1      59.356  49.015  50.229  0.00  0.00    -0.155 NA
ATOM      3  C   UNL d   1      58.697  49.183  50.678  0.00  0.00     0.110 A 
ATOM      4  C   UNL d   1      59.775  49.296  51.486  0.00  0.00     0.096 A 
ATOM      5  C   UNL d   1      58.936  49.362  51.469  0.00  0.00     0.041 A 
ENDROOT
BRANCH   4   6
ATOM      6  C   UNL d   1      60.256  49.422  52.144  0.00  0.00     0.021 A 
ATOM      7  C   UNL d   1      59.928  49.484  52.890  0.00  0.00     0.026 A 
ATOM      8  C   UNL d   1      60.409  49.609  53.548  0.00  0.00     0.094 A 
ATOM      9  C   UNL d   1      61.218  49.672  53.461  0.00  0.00     0.024 A 
ATOM     10  C   UNL d   1      61.555  49.610  52.711  0.00  0.00     0.002 A 
ATOM     11  C   UNL d   1      61.074  49.485  52.053  0.00  0.00     0.002 A 
BRANCH   8  12
ATOM     12  O   UNL d   1      60.068  49.671  54.302  0.00  0.00    -0.328 OA
ATOM     13  C   UNL d   1      60.439  49.332  54.950  0.00  0.00     0.181 C 
ENDBRANCH   8  12
ENDBRANCH   4   6
BRANCH   1  14
ATOM     14  S   UNL d   1      60.785  48.963  50.499  0.00  0.00     0.266 S 
ATOM     15  O   UNL d   1      60.769  48.195  50.831  0.00  0.00    -0.203 OA
ATOM     16  O   UNL d   1      60.837  49.704  50.164  0.00  0.00    -0.203 OA
ATOM     17  C   UNL d   1      61.585  48.814  50.267  0.00  0.00     0.165 C 
ENDBRANCH   1  14
BRANCH   3  18
ATOM     18  C   UNL d   1      57.906  49.186  50.426  0.00  0.00     0.049 A 
ATOM     19  S   UNL d   1      57.629  49.686  49.841  0.00  0.00    -0.085 SA
ATOM     20  C   UNL d   1      56.824  49.521  49.752  0.00  0.00     0.035 A 
ATOM     21  C   UNL d   1      56.626  48.910  50.299  0.00  0.00     0.007 A 
ATOM     22  C   UNL d   1      57.294  48.712  50.706  0.00  0.00     0.009 A 
ENDBRANCH   3  18
TORSDOF 4
ENDMDL
