MODEL 1
REMARK VINA RESULT:      49.4      0.000      0.000
REMARK  5 active torsions:
REMARK  status: ('A' for Active; 'I' for Inactive)
REMARK       I    between atoms: C_3  and  N_1 
REMARK    1  A    between atoms: C_12  and  C_3 
REMARK    2  A    between atoms: C_7  and  O_10 
REMARK    3  A    between atoms: O_10  and  C_21 
REMARK    4  A    between atoms: C_22  and  C_12 
REMARK    5  A    between atoms: C_21  and  C_22 
ROOT
ATOM      1  N   UNL d   1     -50.513  25.740  33.343  0.00  0.00    -0.273 N 
ATOM      2  C   UNL d   1     -51.147  25.212  33.332  0.00  0.00     0.067 A 
ATOM      3  C   UNL d   1     -50.654  26.553  33.354  0.00  0.00     0.265 C 
ATOM      4  C   UNL d   1     -51.006  24.398  33.322  0.00  0.00     0.016 A 
ATOM      5  O   UNL d   1     -51.428  26.837  33.354  0.00  0.00    -0.267 OA
ATOM      6  C   UNL d   1     -49.740  25.456  33.343  0.00  0.00     0.083 A 
ATOM      7  C   UNL d   1     -51.921  25.496  33.332  0.00  0.00     0.018 A 
ATOM      8  C   UNL d   1     -49.600  24.643  33.333  0.00  0.00     0.019 A 
ATOM      9  C   UNL d   1     -50.233  24.114  33.322  0.00  0.00     0.003 A 
ATOM     10  C   UNL d   1     -51.640  23.870  33.311  0.00  0.00     0.001 A 
ATOM     11  C   UNL d   1     -52.555  24.967  33.322  0.00  0.00     0.002 A 
ATOM     12  C   UNL d   1     -52.414  24.155  33.311  0.00  0.00     0.000 A 
ENDROOT
BRANCH   3  13
ATOM     13  C   UNL d   1     -50.020  27.081  33.365  0.00  0.00     0.063 C 
BRANCH  13  14
ATOM     14  C   UNL d   1     -49.854  27.512  34.049  0.00  0.00     0.032 C 
BRANCH  14  15
ATOM     15  C   UNL d   1     -49.442  28.225  33.996  0.00  0.00     0.123 C 
BRANCH  15  16
ATOM     16  O   UNL d   1     -48.694  28.295  34.339  0.00  0.00    -0.305 OA
BRANCH  16  17
ATOM     17  C   UNL d   1     -48.428  29.030  34.601  0.00  0.00     0.100 A 
ATOM     18  C   UNL d   1     -47.933  29.079  35.261  0.00  0.00     0.023 A 
ATOM     19  C   UNL d   1     -47.667  29.814  35.523  0.00  0.00     0.002 A 
ATOM     20  C   UNL d   1     -47.706  28.393  35.656  0.00  0.00     0.002 C 
ATOM     21  C   UNL d   1     -47.178  29.858  36.176  0.00  0.00     0.000 C 
ATOM     22  C   UNL d   1     -47.895  30.500  35.127  0.00  0.00     0.000 A 
ATOM     23  C   UNL d   1     -48.389  30.451  34.469  0.00  0.00     0.002 A 
ATOM     24  C   UNL d   1     -48.656  29.716  34.205  0.00  0.00     0.025 A 
ENDBRANCH  16  17
ENDBRANCH  15  16
ENDBRANCH  14  15
ENDBRANCH  13  14
ENDBRANCH   3  13
TORSDOF 5
ENDMDL
