MODEL 1
REMARK VINA RESULT:      20.3      0.000      0.000
REMARK  0 active torsions:
REMARK  status: ('A' for Active; 'I' for Inactive)
ROOT
ATOM      1  C   UNL d   1      14.263  13.156  -2.027  0.00  0.00     0.106 A 
ATOM      2  O   UNL d   1      14.261  13.838  -2.482  0.00  0.00    -0.273 OA
ATOM      3  C   UNL d   1      13.887  13.836  -3.222  0.00  0.00     0.300 A 
ATOM      4  C   UNL d   1      13.524  12.469  -3.034  0.00  0.00     0.007 A 
ATOM      5  C   UNL d   1      13.892  12.468  -2.305  0.00  0.00     0.023 A 
ATOM      6  C   UNL d   1      13.517  13.151  -3.498  0.00  0.00     0.064 A 
ATOM      7  C   UNL d   1      14.635  13.156  -1.293  0.00  0.00     0.062 A 
ATOM      8  C   UNL d   1      13.897  11.788  -1.845  0.00  0.00     0.005 A 
ATOM      9  C   UNL d   1      14.638  12.468  -0.831  0.00  0.00     0.198 A 
ATOM     10  O   UNL d   1      13.882  14.529  -3.689  0.00  0.00    -0.259 OA
ATOM     11  C   UNL d   1      14.268  11.782  -1.108  0.00  0.00     0.042 A 
ATOM     12  C   UNL d   1      13.153  11.781  -3.312  0.00  0.00     0.000 A 
ATOM     13  C   UNL d   1      13.148  13.154  -4.231  0.00  0.00     0.005 A 
ATOM     14  O   UNL d   1      15.013  12.467  -0.089  0.00  0.00    -0.286 OA
ATOM     15  C   UNL d   1      14.996  13.828  -1.022  0.00  0.00     0.005 C 
ATOM     16  C   UNL d   1      12.781  11.780  -4.047  0.00  0.00     0.000 A 
ATOM     17  C   UNL d   1      12.774  12.473  -4.519  0.00  0.00     0.000 A 
ENDROOT
TORSDOF 0
ENDMDL
