MODEL 1
REMARK VINA RESULT:      -6.0      0.000      0.000
REMARK  2 active torsions:
REMARK  status: ('A' for Active; 'I' for Inactive)
REMARK    1  A    between atoms: C_3  and  C_4 
REMARK       I    between atoms: N_7  and  C_3 
REMARK    2  A    between atoms: C_11  and  N_7 
ROOT
ATOM      1  C   UNL d   1     -41.418-123.193 -54.095  0.00  0.00     0.300 A 
ATOM      2  O   UNL d   1     -41.338-123.208 -53.267  0.00  0.00    -0.268 OA
ATOM      3  C   UNL d   1     -41.637-122.576 -52.812  0.00  0.00     0.161 A 
ATOM      4  C   UNL d   1     -41.791-122.556 -54.470  0.00  0.00     0.064 A 
ATOM      5  C   UNL d   1     -42.087-121.928 -54.008  0.00  0.00     0.007 A 
ATOM      6  C   UNL d   1     -42.012-121.936 -53.185  0.00  0.00     0.030 A 
ATOM      7  O   UNL d   1     -41.123-123.815 -54.544  0.00  0.00    -0.259 OA
ATOM      8  C   UNL d   1     -42.461-121.290 -54.383  0.00  0.00     0.000 A 
ATOM      9  C   UNL d   1     -41.868-122.543 -55.286  0.00  0.00     0.005 A 
ATOM     10  C   UNL d   1     -42.533-121.287 -55.205  0.00  0.00     0.000 A 
ATOM     11  C   UNL d   1     -42.238-121.910 -55.653  0.00  0.00     0.000 A 
ENDROOT
BRANCH   3  12
ATOM     12  C   UNL d   1     -41.557-122.594 -51.995  0.00  0.00     0.302 C 
ATOM     13  N   UNL d   1     -41.904-123.195 -51.556  0.00  0.00    -0.206 NA
ATOM     14  O   UNL d   1     -41.127-122.003 -51.618  0.00  0.00    -0.263 OA
BRANCH  13  15
ATOM     15  C   UNL d   1     -41.819-123.205 -50.740  0.00  0.00     0.085 A 
ATOM     16  C   UNL d   1     -41.210-123.622 -50.388  0.00  0.00     0.019 A 
ATOM     17  C   UNL d   1     -41.123-123.634 -49.579  0.00  0.00     0.002 A 
ATOM     18  C   UNL d   1     -41.658-123.218 -49.098  0.00  0.00     0.000 A 
ATOM     19  C   UNL d   1     -42.272-122.796 -49.448  0.00  0.00     0.002 A 
ATOM     20  C   UNL d   1     -41.573-123.228 -48.285  0.00  0.00     0.000 C 
ATOM     21  C   UNL d   1     -42.360-122.785 -50.275  0.00  0.00     0.019 A 
ENDBRANCH  13  15
ENDBRANCH   3  12
TORSDOF 2
ENDMDL
MODEL 2
REMARK VINA RESULT:      -5.9      0.962      4.689
REMARK  2 active torsions:
REMARK  status: ('A' for Active; 'I' for Inactive)
REMARK    1  A    between atoms: C_3  and  C_4 
REMARK       I    between atoms: N_7  and  C_3 
REMARK    2  A    between atoms: C_11  and  N_7 
ROOT
ATOM      1  C   UNL d   1     -42.758-122.287 -50.365  0.00  0.00     0.300 A 
ATOM      2  O   UNL d   1     -42.580-122.113 -51.159  0.00  0.00    -0.268 OA
ATOM      3  C   UNL d   1     -41.910-122.457 -51.516  0.00  0.00     0.161 A 
ATOM      4  C   UNL d   1     -42.275-122.798 -49.928  0.00  0.00     0.064 A 
ATOM      5  C   UNL d   1     -41.607-123.138 -50.293  0.00  0.00     0.007 A 
ATOM      6  C   UNL d   1     -41.423-122.970 -51.081  0.00  0.00     0.030 A 
ATOM      7  O   UNL d   1     -43.419-121.948 -50.012  0.00  0.00    -0.259 OA
ATOM      8  C   UNL d   1     -41.123-123.650 -49.856  0.00  0.00     0.000 A 
ATOM      9  C   UNL d   1     -42.453-122.968 -49.146  0.00  0.00     0.005 A 
ATOM     10  C   UNL d   1     -41.311-123.815 -49.069  0.00  0.00     0.000 A 
ATOM     11  C   UNL d   1     -41.971-123.475 -48.717  0.00  0.00     0.000 A 
ENDROOT
BRANCH   3  12
ATOM     12  C   UNL d   1     -41.736-122.283 -52.300  0.00  0.00     0.302 C 
ATOM     13  N   UNL d   1     -42.161-122.637 -52.908  0.00  0.00    -0.206 NA
ATOM     14  O   UNL d   1     -41.133-121.752 -52.473  0.00  0.00    -0.263 OA
BRANCH  13  15
ATOM     15  C   UNL d   1     -41.981-122.458 -53.688  0.00  0.00     0.085 A 
ATOM     16  C   UNL d   1     -41.347-122.814 -54.064  0.00  0.00     0.019 A 
ATOM     17  C   UNL d   1     -41.166-122.638 -54.837  0.00  0.00     0.002 A 
ATOM     18  C   UNL d   1     -41.628-122.090 -55.258  0.00  0.00     0.000 A 
ATOM     19  C   UNL d   1     -42.266-121.729 -54.884  0.00  0.00     0.002 A 
ATOM     20  C   UNL d   1     -41.448-121.912 -56.035  0.00  0.00     0.000 C 
ATOM     21  C   UNL d   1     -42.450-121.909 -54.094  0.00  0.00     0.019 A 
ENDBRANCH  13  15
ENDBRANCH   3  12
TORSDOF 2
ENDMDL
MODEL 3
REMARK VINA RESULT:      -3.2      1.355      2.174
REMARK  2 active torsions:
REMARK  status: ('A' for Active; 'I' for Inactive)
REMARK    1  A    between atoms: C_3  and  C_4 
REMARK       I    between atoms: N_7  and  C_3 
REMARK    2  A    between atoms: C_11  and  N_7 
ROOT
ATOM      1  C   UNL d   1     -42.095-121.885 -52.121  0.00  0.00     0.300 A 
ATOM      2  O   UNL d   1     -42.060-122.152 -51.334  0.00  0.00    -0.268 OA
ATOM      3  C   UNL d   1     -41.709-122.889 -51.163  0.00  0.00     0.161 A 
ATOM      4  C   UNL d   1     -41.784-122.345 -52.735  0.00  0.00     0.064 A 
ATOM      5  C   UNL d   1     -41.435-123.081 -52.557  0.00  0.00     0.007 A 
ATOM      6  C   UNL d   1     -41.396-123.353 -51.777  0.00  0.00     0.030 A 
ATOM      7  O   UNL d   1     -42.441-121.159 -52.290  0.00  0.00    -0.259 OA
ATOM      8  C   UNL d   1     -41.123-123.542 -53.171  0.00  0.00     0.000 A 
ATOM      9  C   UNL d   1     -41.820-122.080 -53.510  0.00  0.00     0.005 A 
ATOM     10  C   UNL d   1     -41.165-123.266 -53.948  0.00  0.00     0.000 A 
ATOM     11  C   UNL d   1     -41.511-122.539 -54.116  0.00  0.00     0.000 A 
ENDROOT
BRANCH   3  12
ATOM     12  C   UNL d   1     -41.675-123.150 -50.385  0.00  0.00     0.302 C 
ATOM     13  N   UNL d   1     -42.081-122.749 -49.795  0.00  0.00    -0.206 NA
ATOM     14  O   UNL d   1     -41.232-123.817 -50.202  0.00  0.00    -0.263 OA
BRANCH  13  15
ATOM     15  C   UNL d   1     -42.042-123.018 -49.020  0.00  0.00     0.085 A 
ATOM     16  C   UNL d   1     -42.594-123.549 -48.733  0.00  0.00     0.019 A 
ATOM     17  C   UNL d   1     -42.558-123.816 -47.965  0.00  0.00     0.002 A 
ATOM     18  C   UNL d   1     -41.954-123.550 -47.461  0.00  0.00     0.000 A 
ATOM     19  C   UNL d   1     -41.396-123.016 -47.745  0.00  0.00     0.002 A 
ATOM     20  C   UNL d   1     -41.916-123.817 -46.689  0.00  0.00     0.000 C 
ATOM     21  C   UNL d   1     -41.434-122.743 -48.530  0.00  0.00     0.019 A 
ENDBRANCH  13  15
ENDBRANCH   3  12
TORSDOF 2
ENDMDL
