MODEL 1
REMARK VINA RESULT:      -9.2      0.000      0.000
REMARK  6 active torsions:
REMARK  status: ('A' for Active; 'I' for Inactive)
REMARK    1  A    between atoms: S_3  and  N_1 
REMARK    2  A    between atoms: C_19  and  S_3 
REMARK    3  A    between atoms: S_4  and  N_8 
REMARK    4  A    between atoms: C_11  and  C_5 
REMARK    5  A    between atoms: C_12  and  C_6 
REMARK    6  A    between atoms: N_8  and  C_20 
ROOT
ATOM      1  N   UNL d   1      52.617  32.481  53.056  0.00  0.00    -0.152 N 
ATOM      2  N   UNL d   1      51.923  32.678  52.645  0.00  0.00    -0.155 NA
ATOM      3  C   UNL d   1      52.841  33.147  53.505  0.00  0.00     0.096 A 
ATOM      4  C   UNL d   1      51.718  33.455  52.837  0.00  0.00     0.104 A 
ATOM      5  C   UNL d   1      52.287  33.740  53.368  0.00  0.00     0.041 A 
ENDROOT
BRANCH   4   6
ATOM      6  C   UNL d   1      51.067  33.872  52.553  0.00  0.00     0.019 A 
ATOM      7  C   UNL d   1      50.437  34.059  53.065  0.00  0.00     0.003 A 
ATOM      8  C   UNL d   1      49.789  34.474  52.780  0.00  0.00     0.020 A 
ATOM      9  C   UNL d   1      49.756  34.708  51.986  0.00  0.00     0.093 A 
ATOM     10  C   UNL d   1      50.385  34.519  51.477  0.00  0.00     0.020 A 
ATOM     11  C   UNL d   1      51.041  34.100  51.764  0.00  0.00     0.003 A 
BRANCH   9  12
ATOM     12  N   UNL d   1      49.106  35.126  51.692  0.00  0.00    -0.162 NA
BRANCH  12  13
ATOM     13  S   UNL d   1      48.465  34.733  51.364  0.00  0.00     0.266 S 
ATOM     14  O   UNL d   1      48.096  35.012  52.054  0.00  0.00    -0.203 OA
ATOM     15  O   UNL d   1      47.684  34.457  51.318  0.00  0.00    -0.203 OA
ATOM     16  C   UNL d   1      48.808  34.443  50.672  0.00  0.00     0.165 C 
ENDBRANCH  12  13
ENDBRANCH   9  12
ENDBRANCH   4   6
BRANCH   1  17
ATOM     17  S   UNL d   1      53.009  31.754  53.020  0.00  0.00     0.287 S 
ATOM     18  O   UNL d   1      53.603  31.275  52.703  0.00  0.00    -0.198 OA
ATOM     19  O   UNL d   1      53.256  32.382  52.540  0.00  0.00    -0.198 OA
BRANCH  17  20
ATOM     20  C   UNL d   1      52.715  31.176  53.520  0.00  0.00     0.118 C 
ATOM     21  C   UNL d   1      52.797  30.375  53.315  0.00  0.00     0.014 C 
ENDBRANCH  17  20
ENDBRANCH   1  17
BRANCH   3  22
ATOM     22  C   UNL d   1      53.497  33.191  53.994  0.00  0.00     0.019 A 
ATOM     23  C   UNL d   1      53.407  33.062  54.804  0.00  0.00     0.004 A 
ATOM     24  C   UNL d   1      54.064  33.105  55.302  0.00  0.00     0.030 A 
ATOM     25  C   UNL d   1      54.798  33.275  54.986  0.00  0.00     0.140 A 
ATOM     26  C   UNL d   1      54.887  33.402  54.187  0.00  0.00     0.030 A 
ATOM     27  F   UNL d   1      55.461  33.318  55.490  0.00  0.00    -0.204 F 
ATOM     28  C   UNL d   1      54.241  33.362  53.685  0.00  0.00     0.004 A 
ENDBRANCH   3  22
TORSDOF 6
ENDMDL
MODEL 2
REMARK VINA RESULT:      -8.9      1.248      2.120
REMARK  6 active torsions:
REMARK  status: ('A' for Active; 'I' for Inactive)
REMARK    1  A    between atoms: S_3  and  N_1 
REMARK    2  A    between atoms: C_19  and  S_3 
REMARK    3  A    between atoms: S_4  and  N_8 
REMARK    4  A    between atoms: C_11  and  C_5 
REMARK    5  A    between atoms: C_12  and  C_6 
REMARK    6  A    between atoms: N_8  and  C_20 
ROOT
ATOM      1  N   UNL d   1      53.273  32.725  53.490  0.00  0.00    -0.152 N 
ATOM      2  N   UNL d   1      52.820  33.383  53.263  0.00  0.00    -0.155 NA
ATOM      3  C   UNL d   1      52.802  32.046  53.383  0.00  0.00     0.096 A 
ATOM      4  C   UNL d   1      52.077  33.116  53.020  0.00  0.00     0.104 A 
ATOM      5  C   UNL d   1      52.070  32.292  53.095  0.00  0.00     0.041 A 
ENDROOT
BRANCH   4   6
ATOM      6  C   UNL d   1      51.456  33.585  52.750  0.00  0.00     0.019 A 
ATOM      7  C   UNL d   1      50.767  33.668  53.212  0.00  0.00     0.003 A 
ATOM      8  C   UNL d   1      50.150  34.136  52.942  0.00  0.00     0.020 A 
ATOM      9  C   UNL d   1      50.205  34.527  52.214  0.00  0.00     0.093 A 
ATOM     10  C   UNL d   1      50.893  34.442  51.756  0.00  0.00     0.020 A 
ATOM     11  C   UNL d   1      51.519  33.970  52.027  0.00  0.00     0.003 A 
BRANCH   9  12
ATOM     12  N   UNL d   1      49.586  35.000  51.936  0.00  0.00    -0.162 NA
BRANCH  12  13
ATOM     13  S   UNL d   1      48.934  34.666  51.566  0.00  0.00     0.266 S 
ATOM     14  O   UNL d   1      48.559  34.931  52.259  0.00  0.00    -0.203 OA
ATOM     15  O   UNL d   1      48.140  34.444  51.479  0.00  0.00    -0.203 OA
ATOM     16  C   UNL d   1      49.283  34.394  50.870  0.00  0.00     0.165 C 
ENDBRANCH  12  13
ENDBRANCH   9  12
ENDBRANCH   4   6
BRANCH   1  17
ATOM     17  S   UNL d   1      54.051  32.748  53.769  0.00  0.00     0.287 S 
ATOM     18  O   UNL d   1      54.864  32.690  53.633  0.00  0.00    -0.198 OA
ATOM     19  O   UNL d   1      53.903  32.600  52.968  0.00  0.00    -0.198 OA
BRANCH  17  20
ATOM     20  C   UNL d   1      54.128  32.899  54.570  0.00  0.00     0.118 C 
ATOM     21  C   UNL d   1      54.778  33.336  54.846  0.00  0.00     0.014 C 
ENDBRANCH  17  20
ENDBRANCH   1  17
BRANCH   3  22
ATOM     22  C   UNL d   1      53.035  31.277  53.540  0.00  0.00     0.019 A 
ATOM     23  C   UNL d   1      53.279  30.794  52.918  0.00  0.00     0.004 A 
ATOM     24  C   UNL d   1      53.515  30.017  53.069  0.00  0.00     0.030 A 
ATOM     25  C   UNL d   1      53.504  29.735  53.836  0.00  0.00     0.140 A 
ATOM     26  C   UNL d   1      53.263  30.212  54.450  0.00  0.00     0.030 A 
ATOM     27  F   UNL d   1      53.743  28.950  53.987  0.00  0.00    -0.204 F 
ATOM     28  C   UNL d   1      53.027  30.984  54.310  0.00  0.00     0.004 A 
ENDBRANCH   3  22
TORSDOF 6
ENDMDL
MODEL 3
REMARK VINA RESULT:      -8.3      2.640      5.144
REMARK  6 active torsions:
REMARK  status: ('A' for Active; 'I' for Inactive)
REMARK    1  A    between atoms: S_3  and  N_1 
REMARK    2  A    between atoms: C_19  and  S_3 
REMARK    3  A    between atoms: S_4  and  N_8 
REMARK    4  A    between atoms: C_11  and  C_5 
REMARK    5  A    between atoms: C_12  and  C_6 
REMARK    6  A    between atoms: N_8  and  C_20 
ROOT
ATOM      1  N   UNL d   1      52.472  33.754  53.220  0.00  0.00    -0.152 N 
ATOM      2  N   UNL d   1      52.974  33.128  53.435  0.00  0.00    -0.155 NA
ATOM      3  C   UNL d   1      51.755  33.422  52.957  0.00  0.00     0.096 A 
ATOM      4  C   UNL d   1      52.572  32.418  53.308  0.00  0.00     0.104 A 
ATOM      5  C   UNL d   1      51.821  32.604  53.013  0.00  0.00     0.041 A 
ENDROOT
BRANCH   4   6
ATOM      6  C   UNL d   1      52.866  31.661  53.448  0.00  0.00     0.019 A 
ATOM      7  C   UNL d   1      52.581  31.016  53.004  0.00  0.00     0.003 A 
ATOM      8  C   UNL d   1      52.875  30.263  53.146  0.00  0.00     0.020 A 
ATOM      9  C   UNL d   1      53.452  30.139  53.727  0.00  0.00     0.093 A 
ATOM     10  C   UNL d   1      53.734  30.784  54.168  0.00  0.00     0.020 A 
ATOM     11  C   UNL d   1      53.438  31.546  54.026  0.00  0.00     0.003 A 
BRANCH   9  12
ATOM     12  N   UNL d   1      53.752  29.382  53.874  0.00  0.00    -0.162 NA
BRANCH  12  13
ATOM     13  S   UNL d   1      53.446  28.917  54.476  0.00  0.00     0.266 S 
ATOM     14  O   UNL d   1      53.112  28.515  53.830  0.00  0.00    -0.203 OA
ATOM     15  O   UNL d   1      53.008  28.296  54.810  0.00  0.00    -0.203 OA
ATOM     16  C   UNL d   1      53.764  29.298  55.135  0.00  0.00     0.165 C 
ENDBRANCH  12  13
ENDBRANCH   9  12
ENDBRANCH   4   6
BRANCH   1  17
ATOM     17  S   UNL d   1      52.660  34.559  53.262  0.00  0.00     0.287 S 
ATOM     18  O   UNL d   1      52.930  35.252  52.902  0.00  0.00    -0.198 OA
ATOM     19  O   UNL d   1      52.754  34.148  52.549  0.00  0.00    -0.198 OA
BRANCH  17  20
ATOM     20  C   UNL d   1      52.544  34.905  53.995  0.00  0.00     0.118 C 
ATOM     21  C   UNL d   1      53.034  35.531  54.236  0.00  0.00     0.014 C 
ENDBRANCH  17  20
ENDBRANCH   1  17
BRANCH   3  22
ATOM     22  C   UNL d   1      51.105  33.846  52.693  0.00  0.00     0.019 A 
ATOM     23  C   UNL d   1      50.520  34.066  53.231  0.00  0.00     0.004 A 
ATOM     24  C   UNL d   1      49.862  34.493  52.971  0.00  0.00     0.030 A 
ATOM     25  C   UNL d   1      49.798  34.692  52.181  0.00  0.00     0.140 A 
ATOM     26  C   UNL d   1      50.376  34.475  51.651  0.00  0.00     0.030 A 
ATOM     27  F   UNL d   1      49.134  35.123  51.920  0.00  0.00    -0.204 F 
ATOM     28  C   UNL d   1      51.031  34.051  51.898  0.00  0.00     0.004 A 
ENDBRANCH   3  22
TORSDOF 6
ENDMDL
MODEL 4
REMARK VINA RESULT:      -7.6      2.030      4.652
REMARK  6 active torsions:
REMARK  status: ('A' for Active; 'I' for Inactive)
REMARK    1  A    between atoms: S_3  and  N_1 
REMARK    2  A    between atoms: C_19  and  S_3 
REMARK    3  A    between atoms: S_4  and  N_8 
REMARK    4  A    between atoms: C_11  and  C_5 
REMARK    5  A    between atoms: C_12  and  C_6 
REMARK    6  A    between atoms: N_8  and  C_20 
ROOT
ATOM      1  N   UNL d   1      52.028  33.442  52.921  0.00  0.00    -0.152 N 
ATOM      2  N   UNL d   1      52.016  32.617  52.828  0.00  0.00    -0.155 NA
ATOM      3  C   UNL d   1      52.608  33.623  53.492  0.00  0.00     0.096 A 
ATOM      4  C   UNL d   1      52.581  32.290  53.335  0.00  0.00     0.104 A 
ATOM      5  C   UNL d   1      52.943  32.914  53.742  0.00  0.00     0.041 A 
ENDROOT
BRANCH   4   6
ATOM      6  C   UNL d   1      52.753  31.489  53.420  0.00  0.00     0.019 A 
ATOM      7  C   UNL d   1      53.519  31.250  53.644  0.00  0.00     0.003 A 
ATOM      8  C   UNL d   1      53.688  30.451  53.728  0.00  0.00     0.020 A 
ATOM      9  C   UNL d   1      53.103  29.881  53.592  0.00  0.00     0.093 A 
ATOM     10  C   UNL d   1      52.340  30.122  53.369  0.00  0.00     0.020 A 
ATOM     11  C   UNL d   1      52.167  30.930  53.283  0.00  0.00     0.003 A 
BRANCH   9  12
ATOM     12  N   UNL d   1      53.267  29.075  53.675  0.00  0.00    -0.162 NA
BRANCH  12  13
ATOM     13  S   UNL d   1      53.445  28.754  54.409  0.00  0.00     0.266 S 
ATOM     14  O   UNL d   1      52.617  28.703  54.452  0.00  0.00    -0.203 OA
ATOM     15  O   UNL d   1      53.289  28.417  55.151  0.00  0.00    -0.203 OA
ATOM     16  C   UNL d   1      54.269  28.794  54.391  0.00  0.00     0.165 C 
ENDBRANCH  12  13
ENDBRANCH   9  12
ENDBRANCH   4   6
BRANCH   1  17
ATOM     17  S   UNL d   1      51.548  33.980  52.515  0.00  0.00     0.287 S 
ATOM     18  O   UNL d   1      51.417  34.479  51.870  0.00  0.00    -0.198 OA
ATOM     19  O   UNL d   1      52.286  33.767  52.205  0.00  0.00    -0.198 OA
BRANCH  17  20
ATOM     20  C   UNL d   1      50.832  34.148  52.876  0.00  0.00     0.118 C 
ATOM     21  C   UNL d   1      50.178  34.361  52.412  0.00  0.00     0.014 C 
ENDBRANCH  17  20
ENDBRANCH   1  17
BRANCH   3  22
ATOM     22  C   UNL d   1      52.801  34.376  53.750  0.00  0.00     0.019 A 
ATOM     23  C   UNL d   1      52.460  34.665  54.443  0.00  0.00     0.004 A 
ATOM     24  C   UNL d   1      52.650  35.423  54.710  0.00  0.00     0.030 A 
ATOM     25  C   UNL d   1      53.175  35.880  54.282  0.00  0.00     0.140 A 
ATOM     26  C   UNL d   1      53.512  35.594  53.598  0.00  0.00     0.030 A 
ATOM     27  F   UNL d   1      53.367  36.645  54.552  0.00  0.00    -0.204 F 
ATOM     28  C   UNL d   1      53.329  34.844  53.326  0.00  0.00     0.004 A 
ENDBRANCH   3  22
TORSDOF 6
ENDMDL
MODEL 5
REMARK VINA RESULT:      -7.3      1.714      2.375
REMARK  6 active torsions:
REMARK  status: ('A' for Active; 'I' for Inactive)
REMARK    1  A    between atoms: S_3  and  N_1 
REMARK    2  A    between atoms: C_19  and  S_3 
REMARK    3  A    between atoms: S_4  and  N_8 
REMARK    4  A    between atoms: C_11  and  C_5 
REMARK    5  A    between atoms: C_12  and  C_6 
REMARK    6  A    between atoms: N_8  and  C_20 
ROOT
ATOM      1  N   UNL d   1      52.146  34.591  53.372  0.00  0.00    -0.152 N 
ATOM      2  N   UNL d   1      51.454  35.006  53.176  0.00  0.00    -0.155 NA
ATOM      3  C   UNL d   1      51.987  33.779  53.279  0.00  0.00     0.096 A 
ATOM      4  C   UNL d   1      50.873  34.459  52.964  0.00  0.00     0.104 A 
ATOM      5  C   UNL d   1      51.206  33.703  53.029  0.00  0.00     0.041 A 
ENDROOT
BRANCH   4   6
ATOM      6  C   UNL d   1      50.103  34.632  52.731  0.00  0.00     0.019 A 
ATOM      7  C   UNL d   1      49.577  34.993  53.267  0.00  0.00     0.003 A 
ATOM      8  C   UNL d   1      48.810  35.165  53.033  0.00  0.00     0.020 A 
ATOM      9  C   UNL d   1      48.553  34.983  52.267  0.00  0.00     0.093 A 
ATOM     10  C   UNL d   1      49.079  34.623  51.734  0.00  0.00     0.020 A 
ATOM     11  C   UNL d   1      49.856  34.448  51.969  0.00  0.00     0.003 A 
BRANCH   9  12
ATOM     12  N   UNL d   1      47.782  35.154  52.024  0.00  0.00    -0.162 NA
BRANCH  12  13
ATOM     13  S   UNL d   1      47.510  35.927  51.997  0.00  0.00     0.266 S 
ATOM     14  O   UNL d   1      47.607  35.804  51.181  0.00  0.00    -0.203 OA
ATOM     15  O   UNL d   1      47.280  36.641  51.642  0.00  0.00    -0.203 OA
ATOM     16  C   UNL d   1      47.404  36.075  52.802  0.00  0.00     0.165 C 
ENDBRANCH  12  13
ENDBRANCH   9  12
ENDBRANCH   4   6
BRANCH   1  17
ATOM     17  S   UNL d   1      52.860  34.931  53.614  0.00  0.00     0.287 S 
ATOM     18  O   UNL d   1      53.617  35.212  53.437  0.00  0.00    -0.198 OA
ATOM     19  O   UNL d   1      52.743  34.738  52.817  0.00  0.00    -0.198 OA
BRANCH  17  20
ATOM     20  C   UNL d   1      52.912  35.098  54.414  0.00  0.00     0.118 C 
ATOM     21  C   UNL d   1      53.299  35.788  54.666  0.00  0.00     0.014 C 
ENDBRANCH  17  20
ENDBRANCH   1  17
BRANCH   3  22
ATOM     22  C   UNL d   1      52.520  33.172  53.415  0.00  0.00     0.019 A 
ATOM     23  C   UNL d   1      52.883  32.802  52.773  0.00  0.00     0.004 A 
ATOM     24  C   UNL d   1      53.422  32.189  52.903  0.00  0.00     0.030 A 
ATOM     25  C   UNL d   1      53.589  31.956  53.669  0.00  0.00     0.140 A 
ATOM     26  C   UNL d   1      53.231  32.321  54.301  0.00  0.00     0.030 A 
ATOM     27  F   UNL d   1      54.133  31.337  53.798  0.00  0.00    -0.204 F 
ATOM     28  C   UNL d   1      52.695  32.930  54.183  0.00  0.00     0.004 A 
ENDBRANCH   3  22
TORSDOF 6
ENDMDL
