MODEL 1
REMARK VINA RESULT:       4.6      0.000      0.000
REMARK  7 active torsions:
REMARK  status: ('A' for Active; 'I' for Inactive)
REMARK    1  A    between atoms: C_8  and  C_1 
REMARK    2  A    between atoms: N_7  and  C_2 
REMARK    3  A    between atoms: C_10  and  C_4 
REMARK       I    between atoms: C_6  and  N_7 
REMARK       I    between atoms: N_9  and  C_6 
REMARK    4  A    between atoms: O_14  and  C_8 
REMARK    5  A    between atoms: C_13  and  N_9 
REMARK    6  A    between atoms: O_20  and  C_15 
REMARK    7  A    between atoms: C_23  and  O_20 
ROOT
ATOM      1  C   UNL d   1      55.905  -0.280  33.330  0.00  0.00     0.110 A 
ATOM      2  C   UNL d   1      56.279   0.336  32.844  0.00  0.00     0.098 A 
ATOM      3  S   UNL d   1      56.271  -0.314  34.033  0.00  0.00    -0.080 SA
ATOM      4  C   UNL d   1      56.890   0.261  34.051  0.00  0.00     0.031 A 
ATOM      5  C   UNL d   1      56.884   0.665  33.294  0.00  0.00     0.026 A 
ENDROOT
BRANCH   2   6
ATOM      6  N   UNL d   1      56.096   0.575  32.080  0.00  0.00    -0.190 NA
ATOM      7  C   UNL d   1      56.633   0.426  31.455  0.00  0.00     0.369 C 
ATOM      8  N   UNL d   1      57.329   0.053  31.585  0.00  0.00    -0.191 NA
ATOM      9  O   UNL d   1      56.428   0.679  30.676  0.00  0.00    -0.242 OA
BRANCH   8  10
ATOM     10  C   UNL d   1      57.843  -0.085  30.968  0.00  0.00     0.086 A 
ATOM     11  C   UNL d   1      58.119   0.539  30.526  0.00  0.00     0.021 A 
ATOM     12  C   UNL d   1      58.640   0.411  29.898  0.00  0.00     0.026 A 
ATOM     13  C   UNL d   1      58.881  -0.351  29.720  0.00  0.00     0.100 A 
ATOM     14  C   UNL d   1      58.605  -0.975  30.163  0.00  0.00     0.026 A 
ATOM     15  C   UNL d   1      58.084  -0.843  30.790  0.00  0.00     0.021 A 
BRANCH  13  16
ATOM     16  O   UNL d   1      59.396  -0.476  29.099  0.00  0.00    -0.305 OA
BRANCH  16  17
ATOM     17  C   UNL d   1      60.064  -0.941  29.210  0.00  0.00     0.123 C 
ATOM     18  C   UNL d   1      60.251  -1.532  28.651  0.00  0.00     0.029 C 
ENDBRANCH  16  17
ENDBRANCH  13  16
ENDBRANCH   8  10
ENDBRANCH   2   6
BRANCH   1  19
ATOM     19  C   UNL d   1      55.263  -0.767  33.108  0.00  0.00     0.303 C 
ATOM     20  O   UNL d   1      54.524  -0.441  33.012  0.00  0.00    -0.259 OA
BRANCH  19  21
ATOM     21  O   UNL d   1      55.433  -1.567  33.000  0.00  0.00    -0.295 OA
ATOM     22  C   UNL d   1      54.933  -2.175  33.261  0.00  0.00     0.185 C 
ENDBRANCH  19  21
ENDBRANCH   1  19
BRANCH   4  23
ATOM     23  C   UNL d   1      57.404   0.401  34.692  0.00  0.00     0.006 A 
ATOM     24  C   UNL d   1      58.227   0.464  34.583  0.00  0.00     0.001 A 
ATOM     25  C   UNL d   1      58.730   0.601  35.218  0.00  0.00     0.000 A 
ATOM     26  C   UNL d   1      58.414   0.680  35.991  0.00  0.00     0.000 A 
ATOM     27  C   UNL d   1      57.564   0.616  36.108  0.00  0.00     0.000 A 
ATOM     28  C   UNL d   1      57.088   0.480  35.465  0.00  0.00     0.001 A 
ENDBRANCH   4  23
TORSDOF 7
ENDMDL
MODEL 2
REMARK VINA RESULT:       6.7      6.896      9.049
REMARK  7 active torsions:
REMARK  status: ('A' for Active; 'I' for Inactive)
REMARK    1  A    between atoms: C_8  and  C_1 
REMARK    2  A    between atoms: N_7  and  C_2 
REMARK    3  A    between atoms: C_10  and  C_4 
REMARK       I    between atoms: C_6  and  N_7 
REMARK       I    between atoms: N_9  and  C_6 
REMARK    4  A    between atoms: O_14  and  C_8 
REMARK    5  A    between atoms: C_13  and  N_9 
REMARK    6  A    between atoms: O_20  and  C_15 
REMARK    7  A    between atoms: C_23  and  O_20 
ROOT
ATOM      1  C   UNL d   1      59.604  -8.970  29.632  0.00  0.00     0.110 A 
ATOM      2  C   UNL d   1      59.727  -8.398  28.990  0.00  0.00     0.098 A 
ATOM      3  S   UNL d   1      58.845  -9.200  29.633  0.00  0.00    -0.080 SA
ATOM      4  C   UNL d   1      58.436  -8.804  29.008  0.00  0.00     0.031 A 
ATOM      5  C   UNL d   1      59.005  -8.301  28.610  0.00  0.00     0.026 A 
ENDROOT
BRANCH   2   6
ATOM      6  N   UNL d   1      60.416  -8.007  28.770  0.00  0.00    -0.190 NA
ATOM      7  C   UNL d   1      60.414  -7.174  28.683  0.00  0.00     0.369 C 
ATOM      8  N   UNL d   1      59.750  -6.745  28.809  0.00  0.00    -0.191 NA
ATOM      9  O   UNL d   1      61.131  -6.789  28.457  0.00  0.00    -0.242 OA
BRANCH   8  10
ATOM     10  C   UNL d   1      59.762  -5.935  28.720  0.00  0.00     0.086 A 
ATOM     11  C   UNL d   1      59.066  -5.515  28.755  0.00  0.00     0.021 A 
ATOM     12  C   UNL d   1      59.065  -4.694  28.666  0.00  0.00     0.026 A 
ATOM     13  C   UNL d   1      59.772  -4.300  28.543  0.00  0.00     0.100 A 
ATOM     14  C   UNL d   1      60.468  -4.719  28.508  0.00  0.00     0.026 A 
ATOM     15  C   UNL d   1      60.465  -5.540  28.597  0.00  0.00     0.021 A 
BRANCH  13  16
ATOM     16  O   UNL d   1      59.770  -3.488  28.456  0.00  0.00    -0.305 OA
BRANCH  16  17
ATOM     17  C   UNL d   1      59.485  -3.012  29.063  0.00  0.00     0.123 C 
ATOM     18  C   UNL d   1      59.775  -2.234  29.146  0.00  0.00     0.029 C 
ENDBRANCH  16  17
ENDBRANCH  13  16
ENDBRANCH   8  10
ENDBRANCH   2   6
BRANCH   1  19
ATOM     19  C   UNL d   1      60.181  -9.244  30.172  0.00  0.00     0.303 C 
ATOM     20  O   UNL d   1      60.863  -9.588  29.893  0.00  0.00    -0.259 OA
BRANCH  19  21
ATOM     21  O   UNL d   1      60.008  -9.141  30.973  0.00  0.00    -0.295 OA
ATOM     22  C   UNL d   1      60.403  -9.551  31.576  0.00  0.00     0.185 C 
ENDBRANCH  19  21
ENDBRANCH   1  19
BRANCH   4  23
ATOM     23  C   UNL d   1      57.628  -8.895  28.824  0.00  0.00     0.006 A 
ATOM     24  C   UNL d   1      57.149  -8.240  28.637  0.00  0.00     0.001 A 
ATOM     25  C   UNL d   1      56.352  -8.334  28.455  0.00  0.00     0.000 A 
ATOM     26  C   UNL d   1      56.012  -9.101  28.457  0.00  0.00     0.000 A 
ATOM     27  C   UNL d   1      56.504  -9.780  28.650  0.00  0.00     0.000 A 
ATOM     28  C   UNL d   1      57.288  -9.662  28.825  0.00  0.00     0.001 A 
ENDBRANCH   4  23
TORSDOF 7
ENDMDL
MODEL 3
REMARK VINA RESULT:       7.6      1.813      2.882
REMARK  7 active torsions:
REMARK  status: ('A' for Active; 'I' for Inactive)
REMARK    1  A    between atoms: C_8  and  C_1 
REMARK    2  A    between atoms: N_7  and  C_2 
REMARK    3  A    between atoms: C_10  and  C_4 
REMARK       I    between atoms: C_6  and  N_7 
REMARK       I    between atoms: N_9  and  C_6 
REMARK    4  A    between atoms: O_14  and  C_8 
REMARK    5  A    between atoms: C_13  and  N_9 
REMARK    6  A    between atoms: O_20  and  C_15 
REMARK    7  A    between atoms: C_23  and  O_20 
ROOT
ATOM      1  C   UNL d   1      57.802   0.587  34.737  0.00  0.00     0.110 A 
ATOM      2  C   UNL d   1      57.910   0.629  33.876  0.00  0.00     0.098 A 
ATOM      3  S   UNL d   1      57.026   0.541  34.900  0.00  0.00    -0.080 SA
ATOM      4  C   UNL d   1      56.592   0.549  34.175  0.00  0.00     0.031 A 
ATOM      5  C   UNL d   1      57.161   0.605  33.537  0.00  0.00     0.026 A 
ENDROOT
BRANCH   2   6
ATOM      6  N   UNL d   1      58.606   0.682  33.444  0.00  0.00    -0.190 NA
ATOM      7  C   UNL d   1      58.609   0.490  32.629  0.00  0.00     0.369 C 
ATOM      8  N   UNL d   1      57.941   0.253  32.256  0.00  0.00    -0.191 NA
ATOM      9  O   UNL d   1      59.334   0.550  32.200  0.00  0.00    -0.242 OA
BRANCH   8  10
ATOM     10  C   UNL d   1      57.957   0.069  31.462  0.00  0.00     0.086 A 
ATOM     11  C   UNL d   1      57.815  -0.695  31.223  0.00  0.00     0.021 A 
ATOM     12  C   UNL d   1      57.828  -0.894  30.421  0.00  0.00     0.026 A 
ATOM     13  C   UNL d   1      57.986  -0.316  29.864  0.00  0.00     0.100 A 
ATOM     14  C   UNL d   1      58.129   0.448  30.103  0.00  0.00     0.026 A 
ATOM     15  C   UNL d   1      58.114   0.643  30.905  0.00  0.00     0.021 A 
BRANCH  13  16
ATOM     16  O   UNL d   1      57.999  -0.513  29.071  0.00  0.00    -0.305 OA
BRANCH  16  17
ATOM     17  C   UNL d   1      58.335  -1.225  28.833  0.00  0.00     0.123 C 
ATOM     18  C   UNL d   1      59.101  -1.227  28.502  0.00  0.00     0.029 C 
ENDBRANCH  16  17
ENDBRANCH  13  16
ENDBRANCH   8  10
ENDBRANCH   2   6
BRANCH   1  19
ATOM     19  C   UNL d   1      58.406   0.594  35.315  0.00  0.00     0.303 C 
ATOM     20  O   UNL d   1      58.212   0.682  36.100  0.00  0.00    -0.259 OA
BRANCH  19  21
ATOM     21  O   UNL d   1      59.177   0.508  35.036  0.00  0.00    -0.295 OA
ATOM     22  C   UNL d   1      59.847   0.645  35.507  0.00  0.00     0.185 C 
ENDBRANCH  19  21
ENDBRANCH   1  19
BRANCH   4  23
ATOM     23  C   UNL d   1      55.761   0.510  34.108  0.00  0.00     0.006 A 
ATOM     24  C   UNL d   1      55.265   0.671  34.757  0.00  0.00     0.001 A 
ATOM     25  C   UNL d   1      54.447   0.631  34.686  0.00  0.00     0.000 A 
ATOM     26  C   UNL d   1      54.102   0.425  33.950  0.00  0.00     0.000 A 
ATOM     27  C   UNL d   1      54.612   0.258  33.277  0.00  0.00     0.000 A 
ATOM     28  C   UNL d   1      55.416   0.304  33.372  0.00  0.00     0.001 A 
ENDBRANCH   4  23
TORSDOF 7
ENDMDL
