MODEL 1
REMARK VINA RESULT:      35.5      0.000      0.000
REMARK  5 active torsions:
REMARK  status: ('A' for Active; 'I' for Inactive)
REMARK    1  A    between atoms: O_8  and  C_7 
REMARK    2  A    between atoms: C_10  and  O_8 
REMARK    3  A    between atoms: C_9  and  C_10 
REMARK    4  A    between atoms: O_17  and  C_9 
REMARK    5  A    between atoms: C_21  and  O_17 
ROOT
ATOM      1  C   UNL d   1      13.874  13.426  -2.710  0.00  0.00     0.009 A 
ATOM      2  C   UNL d   1      14.148  13.012  -2.058  0.00  0.00     0.046 A 
ATOM      3  C   UNL d   1      13.554  13.016  -3.353  0.00  0.00     0.064 A 
ATOM      4  C   UNL d   1      13.512  12.200  -3.336  0.00  0.00     0.300 A 
ATOM      5  C   UNL d   1      14.107  12.196  -2.041  0.00  0.00     0.105 A 
ATOM      6  O   UNL d   1      13.790  11.787  -2.676  0.00  0.00    -0.273 OA
ATOM      7  C   UNL d   1      14.467  13.430  -1.419  0.00  0.00     0.102 A 
ATOM      8  C   UNL d   1      14.388  11.783  -1.374  0.00  0.00     0.025 A 
ATOM      9  C   UNL d   1      14.745  13.008  -0.759  0.00  0.00     0.025 A 
ATOM     10  O   UNL d   1      13.188  11.782  -3.986  0.00  0.00    -0.259 OA
ATOM     11  C   UNL d   1      14.703  12.193  -0.742  0.00  0.00     0.004 A 
ATOM     12  C   UNL d   1      13.916  14.249  -2.726  0.00  0.00     0.000 A 
ATOM     13  C   UNL d   1      13.277  13.429  -4.009  0.00  0.00     0.005 A 
ATOM     14  C   UNL d   1      14.983  11.779  -0.079  0.00  0.00     0.000 C 
ATOM     15  C   UNL d   1      13.641  14.676  -3.383  0.00  0.00     0.000 A 
ATOM     16  C   UNL d   1      13.320  14.253  -4.026  0.00  0.00     0.000 A 
ENDROOT
BRANCH   7  17
ATOM     17  O   UNL d   1      14.509  14.245  -1.436  0.00  0.00    -0.302 OA
BRANCH  17  18
ATOM     18  C   UNL d   1      14.638  14.667  -0.736  0.00  0.00     0.163 C 
ATOM     19  C   UNL d   1      14.334  14.375  -0.017  0.00  0.00     0.032 C 
BRANCH  18  20
ATOM     20  C   UNL d   1      15.066  15.371  -0.752  0.00  0.00     0.323 C 
ATOM     21  O   UNL d   1      15.814  15.403  -0.425  0.00  0.00    -0.257 OA
BRANCH  20  22
ATOM     22  O   UNL d   1      14.725  16.037  -1.102  0.00  0.00    -0.270 OA
BRANCH  22  23
ATOM     23  C   UNL d   1      15.094  16.780  -1.013  0.00  0.00     0.126 C 
ATOM     24  C   UNL d   1      15.515  17.099  -1.630  0.00  0.00     0.029 C 
ENDBRANCH  22  23
ENDBRANCH  20  22
ENDBRANCH  18  20
ENDBRANCH  17  18
ENDBRANCH   7  17
TORSDOF 5
ENDMDL
MODEL 2
REMARK VINA RESULT:      37.6      1.275      2.836
REMARK  5 active torsions:
REMARK  status: ('A' for Active; 'I' for Inactive)
REMARK    1  A    between atoms: O_8  and  C_7 
REMARK    2  A    between atoms: C_10  and  O_8 
REMARK    3  A    between atoms: C_9  and  C_10 
REMARK    4  A    between atoms: O_17  and  C_9 
REMARK    5  A    between atoms: C_21  and  O_17 
ROOT
ATOM      1  C   UNL d   1      14.454  13.380  -1.522  0.00  0.00     0.009 A 
ATOM      2  C   UNL d   1      14.123  12.979  -2.154  0.00  0.00     0.046 A 
ATOM      3  C   UNL d   1      14.604  12.982  -0.813  0.00  0.00     0.064 A 
ATOM      4  C   UNL d   1      14.421  12.188  -0.745  0.00  0.00     0.300 A 
ATOM      5  C   UNL d   1      13.940  12.185  -2.086  0.00  0.00     0.105 A 
ATOM      6  O   UNL d   1      14.087  11.787  -1.386  0.00  0.00    -0.273 OA
ATOM      7  C   UNL d   1      13.976  13.385  -2.859  0.00  0.00     0.102 A 
ATOM      8  C   UNL d   1      13.603  11.783  -2.735  0.00  0.00     0.025 A 
ATOM      9  C   UNL d   1      13.640  12.975  -3.499  0.00  0.00     0.025 A 
ATOM     10  O   UNL d   1      14.572  11.781  -0.028  0.00  0.00    -0.259 OA
ATOM     11  C   UNL d   1      13.457  12.182  -3.431  0.00  0.00     0.004 A 
ATOM     12  C   UNL d   1      14.639  14.181  -1.590  0.00  0.00     0.000 A 
ATOM     13  C   UNL d   1      14.938  13.383  -0.176  0.00  0.00     0.005 A 
ATOM     14  C   UNL d   1      13.121  11.780  -4.076  0.00  0.00     0.000 C 
ATOM     15  C   UNL d   1      14.975  14.596  -0.954  0.00  0.00     0.000 A 
ATOM     16  C   UNL d   1      15.122  14.184  -0.244  0.00  0.00     0.000 A 
ENDROOT
BRANCH   7  17
ATOM     17  O   UNL d   1      14.159  14.178  -2.926  0.00  0.00    -0.302 OA
BRANCH  17  18
ATOM     18  C   UNL d   1      13.909  14.605  -3.590  0.00  0.00     0.163 C 
ATOM     19  C   UNL d   1      13.239  14.350  -4.015  0.00  0.00     0.032 C 
BRANCH  18  20
ATOM     20  C   UNL d   1      14.322  15.277  -3.827  0.00  0.00     0.323 C 
ATOM     21  O   UNL d   1      14.561  15.358  -4.603  0.00  0.00    -0.257 OA
BRANCH  20  22
ATOM     22  O   UNL d   1      14.486  15.863  -3.268  0.00  0.00    -0.270 OA
BRANCH  22  23
ATOM     23  C   UNL d   1      14.884  16.556  -3.506  0.00  0.00     0.126 C 
ATOM     24  C   UNL d   1      14.931  17.190  -3.000  0.00  0.00     0.029 C 
ENDBRANCH  22  23
ENDBRANCH  20  22
ENDBRANCH  18  20
ENDBRANCH  17  18
ENDBRANCH   7  17
TORSDOF 5
ENDMDL
