MODEL 1
REMARK VINA RESULT:      17.9      0.000      0.000
REMARK  3 active torsions:
REMARK  status: ('A' for Active; 'I' for Inactive)
REMARK    1  A    between atoms: N_2  and  S_1 
REMARK    2  A    between atoms: C_3  and  S_1 
REMARK    3  A    between atoms: C_11  and  C_6 
ROOT
ATOM      1  C   UNL d   1     -54.828-102.091 -38.643  0.00  0.00     0.104 A 
ATOM      2  C   UNL d   1     -54.775-102.134 -40.302  0.00  0.00     0.000 A 
ATOM      3  C   UNL d   1     -54.775-101.391 -39.075  0.00  0.00     0.013 A 
ATOM      4  C   UNL d   1     -54.855-102.813 -39.041  0.00  0.00     0.013 A 
ATOM      5  C   UNL d   1     -54.828-102.834 -39.867  0.00  0.00     0.001 A 
ATOM      6  C   UNL d   1     -54.749-101.413 -39.901  0.00  0.00     0.001 A 
ENDROOT
BRANCH   1   7
ATOM      7  S   UNL d   1     -54.855-102.070 -37.821  0.00  0.00     0.271 S 
ATOM      8  O   UNL d   1     -54.995-102.880 -37.804  0.00  0.00    -0.200 OA
ATOM      9  O   UNL d   1     -54.713-101.249 -37.837  0.00  0.00    -0.200 OA
BRANCH   7  10
ATOM     10  N   UNL d   1     -54.882-102.049 -36.997  0.00  0.00    -0.229 N 
ATOM     11  C   UNL d   1     -54.715-101.361 -36.605  0.00  0.00     0.092 A 
ATOM     12  C   UNL d   1     -54.742-101.339 -35.762  0.00  0.00     0.020 A 
ATOM     13  C   UNL d   1     -54.935-102.006 -35.341  0.00  0.00     0.003 A 
ATOM     14  C   UNL d   1     -55.105-102.706 -35.749  0.00  0.00     0.020 A 
ATOM     15  C   UNL d   1     -55.079-102.727 -36.552  0.00  0.00     0.092 A 
ENDBRANCH   7  10
ENDBRANCH   1   7
BRANCH   2  16
ATOM     16  C   UNL d   1     -54.749-102.155 -41.121  0.00  0.00     0.000 C 
ATOM     17  C   UNL d   1     -54.756-101.454 -41.549  0.00  0.00     0.000 C 
ATOM     18  C   UNL d   1     -54.715-102.878 -41.519  0.00  0.00     0.000 C 
ENDBRANCH   2  16
TORSDOF 3
ENDMDL
