MODEL 1
REMARK VINA RESULT:      42.1      0.000      0.000
REMARK  9 active torsions:
REMARK  status: ('A' for Active; 'I' for Inactive)
REMARK    1  A    between atoms: S_10  and  C_3 
REMARK    2  A    between atoms: C_17  and  N_5 
REMARK    3  A    between atoms: C_12  and  S_10 
REMARK    4  A    between atoms: C_11  and  C_12 
REMARK       I    between atoms: N_13  and  C_11 
REMARK    5  A    between atoms: C_26  and  C_12 
REMARK    6  A    between atoms: C_23  and  N_13 
REMARK    7  A    between atoms: C_15  and  C_23 
REMARK    8  A    between atoms: C_22  and  C_17 
REMARK    9  A    between atoms: C_30  and  C_26 
ROOT
ATOM      1  C   UNL d   1      46.304 -18.172  43.735  0.00  0.00     0.081 A 
ATOM      2  C   UNL d   1      46.490 -17.962  44.513  0.00  0.00     0.117 A 
ATOM      3  C   UNL d   1      46.466 -16.580  44.141  0.00  0.00     0.182 A 
ATOM      4  N   UNL d   1      46.570 -17.173  44.715  0.00  0.00    -0.215 NA
ATOM      5  N   UNL d   1      46.280 -16.794  43.364  0.00  0.00    -0.253 N 
ATOM      6  C   UNL d   1      46.199 -17.592  43.160  0.00  0.00     0.268 A 
ATOM      7  S   UNL d   1      46.560 -18.652  44.953  0.00  0.00    -0.068 SA
ATOM      8  C   UNL d   1      46.259 -18.994  43.694  0.00  0.00     0.013 A 
ATOM      9  C   UNL d   1      46.419 -19.288  44.451  0.00  0.00     0.031 A 
ATOM     10  O   UNL d   1      46.013 -17.801  42.383  0.00  0.00    -0.267 OA
ATOM     11  C   UNL d   1      46.119 -19.635  43.199  0.00  0.00     0.001 A 
ATOM     12  C   UNL d   1      46.375 -20.111  44.417  0.00  0.00     0.006 A 
ATOM     13  C   UNL d   1      46.189 -20.329  43.640  0.00  0.00     0.001 A 
ENDROOT
BRANCH   3  14
ATOM     14  S   UNL d   1      46.547 -15.791  44.347  0.00  0.00    -0.045 SA
BRANCH  14  15
ATOM     15  C   UNL d   1      45.897 -15.362  44.611  0.00  0.00     0.093 C 
BRANCH  15  16
ATOM     16  C   UNL d   1      45.918 -14.531  44.614  0.00  0.00     0.285 C 
ATOM     17  N   UNL d   1      45.302 -14.101  44.279  0.00  0.00    -0.204 NA
ATOM     18  O   UNL d   1      46.559 -14.143  44.954  0.00  0.00    -0.265 OA
BRANCH  17  19
ATOM     19  C   UNL d   1      45.321 -13.281  44.281  0.00  0.00     0.127 C 
BRANCH  19  20
ATOM     20  C   UNL d   1      45.199 -12.861  43.584  0.00  0.00     0.119 A 
ATOM     21  O   UNL d   1      45.777 -12.585  43.077  0.00  0.00    -0.304 OA
ATOM     22  C   UNL d   1      45.411 -12.198  42.452  0.00  0.00     0.123 A 
ATOM     23  C   UNL d   1      44.594 -12.234  42.572  0.00  0.00     0.029 A 
ATOM     24  C   UNL d   1      44.454 -12.644  43.273  0.00  0.00     0.028 A 
ENDBRANCH  19  20
ENDBRANCH  17  19
ENDBRANCH  15  16
BRANCH  15  25
ATOM     25  C   UNL d   1      45.221 -15.751  44.875  0.00  0.00     0.057 C 
BRANCH  25  26
ATOM     26  C   UNL d   1      44.481 -15.490  44.616  0.00  0.00     0.235 C 
ATOM     27  O   UNL d   1      43.795 -15.811  44.951  0.00  0.00    -0.283 OA
ENDBRANCH  25  26
ENDBRANCH  15  25
ENDBRANCH  14  15
ENDBRANCH   3  14
BRANCH   5  28
ATOM     28  C   UNL d   1      46.176 -16.210  42.793  0.00  0.00     0.085 C 
BRANCH  28  29
ATOM     29  C   UNL d   1      46.454 -16.327  42.023  0.00  0.00     0.019 C 
ATOM     30  C   UNL d   1      45.918 -16.420  41.401  0.00  0.00     0.002 C 
ENDBRANCH  28  29
ENDBRANCH   5  28
TORSDOF 9
ENDMDL
