MODEL 1
REMARK VINA RESULT:      -3.8      0.000      0.000
REMARK  6 active torsions:
REMARK  status: ('A' for Active; 'I' for Inactive)
REMARK    1  A    between atoms: C_14  and  N_1 
REMARK    2  A    between atoms: S_12  and  C_3 
REMARK    3  A    between atoms: C_4  and  N_11 
REMARK    4  A    between atoms: C_15  and  C_8 
REMARK       I    between atoms: N_11  and  C_13 
REMARK    5  A    between atoms: C_17  and  S_12 
REMARK    6  A    between atoms: C_13  and  C_17 
ROOT
ATOM      1  N   UNL d   1      33.035  19.018 -22.234  0.00  0.00    -0.018 NA
ATOM      2  C   UNL d   1      33.082  18.707 -22.998  0.00  0.00     0.302 C 
ATOM      3  O   UNL d   1      33.121  19.200 -23.642  0.00  0.00    -0.264 OA
ENDROOT
BRANCH   2   4
ATOM      4  C   UNL d   1      33.088  17.893 -23.105  0.00  0.00     0.101 C 
BRANCH   4   5
ATOM      5  S   UNL d   1      32.501  17.528 -23.554  0.00  0.00    -0.041 SA
BRANCH   5   6
ATOM      6  C   UNL d   1      32.583  16.744 -23.784  0.00  0.00     0.219 A 
ATOM      7  N   UNL d   1      31.937  16.338 -24.122  0.00  0.00    -0.186 N 
ATOM      8  N   UNL d   1      32.175  15.577 -24.294  0.00  0.00    -0.038 NA
ATOM      9  N   UNL d   1      32.961  15.499 -24.069  0.00  0.00    -0.022 NA
ATOM     10  N   UNL d   1      33.217  16.221 -23.752  0.00  0.00    -0.101 NA
BRANCH   7  11
ATOM     11  C   UNL d   1      31.175  16.628 -24.270  0.00  0.00     0.087 A 
ATOM     12  C   UNL d   1      31.020  17.059 -24.952  0.00  0.00     0.019 A 
ATOM     13  C   UNL d   1      30.259  17.347 -25.097  0.00  0.00     0.002 A 
ATOM     14  C   UNL d   1      29.654  17.202 -24.556  0.00  0.00     0.000 A 
ATOM     15  C   UNL d   1      29.813  16.764 -23.865  0.00  0.00     0.002 A 
ATOM     16  C   UNL d   1      30.579  16.480 -23.730  0.00  0.00     0.019 A 
ENDBRANCH   7  11
ENDBRANCH   5   6
ENDBRANCH   4   5
ENDBRANCH   2   4
BRANCH   1  17
ATOM     17  C   UNL d   1      33.029  19.843 -22.120  0.00  0.00     0.760 A 
ATOM     18  N   UNL d   1      32.829  20.249 -21.421  0.00  0.00    -0.051 NA
ATOM     19  C   UNL d   1      32.902  21.055 -21.570  0.00  0.00     0.147 A 
ATOM     20  S   UNL d   1      33.143  21.148 -22.344  0.00  0.00     0.052 SA
ATOM     21  N   UNL d   1      33.219  20.400 -22.677  0.00  0.00    -0.019 NA
BRANCH  19  22
ATOM     22  C   UNL d   1      32.777  21.719 -21.086  0.00  0.00     0.026 A 
ATOM     23  C   UNL d   1      32.320  22.351 -21.358  0.00  0.00     0.002 A 
ATOM     24  C   UNL d   1      32.199  23.008 -20.873  0.00  0.00     0.000 A 
ATOM     25  C   UNL d   1      32.526  23.033 -20.133  0.00  0.00     0.000 A 
ATOM     26  C   UNL d   1      32.989  22.402 -19.848  0.00  0.00     0.000 A 
ATOM     27  C   UNL d   1      33.111  21.744 -20.334  0.00  0.00     0.002 A 
ENDBRANCH  19  22
ENDBRANCH   1  17
TORSDOF 6
ENDMDL
MODEL 2
REMARK VINA RESULT:      -1.4      1.453      6.045
REMARK  6 active torsions:
REMARK  status: ('A' for Active; 'I' for Inactive)
REMARK    1  A    between atoms: C_14  and  N_1 
REMARK    2  A    between atoms: S_12  and  C_3 
REMARK    3  A    between atoms: C_4  and  N_11 
REMARK    4  A    between atoms: C_15  and  C_8 
REMARK       I    between atoms: N_11  and  C_13 
REMARK    5  A    between atoms: C_17  and  S_12 
REMARK    6  A    between atoms: C_13  and  C_17 
ROOT
ATOM      1  N   UNL d   1      32.806  19.990 -23.305  0.00  0.00    -0.018 NA
ATOM      2  C   UNL d   1      33.094  20.331 -22.610  0.00  0.00     0.302 C 
ATOM      3  O   UNL d   1      33.232  19.874 -21.953  0.00  0.00    -0.264 OA
ENDROOT
BRANCH   2   4
ATOM      4  C   UNL d   1      33.241  21.138 -22.584  0.00  0.00     0.101 C 
BRANCH   4   5
ATOM      5  S   UNL d   1      32.800  21.625 -22.088  0.00  0.00    -0.041 SA
BRANCH   5   6
ATOM      6  C   UNL d   1      32.641  22.402 -22.304  0.00  0.00     0.219 A 
ATOM      7  N   UNL d   1      32.514  22.981 -21.717  0.00  0.00    -0.186 N 
ATOM      8  N   UNL d   1      32.370  23.694 -22.088  0.00  0.00    -0.038 NA
ATOM      9  N   UNL d   1      32.403  23.569 -22.899  0.00  0.00    -0.022 NA
ATOM     10  N   UNL d   1      32.571  22.769 -23.036  0.00  0.00    -0.101 NA
BRANCH   7  11
ATOM     11  C   UNL d   1      32.527  22.883 -20.894  0.00  0.00     0.087 A 
ATOM     12  C   UNL d   1      33.162  23.161 -20.452  0.00  0.00     0.019 A 
ATOM     13  C   UNL d   1      33.171  23.062 -19.632  0.00  0.00     0.002 A 
ATOM     14  C   UNL d   1      32.543  22.684 -19.256  0.00  0.00     0.000 A 
ATOM     15  C   UNL d   1      31.899  22.403 -19.705  0.00  0.00     0.002 A 
ATOM     16  C   UNL d   1      31.900  22.508 -20.527  0.00  0.00     0.019 A 
ENDBRANCH   7  11
ENDBRANCH   5   6
ENDBRANCH   4   5
ENDBRANCH   2   4
BRANCH   1  17
ATOM     17  C   UNL d   1      32.655  19.171 -23.336  0.00  0.00     0.760 A 
ATOM     18  N   UNL d   1      31.983  18.799 -23.656  0.00  0.00    -0.051 NA
ATOM     19  C   UNL d   1      32.079  17.986 -23.563  0.00  0.00     0.147 A 
ATOM     20  S   UNL d   1      32.795  17.857 -23.195  0.00  0.00     0.052 SA
ATOM     21  N   UNL d   1      33.145  18.588 -23.057  0.00  0.00    -0.019 NA
BRANCH  19  22
ATOM     22  C   UNL d   1      31.592  17.346 -23.774  0.00  0.00     0.026 A 
ATOM     23  C   UNL d   1      31.816  16.575 -23.582  0.00  0.00     0.002 A 
ATOM     24  C   UNL d   1      31.329  15.943 -23.794  0.00  0.00     0.000 A 
ATOM     25  C   UNL d   1      30.635  16.078 -24.189  0.00  0.00     0.000 A 
ATOM     26  C   UNL d   1      30.400  16.851 -24.387  0.00  0.00     0.000 A 
ATOM     27  C   UNL d   1      30.887  17.485 -24.176  0.00  0.00     0.002 A 
ENDBRANCH  19  22
ENDBRANCH   1  17
TORSDOF 6
ENDMDL
MODEL 3
REMARK VINA RESULT:      -1.4      1.378      5.926
REMARK  6 active torsions:
REMARK  status: ('A' for Active; 'I' for Inactive)
REMARK    1  A    between atoms: C_14  and  N_1 
REMARK    2  A    between atoms: S_12  and  C_3 
REMARK    3  A    between atoms: C_4  and  N_11 
REMARK    4  A    between atoms: C_15  and  C_8 
REMARK       I    between atoms: N_11  and  C_13 
REMARK    5  A    between atoms: C_17  and  S_12 
REMARK    6  A    between atoms: C_13  and  C_17 
ROOT
ATOM      1  N   UNL d   1      32.656  19.107 -21.995  0.00  0.00    -0.018 NA
ATOM      2  C   UNL d   1      33.041  19.832 -22.083  0.00  0.00     0.302 C 
ATOM      3  O   UNL d   1      33.241  20.107 -22.820  0.00  0.00    -0.264 OA
ENDROOT
BRANCH   2   4
ATOM      4  C   UNL d   1      33.224  20.278 -21.417  0.00  0.00     0.101 C 
BRANCH   4   5
ATOM      5  S   UNL d   1      33.138  21.097 -21.429  0.00  0.00    -0.041 SA
BRANCH   5   6
ATOM      6  C   UNL d   1      33.048  21.514 -20.728  0.00  0.00     0.219 A 
ATOM      7  N   UNL d   1      32.807  22.313 -20.745  0.00  0.00    -0.186 N 
ATOM      8  N   UNL d   1      32.765  22.583 -19.976  0.00  0.00    -0.038 NA
ATOM      9  N   UNL d   1      32.977  21.966 -19.477  0.00  0.00    -0.022 NA
ATOM     10  N   UNL d   1      33.153  21.302 -19.940  0.00  0.00    -0.101 NA
BRANCH   7  11
ATOM     11  C   UNL d   1      32.632  22.778 -21.408  0.00  0.00     0.087 A 
ATOM     12  C   UNL d   1      33.233  23.167 -21.812  0.00  0.00     0.019 A 
ATOM     13  C   UNL d   1      33.056  23.630 -22.473  0.00  0.00     0.002 A 
ATOM     14  C   UNL d   1      32.276  23.701 -22.728  0.00  0.00     0.000 A 
ATOM     15  C   UNL d   1      31.667  23.306 -22.318  0.00  0.00     0.002 A 
ATOM     16  C   UNL d   1      31.856  22.845 -21.656  0.00  0.00     0.019 A 
ENDBRANCH   7  11
ENDBRANCH   5   6
ENDBRANCH   4   5
ENDBRANCH   2   4
BRANCH   1  17
ATOM     17  C   UNL d   1      32.469  18.650 -22.666  0.00  0.00     0.760 A 
ATOM     18  N   UNL d   1      32.581  17.831 -22.760  0.00  0.00    -0.051 NA
ATOM     19  C   UNL d   1      32.315  17.627 -23.512  0.00  0.00     0.147 A 
ATOM     20  S   UNL d   1      32.044  18.304 -23.876  0.00  0.00     0.052 SA
ATOM     21  N   UNL d   1      32.141  18.930 -23.352  0.00  0.00    -0.019 NA
BRANCH  19  22
ATOM     22  C   UNL d   1      32.288  16.896 -23.908  0.00  0.00     0.026 A 
ATOM     23  C   UNL d   1      31.563  16.531 -24.056  0.00  0.00     0.002 A 
ATOM     24  C   UNL d   1      31.542  15.805 -24.450  0.00  0.00     0.000 A 
ATOM     25  C   UNL d   1      32.231  15.453 -24.690  0.00  0.00     0.000 A 
ATOM     26  C   UNL d   1      32.967  15.812 -24.546  0.00  0.00     0.000 A 
ATOM     27  C   UNL d   1      32.989  16.539 -24.152  0.00  0.00     0.002 A 
ENDBRANCH  19  22
ENDBRANCH   1  17
TORSDOF 6
ENDMDL
