MODEL 1
REMARK VINA RESULT:      -2.0      0.000      0.000
REMARK  7 active torsions:
REMARK  status: ('A' for Active; 'I' for Inactive)
REMARK    1  A    between atoms: C_3  and  S_1 
REMARK    2  A    between atoms: N_4  and  S_1 
REMARK    3  A    between atoms: C_2  and  C_9 
REMARK       I    between atoms: N_5  and  C_2 
REMARK    4  A    between atoms: C_15  and  N_4 
REMARK    5  A    between atoms: C_10  and  N_5 
REMARK    6  A    between atoms: C_18  and  C_15 
REMARK    7  A    between atoms: O_22  and  C_16 
ROOT
ATOM      1  C   UNL d   1     -41.727-122.647 -50.267  0.00  0.00     0.058 A 
ATOM      2  C   UNL d   1     -41.737-121.887 -50.595  0.00  0.00     0.005 A 
ATOM      3  C   UNL d   1     -41.546-123.296 -50.739  0.00  0.00     0.005 A 
ATOM      4  C   UNL d   1     -41.386-122.427 -51.861  0.00  0.00     0.020 A 
ATOM      5  C   UNL d   1     -41.567-121.779 -51.389  0.00  0.00     0.002 A 
ATOM      6  C   UNL d   1     -41.375-123.183 -51.537  0.00  0.00     0.002 A 
ENDROOT
BRANCH   4   7
ATOM      7  C   UNL d   1     -41.214-122.323 -52.663  0.00  0.00     0.112 C 
BRANCH   7   8
ATOM      8  N   UNL d   1     -41.465-122.888 -53.214  0.00  0.00    -0.157 NA
BRANCH   8   9
ATOM      9  S   UNL d   1     -41.748-122.646 -53.957  0.00  0.00     0.285 S 
ATOM     10  O   UNL d   1     -42.040-123.411 -54.099  0.00  0.00    -0.198 OA
ATOM     11  O   UNL d   1     -41.456-121.875 -53.817  0.00  0.00    -0.198 OA
BRANCH   9  12
ATOM     12  C   UNL d   1     -42.029-122.402 -54.696  0.00  0.00     0.107 A 
ATOM     13  C   UNL d   1     -41.550-121.956 -55.194  0.00  0.00     0.037 A 
ATOM     14  C   UNL d   1     -41.826-121.711 -55.933  0.00  0.00     0.095 A 
ATOM     15  C   UNL d   1     -42.581-121.911 -56.175  0.00  0.00     0.024 A 
ATOM     16  C   UNL d   1     -43.068-122.360 -55.677  0.00  0.00     0.003 A 
ATOM     17  C   UNL d   1     -42.791-122.606 -54.938  0.00  0.00     0.013 A 
BRANCH  14  18
ATOM     18  O   UNL d   1     -41.344-121.264 -56.430  0.00  0.00    -0.328 OA
ATOM     19  C   UNL d   1     -41.664-120.868 -57.066  0.00  0.00     0.181 C 
ENDBRANCH  14  18
ENDBRANCH   9  12
ENDBRANCH   8   9
ENDBRANCH   7   8
ENDBRANCH   4   7
BRANCH   1  20
ATOM     20  C   UNL d   1     -41.898-122.763 -49.464  0.00  0.00     0.279 C 
ATOM     21  N   UNL d   1     -41.566-123.397 -49.067  0.00  0.00    -0.208 NA
ATOM     22  O   UNL d   1     -42.399-122.244 -49.067  0.00  0.00    -0.265 OA
BRANCH  21  23
ATOM     23  C   UNL d   1     -41.736-123.513 -48.269  0.00  0.00     0.086 A 
ATOM     24  C   UNL d   1     -42.525-123.607 -48.030  0.00  0.00     0.031 A 
ATOM     25  C   UNL d   1     -42.692-123.723 -47.231  0.00  0.00     0.059 A 
ATOM     26 CL   UNL d   1     -43.472-123.817 -46.993  0.00  0.00    -0.082 Cl
ATOM     27  C   UNL d   1     -42.081-123.744 -46.676  0.00  0.00     0.011 A 
ATOM     28  C   UNL d   1     -41.299-123.649 -46.923  0.00  0.00     0.002 A 
ATOM     29  C   UNL d   1     -41.133-123.534 -47.722  0.00  0.00     0.019 A 
ENDBRANCH  21  23
ENDBRANCH   1  20
TORSDOF 7
ENDMDL
