MODEL 1
REMARK VINA RESULT:      -2.2      0.000      0.000
REMARK  5 active torsions:
REMARK  status: ('A' for Active; 'I' for Inactive)
REMARK    1  A    between atoms: C_7  and  C_1 
REMARK    2  A    between atoms: C_6  and  C_3 
REMARK       I    between atoms: N_8  and  C_6 
REMARK    3  A    between atoms: O_14  and  C_7 
REMARK    4  A    between atoms: C_13  and  N_8 
REMARK    5  A    between atoms: C_15  and  O_14 
ROOT
ATOM      1  C   UNL d   1      30.611  16.662 -24.280  0.00  0.00     0.090 A 
ATOM      2  C   UNL d   1      30.778  17.363 -24.690  0.00  0.00     0.138 A 
ATOM      3  C   UNL d   1      31.873  16.654 -24.639  0.00  0.00     0.089 A 
ATOM      4  C   UNL d   1      31.309  16.223 -24.255  0.00  0.00     0.018 A 
ATOM      5  S   UNL d   1      31.567  17.312 -24.890  0.00  0.00    -0.061 SA
ATOM      6  N   UNL d   1      30.220  17.977 -24.846  0.00  0.00    -0.141 N 
ATOM      7  C   UNL d   1      31.372  15.455 -23.878  0.00  0.00     0.001 C 
ENDROOT
BRANCH   3   8
ATOM      8  C   UNL d   1      32.625  16.351 -24.698  0.00  0.00     0.285 C 
ATOM      9  N   UNL d   1      33.241  16.772 -24.389  0.00  0.00    -0.208 NA
ATOM     10  O   UNL d   1      32.739  15.615 -25.077  0.00  0.00    -0.265 OA
BRANCH   9  11
ATOM     11  C   UNL d   1      33.109  17.494 -24.020  0.00  0.00     0.085 A 
ATOM     12  C   UNL d   1      32.996  18.151 -24.417  0.00  0.00     0.019 A 
ATOM     13  C   UNL d   1      32.872  18.824 -24.005  0.00  0.00     0.002 A 
ATOM     14  C   UNL d   1      32.854  18.881 -23.221  0.00  0.00     0.000 A 
ATOM     15  C   UNL d   1      32.969  18.210 -22.745  0.00  0.00     0.002 A 
ATOM     16  C   UNL d   1      33.100  17.501 -23.186  0.00  0.00     0.019 A 
ENDBRANCH   9  11
ENDBRANCH   3   8
BRANCH   1  17
ATOM     17  C   UNL d   1      29.890  16.458 -23.969  0.00  0.00     0.302 C 
ATOM     18  O   UNL d   1      29.728  16.581 -23.157  0.00  0.00    -0.259 OA
BRANCH  17  19
ATOM     19  O   UNL d   1      29.299  16.124 -24.437  0.00  0.00    -0.271 OA
BRANCH  19  20
ATOM     20  C   UNL d   1      28.560  16.000 -24.104  0.00  0.00     0.126 C 
ATOM     21  C   UNL d   1      28.053  15.453 -24.455  0.00  0.00     0.029 C 
ENDBRANCH  19  20
ENDBRANCH  17  19
ENDBRANCH   1  17
TORSDOF 5
ENDMDL
MODEL 2
REMARK VINA RESULT:      -2.1      1.449      3.332
REMARK  5 active torsions:
REMARK  status: ('A' for Active; 'I' for Inactive)
REMARK    1  A    between atoms: C_7  and  C_1 
REMARK    2  A    between atoms: C_6  and  C_3 
REMARK       I    between atoms: N_8  and  C_6 
REMARK    3  A    between atoms: O_14  and  C_7 
REMARK    4  A    between atoms: C_13  and  N_8 
REMARK    5  A    between atoms: C_15  and  O_14 
ROOT
ATOM      1  C   UNL d   1      32.333  17.871 -24.291  0.00  0.00     0.090 A 
ATOM      2  C   UNL d   1      31.698  17.932 -24.821  0.00  0.00     0.138 A 
ATOM      3  C   UNL d   1      31.938  16.664 -24.623  0.00  0.00     0.089 A 
ATOM      4  C   UNL d   1      32.474  17.066 -24.174  0.00  0.00     0.018 A 
ATOM      5  S   UNL d   1      31.490  17.164 -24.996  0.00  0.00    -0.061 SA
ATOM      6  N   UNL d   1      31.366  18.658 -25.097  0.00  0.00    -0.141 N 
ATOM      7  C   UNL d   1      33.091  16.764 -23.659  0.00  0.00     0.001 C 
ENDROOT
BRANCH   3   8
ATOM      8  C   UNL d   1      31.950  15.851 -24.614  0.00  0.00     0.285 C 
ATOM      9  N   UNL d   1      31.266  15.453 -24.454  0.00  0.00    -0.208 NA
ATOM     10  O   UNL d   1      32.667  15.453 -24.771  0.00  0.00    -0.265 OA
BRANCH   9  11
ATOM     11  C   UNL d   1      30.570  15.862 -24.302  0.00  0.00     0.085 A 
ATOM     12  C   UNL d   1      30.142  16.180 -24.865  0.00  0.00     0.019 A 
ATOM     13  C   UNL d   1      29.475  16.567 -24.658  0.00  0.00     0.002 A 
ATOM     14  C   UNL d   1      29.209  16.656 -23.923  0.00  0.00     0.000 A 
ATOM     15  C   UNL d   1      29.627  16.336 -23.281  0.00  0.00     0.002 A 
ATOM     16  C   UNL d   1      30.332  15.928 -23.506  0.00  0.00     0.019 A 
ENDBRANCH   9  11
ENDBRANCH   3   8
BRANCH   1  17
ATOM     17  C   UNL d   1      32.731  18.493 -23.957  0.00  0.00     0.302 C 
ATOM     18  O   UNL d   1      33.239  18.971 -24.420  0.00  0.00    -0.259 OA
BRANCH  17  19
ATOM     19  O   UNL d   1      32.648  18.675 -23.157  0.00  0.00    -0.271 OA
BRANCH  19  20
ATOM     20  C   UNL d   1      33.067  19.314 -22.856  0.00  0.00     0.126 C 
ATOM     21  C   UNL d   1      32.877  19.594 -22.104  0.00  0.00     0.029 C 
ENDBRANCH  19  20
ENDBRANCH  17  19
ENDBRANCH   1  17
TORSDOF 5
ENDMDL
MODEL 3
REMARK VINA RESULT:      -0.9      1.403      2.101
REMARK  5 active torsions:
REMARK  status: ('A' for Active; 'I' for Inactive)
REMARK    1  A    between atoms: C_7  and  C_1 
REMARK    2  A    between atoms: C_6  and  C_3 
REMARK       I    between atoms: N_8  and  C_6 
REMARK    3  A    between atoms: O_14  and  C_7 
REMARK    4  A    between atoms: C_13  and  N_8 
REMARK    5  A    between atoms: C_15  and  O_14 
ROOT
ATOM      1  C   UNL d   1      29.855  16.369 -24.045  0.00  0.00     0.090 A 
ATOM      2  C   UNL d   1      30.416  16.126 -23.485  0.00  0.00     0.138 A 
ATOM      3  C   UNL d   1      30.920  17.128 -24.153  0.00  0.00     0.089 A 
ATOM      4  C   UNL d   1      30.184  17.002 -24.461  0.00  0.00     0.018 A 
ATOM      5  S   UNL d   1      31.053  16.623 -23.590  0.00  0.00    -0.061 SA
ATOM      6  N   UNL d   1      30.310  15.492 -22.938  0.00  0.00    -0.141 N 
ATOM      7  C   UNL d   1      29.779  17.415 -25.094  0.00  0.00     0.001 C 
ENDROOT
BRANCH   3   8
ATOM      8  C   UNL d   1      31.376  17.726 -24.461  0.00  0.00     0.285 C 
ATOM      9  N   UNL d   1      32.172  17.611 -24.534  0.00  0.00    -0.208 NA
ATOM     10  O   UNL d   1      31.010  18.440 -24.693  0.00  0.00    -0.265 OA
BRANCH   9  11
ATOM     11  C   UNL d   1      32.515  16.902 -24.300  0.00  0.00     0.085 A 
ATOM     12  C   UNL d   1      32.710  16.755 -23.565  0.00  0.00     0.019 A 
ATOM     13  C   UNL d   1      33.039  16.048 -23.395  0.00  0.00     0.002 A 
ATOM     14  C   UNL d   1      33.186  15.478 -23.916  0.00  0.00     0.000 A 
ATOM     15  C   UNL d   1      32.998  15.580 -24.719  0.00  0.00     0.002 A 
ATOM     16  C   UNL d   1      32.650  16.330 -24.892  0.00  0.00     0.019 A 
ENDBRANCH   9  11
ENDBRANCH   3   8
BRANCH   1  17
ATOM     17  C   UNL d   1      29.122  16.038 -24.154  0.00  0.00     0.302 C 
ATOM     18  O   UNL d   1      28.952  15.601 -24.848  0.00  0.00    -0.259 OA
BRANCH  17  19
ATOM     19  O   UNL d   1      28.526  16.121 -23.591  0.00  0.00    -0.271 OA
BRANCH  19  20
ATOM     20  C   UNL d   1      27.758  15.923 -23.802  0.00  0.00     0.126 C 
ATOM     21  C   UNL d   1      27.143  16.115 -23.288  0.00  0.00     0.029 C 
ENDBRANCH  19  20
ENDBRANCH  17  19
ENDBRANCH   1  17
TORSDOF 5
ENDMDL
MODEL 4
REMARK VINA RESULT:       0.3      2.624      4.427
REMARK  5 active torsions:
REMARK  status: ('A' for Active; 'I' for Inactive)
REMARK    1  A    between atoms: C_7  and  C_1 
REMARK    2  A    between atoms: C_6  and  C_3 
REMARK       I    between atoms: N_8  and  C_6 
REMARK    3  A    between atoms: O_14  and  C_7 
REMARK    4  A    between atoms: C_13  and  N_8 
REMARK    5  A    between atoms: C_15  and  O_14 
ROOT
ATOM      1  C   UNL d   1      32.863  19.974 -22.645  0.00  0.00     0.090 A 
ATOM      2  C   UNL d   1      33.103  19.192 -22.507  0.00  0.00     0.138 A 
ATOM      3  C   UNL d   1      32.989  19.358 -23.797  0.00  0.00     0.089 A 
ATOM      4  C   UNL d   1      32.795  20.066 -23.462  0.00  0.00     0.018 A 
ATOM      5  S   UNL d   1      33.166  18.854 -23.246  0.00  0.00    -0.061 SA
ATOM      6  N   UNL d   1      33.241  18.856 -21.745  0.00  0.00    -0.141 N 
ATOM      7  C   UNL d   1      32.558  20.800 -23.837  0.00  0.00     0.001 C 
ENDROOT
BRANCH   3   8
ATOM      8  C   UNL d   1      32.969  19.288 -24.607  0.00  0.00     0.285 C 
ATOM      9  N   UNL d   1      32.687  18.605 -24.933  0.00  0.00    -0.208 NA
ATOM     10  O   UNL d   1      33.241  19.923 -25.077  0.00  0.00    -0.265 OA
BRANCH   9  11
ATOM     11  C   UNL d   1      32.424  17.992 -24.453  0.00  0.00     0.085 A 
ATOM     12  C   UNL d   1      32.910  17.506 -24.095  0.00  0.00     0.019 A 
ATOM     13  C   UNL d   1      32.598  16.927 -23.641  0.00  0.00     0.002 A 
ATOM     14  C   UNL d   1      31.831  16.804 -23.524  0.00  0.00     0.000 A 
ATOM     15  C   UNL d   1      31.264  17.295 -23.884  0.00  0.00     0.002 A 
ATOM     16  C   UNL d   1      31.600  17.905 -24.362  0.00  0.00     0.019 A 
ENDBRANCH   9  11
ENDBRANCH   3   8
BRANCH   1  17
ATOM     17  C   UNL d   1      32.726  20.533 -22.074  0.00  0.00     0.302 C 
ATOM     18  O   UNL d   1      32.165  20.394 -21.468  0.00  0.00    -0.259 OA
BRANCH  17  19
ATOM     19  O   UNL d   1      33.130  21.252 -22.072  0.00  0.00    -0.271 OA
BRANCH  19  20
ATOM     20  C   UNL d   1      33.028  21.756 -21.432  0.00  0.00     0.126 C 
ATOM     21  C   UNL d   1      33.240  22.549 -21.513  0.00  0.00     0.029 C 
ENDBRANCH  19  20
ENDBRANCH  17  19
ENDBRANCH   1  17
TORSDOF 5
ENDMDL
