MODEL 1
REMARK VINA RESULT:      -1.6      0.000      0.000
REMARK  4 active torsions:
REMARK  status: ('A' for Active; 'I' for Inactive)
REMARK    1  A    between atoms: S_3  and  N_1 
REMARK    2  A    between atoms: C_7  and  C_4 
REMARK    3  A    between atoms: C_12  and  C_5 
REMARK    4  A    between atoms: O_24  and  C_21 
ROOT
ATOM      1  N   UNL d   1      32.614  17.581 -23.826  0.00  0.00    -0.155 N 
ATOM      2  N   UNL d   1      33.038  18.207 -23.524  0.00  0.00    -0.156 NA
ATOM      3  C   UNL d   1      31.823  17.752 -23.759  0.00  0.00     0.096 A 
ATOM      4  C   UNL d   1      32.506  18.769 -23.269  0.00  0.00     0.103 A 
ATOM      5  C   UNL d   1      31.750  18.495 -23.410  0.00  0.00     0.041 A 
ENDROOT
BRANCH   3   6
ATOM      6  C   UNL d   1      31.197  17.269 -23.997  0.00  0.00     0.020 A 
ATOM      7  C   UNL d   1      30.678  16.960 -23.435  0.00  0.00     0.022 A 
ATOM      8  C   UNL d   1      30.053  16.477 -23.673  0.00  0.00     0.099 A 
ATOM      9  N   UNL d   1      29.534  16.168 -23.111  0.00  0.00    -0.241 NA
ATOM     10  C   UNL d   1      29.948  16.305 -24.468  0.00  0.00     0.099 A 
ATOM     11  C   UNL d   1      28.954  15.716 -23.362  0.00  0.00     0.120 A 
ATOM     12  C   UNL d   1      28.848  15.544 -24.157  0.00  0.00     0.120 A 
ATOM     13  N   UNL d   1      29.322  15.822 -24.705  0.00  0.00    -0.241 NA
ATOM     14  C   UNL d   1      30.467  16.614 -25.029  0.00  0.00     0.021 A 
ATOM     15  C   UNL d   1      31.092  17.096 -24.792  0.00  0.00     0.003 A 
ENDBRANCH   3   6
BRANCH   1  16
ATOM     16  S   UNL d   1      32.922  16.895 -24.143  0.00  0.00     0.266 S 
ATOM     17  O   UNL d   1      32.938  16.547 -23.377  0.00  0.00    -0.203 OA
ATOM     18  O   UNL d   1      33.240  16.188 -24.471  0.00  0.00    -0.203 OA
ATOM     19  C   UNL d   1      32.909  17.228 -24.885  0.00  0.00     0.165 C 
ENDBRANCH   1  16
BRANCH   4  20
ATOM     20  C   UNL d   1      32.689  19.484 -22.929  0.00  0.00     0.020 A 
ATOM     21  C   UNL d   1      32.799  19.554 -22.130  0.00  0.00     0.004 A 
ATOM     22  C   UNL d   1      32.988  20.288 -21.772  0.00  0.00     0.024 A 
ATOM     23  C   UNL d   1      33.063  20.958 -22.253  0.00  0.00     0.094 A 
ATOM     24  C   UNL d   1      32.948  20.873 -23.073  0.00  0.00     0.024 A 
ATOM     25  C   UNL d   1      32.765  20.158 -23.406  0.00  0.00     0.004 A 
BRANCH  23  26
ATOM     26  O   UNL d   1      33.240  21.654 -21.935  0.00  0.00    -0.328 OA
ATOM     27  C   UNL d   1      32.638  22.156 -21.664  0.00  0.00     0.181 C 
ENDBRANCH  23  26
ENDBRANCH   4  20
TORSDOF 4
ENDMDL
MODEL 2
REMARK VINA RESULT:      -0.2      3.812      5.747
REMARK  4 active torsions:
REMARK  status: ('A' for Active; 'I' for Inactive)
REMARK    1  A    between atoms: S_3  and  N_1 
REMARK    2  A    between atoms: C_7  and  C_4 
REMARK    3  A    between atoms: C_12  and  C_5 
REMARK    4  A    between atoms: O_24  and  C_21 
ROOT
ATOM      1  N   UNL d   1      32.348  22.959 -21.025  0.00  0.00    -0.155 N 
ATOM      2  N   UNL d   1      32.348  23.272 -20.274  0.00  0.00    -0.156 NA
ATOM      3  C   UNL d   1      32.733  22.243 -21.003  0.00  0.00     0.096 A 
ATOM      4  C   UNL d   1      32.733  22.748 -19.784  0.00  0.00     0.103 A 
ATOM      5  C   UNL d   1      32.975  22.107 -20.227  0.00  0.00     0.041 A 
ENDROOT
BRANCH   3   6
ATOM      6  C   UNL d   1      32.860  21.738 -21.643  0.00  0.00     0.020 A 
ATOM      7  C   UNL d   1      32.743  20.926 -21.556  0.00  0.00     0.022 A 
ATOM      8  C   UNL d   1      32.870  20.421 -22.195  0.00  0.00     0.099 A 
ATOM      9  N   UNL d   1      32.753  19.608 -22.109  0.00  0.00    -0.241 NA
ATOM     10  C   UNL d   1      33.113  20.726 -22.917  0.00  0.00     0.099 A 
ATOM     11  C   UNL d   1      32.880  19.155 -22.727  0.00  0.00     0.120 A 
ATOM     12  C   UNL d   1      33.123  19.460 -23.448  0.00  0.00     0.120 A 
ATOM     13  N   UNL d   1      33.240  20.220 -23.556  0.00  0.00    -0.241 NA
ATOM     14  C   UNL d   1      33.230  21.537 -23.003  0.00  0.00     0.021 A 
ATOM     15  C   UNL d   1      33.103  22.042 -22.364  0.00  0.00     0.003 A 
ENDBRANCH   3   6
BRANCH   1  16
ATOM     16  S   UNL d   1      32.023  23.298 -21.692  0.00  0.00     0.266 S 
ATOM     17  O   UNL d   1      31.251  23.158 -21.386  0.00  0.00    -0.203 OA
ATOM     18  O   UNL d   1      31.686  23.647 -22.380  0.00  0.00    -0.203 OA
ATOM     19  C   UNL d   1      32.766  23.434 -21.991  0.00  0.00     0.165 C 
ENDBRANCH   1  16
BRANCH   4  20
ATOM     20  C   UNL d   1      32.859  22.840 -18.986  0.00  0.00     0.020 A 
ATOM     21  C   UNL d   1      32.929  22.201 -18.495  0.00  0.00     0.004 A 
ATOM     22  C   UNL d   1      33.060  22.287 -17.671  0.00  0.00     0.024 A 
ATOM     23  C   UNL d   1      33.118  23.051 -17.355  0.00  0.00     0.094 A 
ATOM     24  C   UNL d   1      33.044  23.701 -17.871  0.00  0.00     0.024 A 
ATOM     25  C   UNL d   1      32.918  23.603 -18.665  0.00  0.00     0.004 A 
BRANCH  23  26
ATOM     26  O   UNL d   1      33.240  23.152 -16.586  0.00  0.00    -0.328 OA
ATOM     27  C   UNL d   1      33.191  22.507 -16.067  0.00  0.00     0.181 C 
ENDBRANCH  23  26
ENDBRANCH   4  20
TORSDOF 4
ENDMDL
MODEL 3
REMARK VINA RESULT:       0.7      1.635      4.763
REMARK  4 active torsions:
REMARK  status: ('A' for Active; 'I' for Inactive)
REMARK    1  A    between atoms: S_3  and  N_1 
REMARK    2  A    between atoms: C_7  and  C_4 
REMARK    3  A    between atoms: C_12  and  C_5 
REMARK    4  A    between atoms: O_24  and  C_21 
ROOT
ATOM      1  N   UNL d   1      31.195  16.098 -24.016  0.00  0.00    -0.155 N 
ATOM      2  N   UNL d   1      30.494  15.687 -23.980  0.00  0.00    -0.156 NA
ATOM      3  C   UNL d   1      31.034  16.887 -23.901  0.00  0.00     0.096 A 
ATOM      4  C   UNL d   1      29.896  16.222 -23.842  0.00  0.00     0.103 A 
ATOM      5  C   UNL d   1      30.222  16.969 -23.791  0.00  0.00     0.041 A 
ENDROOT
BRANCH   3   6
ATOM      6  C   UNL d   1      31.586  17.501 -23.894  0.00  0.00     0.020 A 
ATOM      7  C   UNL d   1      31.612  18.023 -23.256  0.00  0.00     0.022 A 
ATOM      8  C   UNL d   1      32.163  18.637 -23.250  0.00  0.00     0.099 A 
ATOM      9  N   UNL d   1      32.190  19.160 -22.612  0.00  0.00    -0.241 NA
ATOM     10  C   UNL d   1      32.684  18.728 -23.877  0.00  0.00     0.099 A 
ATOM     11  C   UNL d   1      32.718  19.730 -22.631  0.00  0.00     0.120 A 
ATOM     12  C   UNL d   1      33.239  19.821 -23.258  0.00  0.00     0.120 A 
ATOM     13  N   UNL d   1      33.234  19.343 -23.870  0.00  0.00    -0.241 NA
ATOM     14  C   UNL d   1      32.656  18.206 -24.514  0.00  0.00     0.021 A 
ATOM     15  C   UNL d   1      32.106  17.592 -24.521  0.00  0.00     0.003 A 
ENDBRANCH   3   6
BRANCH   1  16
ATOM     16  S   UNL d   1      31.937  15.783 -24.146  0.00  0.00     0.266 S 
ATOM     17  O   UNL d   1      32.112  15.859 -23.326  0.00  0.00    -0.203 OA
ATOM     18  O   UNL d   1      32.702  15.459 -24.279  0.00  0.00    -0.203 OA
ATOM     19  C   UNL d   1      31.771  15.709 -24.938  0.00  0.00     0.165 C 
ENDBRANCH   1  16
BRANCH   4  20
ATOM     20  C   UNL d   1      29.106  16.050 -23.765  0.00  0.00     0.020 A 
ATOM     21  C   UNL d   1      28.686  16.284 -23.114  0.00  0.00     0.004 A 
ATOM     22  C   UNL d   1      27.870  16.111 -23.027  0.00  0.00     0.024 A 
ATOM     23  C   UNL d   1      27.487  15.687 -23.628  0.00  0.00     0.094 A 
ATOM     24  C   UNL d   1      27.930  15.453 -24.292  0.00  0.00     0.024 A 
ATOM     25  C   UNL d   1      28.718  15.627 -24.364  0.00  0.00     0.004 A 
BRANCH  23  26
ATOM     26  O   UNL d   1      26.723  15.516 -23.564  0.00  0.00    -0.328 OA
ATOM     27  C   UNL d   1      26.301  15.732 -22.884  0.00  0.00     0.181 C 
ENDBRANCH  23  26
ENDBRANCH   4  20
TORSDOF 4
ENDMDL
