MODEL 1
REMARK VINA RESULT:      -3.7      0.000      0.000
REMARK  6 active torsions:
REMARK  status: ('A' for Active; 'I' for Inactive)
REMARK    1  A    between atoms: C_2  and  S_1 
REMARK    2  A    between atoms: N_8  and  S_1 
REMARK    3  A    between atoms: C_13  and  N_8 
REMARK    4  A    between atoms: N_9  and  C_14 
REMARK    5  A    between atoms: O_15  and  C_10 
REMARK    6  A    between atoms: C_14  and  C_13 
ROOT
ATOM      1  C   UNL d   1      58.733  -0.719  29.667  0.00  0.00     0.105 A 
ATOM      2  C   UNL d   1      59.416  -0.424  29.331  0.00  0.00     0.014 A 
ATOM      3  C   UNL d   1      59.932  -0.926  28.927  0.00  0.00     0.023 A 
ATOM      4  C   UNL d   1      58.556  -1.526  29.602  0.00  0.00     0.015 A 
ATOM      5  C   UNL d   1      59.763  -1.722  28.859  0.00  0.00     0.094 A 
ATOM      6  C   UNL d   1      59.071  -2.028  29.198  0.00  0.00     0.025 A 
ATOM      7  C   UNL d   1      59.591   0.379  29.397  0.00  0.00     0.001 A 
ATOM      8  C   UNL d   1      60.620  -0.624  28.589  0.00  0.00     0.002 A 
ATOM      9  C   UNL d   1      60.280   0.682  29.059  0.00  0.00     0.000 A 
ATOM     10  C   UNL d   1      60.795   0.180  28.655  0.00  0.00     0.000 A 
ENDROOT
BRANCH   1  11
ATOM     11  S   UNL d   1      58.218  -0.217  30.072  0.00  0.00     0.285 S 
ATOM     12  O   UNL d   1      57.744  -0.156  29.391  0.00  0.00    -0.198 OA
ATOM     13  O   UNL d   1      58.683  -0.278  30.739  0.00  0.00    -0.198 OA
BRANCH  11  14
ATOM     14  N   UNL d   1      57.703   0.284  30.476  0.00  0.00    -0.155 NA
BRANCH  14  15
ATOM     15  C   UNL d   1      57.412   0.073  31.210  0.00  0.00     0.131 C 
BRANCH  15  16
ATOM     16  C   UNL d   1      56.677   0.350  31.462  0.00  0.00     0.102 C 
BRANCH  16  17
ATOM     17  N   UNL d   1      56.383   0.125  32.199  0.00  0.00    -0.298 N 
ATOM     18  C   UNL d   1      56.316   0.682  32.805  0.00  0.00     0.107 A 
ATOM     19  C   UNL d   1      56.020   0.458  33.546  0.00  0.00     0.142 A 
ATOM     20  O   UNL d   1      55.792  -0.324  33.677  0.00  0.00    -0.300 OA
ATOM     21  C   UNL d   1      55.860  -0.882  33.068  0.00  0.00     0.142 A 
ATOM     22  C   UNL d   1      56.155  -0.657  32.330  0.00  0.00     0.107 A 
ENDBRANCH  16  17
ENDBRANCH  15  16
ENDBRANCH  14  15
ENDBRANCH  11  14
ENDBRANCH   1  11
BRANCH   5  23
ATOM     23  O   UNL d   1      60.274  -2.229  28.455  0.00  0.00    -0.328 OA
ATOM     24  C   UNL d   1      60.178  -3.045  28.503  0.00  0.00     0.181 C 
ENDBRANCH   5  23
TORSDOF 6
ENDMDL
MODEL 2
REMARK VINA RESULT:      -1.9      1.225      4.939
REMARK  6 active torsions:
REMARK  status: ('A' for Active; 'I' for Inactive)
REMARK    1  A    between atoms: C_2  and  S_1 
REMARK    2  A    between atoms: N_8  and  S_1 
REMARK    3  A    between atoms: C_13  and  N_8 
REMARK    4  A    between atoms: N_9  and  C_14 
REMARK    5  A    between atoms: O_15  and  C_10 
REMARK    6  A    between atoms: C_14  and  C_13 
ROOT
ATOM      1  C   UNL d   1      56.754  -0.094  31.971  0.00  0.00     0.105 A 
ATOM      2  C   UNL d   1      57.186   0.162  32.614  0.00  0.00     0.014 A 
ATOM      3  C   UNL d   1      56.838   0.201  33.361  0.00  0.00     0.023 A 
ATOM      4  C   UNL d   1      55.961  -0.315  32.067  0.00  0.00     0.015 A 
ATOM      5  C   UNL d   1      56.057  -0.016  33.463  0.00  0.00     0.094 A 
ATOM      6  C   UNL d   1      55.613  -0.276  32.814  0.00  0.00     0.025 A 
ATOM      7  C   UNL d   1      57.975   0.381  32.516  0.00  0.00     0.001 A 
ATOM      8  C   UNL d   1      57.278   0.459  34.008  0.00  0.00     0.002 A 
ATOM      9  C   UNL d   1      58.416   0.640  33.163  0.00  0.00     0.000 A 
ATOM     10  C   UNL d   1      58.067   0.679  33.910  0.00  0.00     0.000 A 
ENDROOT
BRANCH   1  11
ATOM     11  S   UNL d   1      57.102  -0.133  31.224  0.00  0.00     0.285 S 
ATOM     12  O   UNL d   1      57.159  -0.960  31.293  0.00  0.00    -0.198 OA
ATOM     13  O   UNL d   1      57.047   0.677  31.156  0.00  0.00    -0.198 OA
BRANCH  11  14
ATOM     14  N   UNL d   1      57.451  -0.172  30.477  0.00  0.00    -0.155 NA
BRANCH  14  15
ATOM     15  C   UNL d   1      58.059  -0.698  30.332  0.00  0.00     0.131 C 
BRANCH  15  16
ATOM     16  C   UNL d   1      58.295  -0.860  29.559  0.00  0.00     0.102 C 
BRANCH  16  17
ATOM     17  N   UNL d   1      59.047  -1.165  29.412  0.00  0.00    -0.298 N 
ATOM     18  C   UNL d   1      59.135  -1.949  29.170  0.00  0.00     0.107 A 
ATOM     19  C   UNL d   1      59.890  -2.257  29.022  0.00  0.00     0.142 A 
ATOM     20  O   UNL d   1      60.555  -1.778  29.118  0.00  0.00    -0.300 OA
ATOM     21  C   UNL d   1      60.465  -0.991  29.362  0.00  0.00     0.142 A 
ATOM     22  C   UNL d   1      59.712  -0.686  29.508  0.00  0.00     0.107 A 
ENDBRANCH  16  17
ENDBRANCH  15  16
ENDBRANCH  14  15
ENDBRANCH  11  14
ENDBRANCH   1  11
BRANCH   5  23
ATOM     23  O   UNL d   1      55.702   0.021  34.208  0.00  0.00    -0.328 OA
ATOM     24  C   UNL d   1      54.883   0.052  34.280  0.00  0.00     0.181 C 
ENDBRANCH   5  23
TORSDOF 6
ENDMDL
MODEL 3
REMARK VINA RESULT:      -1.9      1.129      2.051
REMARK  6 active torsions:
REMARK  status: ('A' for Active; 'I' for Inactive)
REMARK    1  A    between atoms: C_2  and  S_1 
REMARK    2  A    between atoms: N_8  and  S_1 
REMARK    3  A    between atoms: C_13  and  N_8 
REMARK    4  A    between atoms: N_9  and  C_14 
REMARK    5  A    between atoms: O_15  and  C_10 
REMARK    6  A    between atoms: C_14  and  C_13 
ROOT
ATOM      1  C   UNL d   1      58.131  -0.558  30.554  0.00  0.00     0.105 A 
ATOM      2  C   UNL d   1      58.398  -1.097  30.002  0.00  0.00     0.014 A 
ATOM      3  C   UNL d   1      59.038  -0.912  29.516  0.00  0.00     0.023 A 
ATOM      4  C   UNL d   1      58.504   0.179  30.626  0.00  0.00     0.015 A 
ATOM      5  C   UNL d   1      59.410  -0.188  29.582  0.00  0.00     0.094 A 
ATOM      6  C   UNL d   1      59.144   0.364  30.140  0.00  0.00     0.025 A 
ATOM      7  C   UNL d   1      58.026  -1.829  29.932  0.00  0.00     0.001 A 
ATOM      8  C   UNL d   1      59.305  -1.459  28.960  0.00  0.00     0.002 A 
ATOM      9  C   UNL d   1      58.292  -2.377  29.376  0.00  0.00     0.000 A 
ATOM     10  C   UNL d   1      58.932  -2.192  28.890  0.00  0.00     0.000 A 
ENDROOT
BRANCH   1  11
ATOM     11  S   UNL d   1      57.491  -0.743  31.040  0.00  0.00     0.285 S 
ATOM     12  O   UNL d   1      57.982  -1.230  31.502  0.00  0.00    -0.198 OA
ATOM     13  O   UNL d   1      57.009  -0.265  30.588  0.00  0.00    -0.198 OA
BRANCH  11  14
ATOM     14  N   UNL d   1      56.850  -0.928  31.527  0.00  0.00    -0.155 NA
BRANCH  14  15
ATOM     15  C   UNL d   1      56.636  -0.427  32.136  0.00  0.00     0.131 C 
BRANCH  15  16
ATOM     16  C   UNL d   1      55.902  -0.508  32.504  0.00  0.00     0.102 C 
BRANCH  16  17
ATOM     17  N   UNL d   1      55.750  -0.112  33.211  0.00  0.00    -0.298 N 
ATOM     18  C   UNL d   1      56.336  -0.060  33.790  0.00  0.00     0.107 A 
ATOM     19  C   UNL d   1      56.185   0.338  34.501  0.00  0.00     0.142 A 
ATOM     20  O   UNL d   1      55.446   0.682  34.630  0.00  0.00    -0.300 OA
ATOM     21  C   UNL d   1      54.858   0.629  34.047  0.00  0.00     0.142 A 
ATOM     22  C   UNL d   1      55.012   0.232  33.340  0.00  0.00     0.107 A 
ENDBRANCH  16  17
ENDBRANCH  15  16
ENDBRANCH  14  15
ENDBRANCH  11  14
ENDBRANCH   1  11
BRANCH   5  23
ATOM     23  O   UNL d   1      60.052   0.004  29.098  0.00  0.00    -0.328 OA
ATOM     24  C   UNL d   1      60.037   0.682  28.633  0.00  0.00     0.181 C 
ENDBRANCH   5  23
TORSDOF 6
ENDMDL
