MODEL 1
REMARK VINA RESULT:      80.3      0.000      0.000
REMARK  4 active torsions:
REMARK  status: ('A' for Active; 'I' for Inactive)
REMARK    1  A    between atoms: C_11  and  C_4 
REMARK    2  A    between atoms: N_10  and  C_5 
REMARK    3  A    between atoms: C_15  and  N_10 
REMARK    4  A    between atoms: C_16  and  C_15 
ROOT
ATOM      1  N   UNL d   1      59.188  49.667  53.139  0.00  0.00    -0.195 N 
ATOM      2  C   UNL d   1      59.246  49.630  52.322  0.00  0.00     0.167 A 
ATOM      3  N   UNL d   1      59.948  49.699  53.438  0.00  0.00    -0.163 NA
ATOM      4  C   UNL d   1      60.041  49.638  52.122  0.00  0.00     0.055 A 
ATOM      5  C   UNL d   1      58.449  49.667  53.495  0.00  0.00     0.167 A 
ATOM      6  C   UNL d   1      60.469  49.680  52.801  0.00  0.00     0.104 A 
ATOM      7  N   UNL d   1      58.564  49.592  51.858  0.00  0.00    -0.227 NA
ATOM      8  C   UNL d   1      57.759  49.629  53.031  0.00  0.00     0.058 A 
ATOM      9  C   UNL d   1      57.816  49.592  52.223  0.00  0.00     0.086 A 
ATOM     10  C   UNL d   1      61.295  49.701  52.845  0.00  0.00     0.023 C 
ATOM     11  C   UNL d   1      57.117  49.554  51.758  0.00  0.00     0.021 C 
ENDROOT
BRANCH   5  12
ATOM     12  N   UNL d   1      58.390  49.705  54.321  0.00  0.00    -0.224 NA
BRANCH  12  13
ATOM     13  C   UNL d   1      58.234  49.024  54.751  0.00  0.00     0.120 C 
BRANCH  13  14
ATOM     14  C   UNL d   1      57.593  49.006  55.275  0.00  0.00     0.101 A 
ATOM     15  N   UNL d   1      57.158  49.700  55.427  0.00  0.00    -0.242 NA
ATOM     16  C   UNL d   1      56.521  49.682  55.948  0.00  0.00     0.099 A 
ATOM     17  C   UNL d   1      56.314  48.970  56.322  0.00  0.00     0.021 A 
ATOM     18  C   UNL d   1      56.744  48.284  56.172  0.00  0.00     0.003 A 
ATOM     19  C   UNL d   1      57.381  48.302  55.651  0.00  0.00     0.021 A 
ENDBRANCH  13  14
ENDBRANCH  12  13
ENDBRANCH   5  12
BRANCH   4  20
ATOM     20  C   UNL d   1      60.429  49.612  51.387  0.00  0.00     0.004 A 
ATOM     21  C   UNL d   1      61.247  49.512  51.351  0.00  0.00     0.001 A 
ATOM     22  C   UNL d   1      61.635  49.486  50.623  0.00  0.00     0.011 A 
ATOM     23  C   UNL d   1      61.197  49.561  49.928  0.00  0.00     0.058 A 
ATOM     24  C   UNL d   1      60.373  49.661  49.963  0.00  0.00     0.011 A 
ATOM     25 CL   UNL d   1      61.593  49.533  49.188  0.00  0.00    -0.082 Cl
ATOM     26  C   UNL d   1      59.990  49.687  50.691  0.00  0.00     0.001 A 
ENDBRANCH   4  20
TORSDOF 4
ENDMDL
