MODEL 1
REMARK VINA RESULT:      44.4      0.000      0.000
REMARK  4 active torsions:
REMARK  status: ('A' for Active; 'I' for Inactive)
REMARK    1  A    between atoms: C_4  and  C_1 
REMARK    2  A    between atoms: C_2  and  C_3 
REMARK    3  A    between atoms: O_7  and  C_13 
REMARK    4  A    between atoms: C_12  and  O_7 
ROOT
ATOM      1  O   UNL d   1     -50.839  27.151  33.370  0.00  0.00    -0.307 OA
ENDROOT
BRANCH   1   2
ATOM      2  C   UNL d   1     -50.190  27.431  33.805  0.00  0.00     0.100 A 
ATOM      3  C   UNL d   1     -50.153  27.273  34.604  0.00  0.00     0.025 A 
ATOM      4  C   UNL d   1     -49.507  27.548  35.053  0.00  0.00     0.005 A 
ATOM      5  C   UNL d   1     -48.918  27.972  34.699  0.00  0.00     0.039 A 
ATOM      6  C   UNL d   1     -48.952  28.136  33.882  0.00  0.00     0.005 A 
ATOM      7  C   UNL d   1     -49.597  27.861  33.430  0.00  0.00     0.025 A 
BRANCH   5   8
ATOM      8  C   UNL d   1     -48.273  28.247  35.147  0.00  0.00     0.196 C 
ATOM      9  O   UNL d   1     -47.575  27.793  35.210  0.00  0.00    -0.287 OA
ATOM     10  C   UNL d   1     -48.301  28.970  35.541  0.00  0.00     0.045 C 
ENDBRANCH   5   8
ENDBRANCH   1   2
BRANCH   1  11
ATOM     11  C   UNL d   1     -51.037  26.338  33.359  0.00  0.00     0.100 A 
ATOM     12  C   UNL d   1     -51.841  26.148  33.319  0.00  0.00     0.025 A 
ATOM     13  C   UNL d   1     -52.041  25.334  33.308  0.00  0.00     0.005 A 
ATOM     14  C   UNL d   1     -51.459  24.744  33.336  0.00  0.00     0.039 A 
ATOM     15  C   UNL d   1     -50.674  24.972  33.375  0.00  0.00     0.005 A 
ATOM     16  C   UNL d   1     -50.461  25.767  33.386  0.00  0.00     0.025 A 
BRANCH  14  17
ATOM     17  C   UNL d   1     -51.653  23.961  33.325  0.00  0.00     0.196 C 
ATOM     18  O   UNL d   1     -51.056  23.380  33.306  0.00  0.00    -0.287 OA
ATOM     19  C   UNL d   1     -52.441  23.736  33.333  0.00  0.00     0.045 C 
ENDBRANCH  14  17
ENDBRANCH   1  11
TORSDOF 4
ENDMDL
MODEL 2
REMARK VINA RESULT:      46.5      0.531      4.312
REMARK  4 active torsions:
REMARK  status: ('A' for Active; 'I' for Inactive)
REMARK    1  A    between atoms: C_4  and  C_1 
REMARK    2  A    between atoms: C_2  and  C_3 
REMARK    3  A    between atoms: O_7  and  C_13 
REMARK    4  A    between atoms: C_12  and  O_7 
ROOT
ATOM      1  O   UNL d   1     -51.086  26.978  33.472  0.00  0.00    -0.307 OA
ENDROOT
BRANCH   1   2
ATOM      2  C   UNL d   1     -51.109  26.149  33.444  0.00  0.00     0.100 A 
ATOM      3  C   UNL d   1     -51.827  25.772  33.525  0.00  0.00     0.025 A 
ATOM      4  C   UNL d   1     -51.865  24.940  33.499  0.00  0.00     0.005 A 
ATOM      5  C   UNL d   1     -51.192  24.506  33.394  0.00  0.00     0.039 A 
ATOM      6  C   UNL d   1     -50.455  24.888  33.310  0.00  0.00     0.005 A 
ATOM      7  C   UNL d   1     -50.415  25.721  33.336  0.00  0.00     0.025 A 
BRANCH   5   8
ATOM      8  C   UNL d   1     -51.229  23.675  33.368  0.00  0.00     0.196 C 
ATOM      9  O   UNL d   1     -50.532  23.220  33.308  0.00  0.00    -0.287 OA
ATOM     10  C   UNL d   1     -51.950  23.276  33.400  0.00  0.00     0.045 C 
ENDBRANCH   5   8
ENDBRANCH   1   2
BRANCH   1  11
ATOM     11  C   UNL d   1     -50.478  27.383  33.879  0.00  0.00     0.100 A 
ATOM     12  C   UNL d   1     -50.192  27.034  34.571  0.00  0.00     0.025 A 
ATOM     13  C   UNL d   1     -49.582  27.439  34.981  0.00  0.00     0.005 A 
ATOM     14  C   UNL d   1     -49.278  28.158  34.703  0.00  0.00     0.039 A 
ATOM     15  C   UNL d   1     -49.587  28.473  34.013  0.00  0.00     0.005 A 
ATOM     16  C   UNL d   1     -50.186  28.087  33.600  0.00  0.00     0.025 A 
BRANCH  14  17
ATOM     17  C   UNL d   1     -48.691  28.547  35.097  0.00  0.00     0.196 C 
ATOM     18  O   UNL d   1     -48.029  28.840  34.684  0.00  0.00    -0.287 OA
ATOM     19  C   UNL d   1     -48.746  28.655  35.908  0.00  0.00     0.045 C 
ENDBRANCH  14  17
ENDBRANCH   1  11
TORSDOF 4
ENDMDL
