MODEL 1
REMARK VINA RESULT:      -6.9      0.000      0.000
REMARK  4 active torsions:
REMARK  status: ('A' for Active; 'I' for Inactive)
REMARK    1  A    between atoms: N_5  and  C_1 
REMARK    2  A    between atoms: C_10  and  C_2 
REMARK    3  A    between atoms: C_12  and  N_3 
REMARK       I    between atoms: C_8  and  N_5 
REMARK    4  A    between atoms: C_9  and  C_8 
ROOT
ATOM      1  C   UNL d   1     -48.068  12.488  22.967  0.00  0.00     0.170 A 
ATOM      2  C   UNL d   1     -47.253  12.386  23.055  0.00  0.00     0.076 A 
ATOM      3  N   UNL d   1     -48.582  11.856  23.124  0.00  0.00    -0.212 N 
ATOM      4  N   UNL d   1     -48.274  11.129  23.367  0.00  0.00    -0.161 NA
ATOM      5  C   UNL d   1     -46.949  11.654  23.299  0.00  0.00     0.218 A 
ATOM      6  C   UNL d   1     -47.458  11.027  23.454  0.00  0.00     0.140 A 
ATOM      7  O   UNL d   1     -46.134  11.552  23.386  0.00  0.00    -0.285 OA
ATOM      8  C   UNL d   1     -47.146  10.298  23.698  0.00  0.00     0.026 C 
ENDROOT
BRANCH   1   9
ATOM      9  N   UNL d   1     -48.371  13.208  22.727  0.00  0.00    -0.188 NA
ATOM     10  C   UNL d   1     -48.607  13.723  22.123  0.00  0.00     0.286 C 
ATOM     11  O   UNL d   1     -48.542  13.476  21.341  0.00  0.00    -0.265 OA
BRANCH  10  12
ATOM     12  C   UNL d   1     -48.900  14.465  22.308  0.00  0.00     0.087 A 
ATOM     13  S   UNL d   1     -49.168  15.037  21.774  0.00  0.00    -0.082 SA
ATOM     14  C   UNL d   1     -49.410  15.692  22.211  0.00  0.00     0.036 A 
ATOM     15  C   UNL d   1     -49.298  15.538  23.007  0.00  0.00     0.008 A 
ATOM     16  C   UNL d   1     -48.979  14.772  23.071  0.00  0.00     0.012 A 
ENDBRANCH  10  12
ENDBRANCH   1   9
BRANCH   2  17
ATOM     17  C   UNL d   1     -46.740  13.010  22.900  0.00  0.00     0.006 A 
ATOM     18  C   UNL d   1     -46.383  13.074  22.165  0.00  0.00     0.001 A 
ATOM     19  C   UNL d   1     -45.865  13.704  22.008  0.00  0.00     0.011 A 
ATOM     20  C   UNL d   1     -45.714  14.262  22.594  0.00  0.00     0.058 A 
ATOM     21  C   UNL d   1     -46.074  14.198  23.339  0.00  0.00     0.011 A 
ATOM     22 CL   UNL d   1     -45.199  14.887  22.436  0.00  0.00    -0.082 Cl
ATOM     23  C   UNL d   1     -46.586  13.570  23.486  0.00  0.00     0.001 A 
ENDBRANCH   2  17
BRANCH   3  24
ATOM     24  C   UNL d   1     -49.395  11.955  23.038  0.00  0.00     0.085 A 
ATOM     25  C   UNL d   1     -49.857  12.140  23.698  0.00  0.00     0.019 A 
ATOM     26  C   UNL d   1     -50.678  12.240  23.609  0.00  0.00     0.002 A 
ATOM     27  C   UNL d   1     -51.025  12.156  22.872  0.00  0.00     0.000 A 
ATOM     28  C   UNL d   1     -50.554  11.970  22.214  0.00  0.00     0.002 A 
ATOM     29  C   UNL d   1     -49.741  11.871  22.301  0.00  0.00     0.019 A 
ENDBRANCH   3  24
TORSDOF 4
ENDMDL
MODEL 2
REMARK VINA RESULT:      -5.8      1.501      3.210
REMARK  4 active torsions:
REMARK  status: ('A' for Active; 'I' for Inactive)
REMARK    1  A    between atoms: N_5  and  C_1 
REMARK    2  A    between atoms: C_10  and  C_2 
REMARK    3  A    between atoms: C_12  and  N_3 
REMARK       I    between atoms: C_8  and  N_5 
REMARK    4  A    between atoms: C_9  and  C_8 
ROOT
ATOM      1  C   UNL d   1     -47.404  12.570  22.944  0.00  0.00     0.170 A 
ATOM      2  C   UNL d   1     -47.786  11.856  23.108  0.00  0.00     0.076 A 
ATOM      3  N   UNL d   1     -46.580  12.627  23.030  0.00  0.00    -0.212 N 
ATOM      4  N   UNL d   1     -46.149  11.968  23.278  0.00  0.00    -0.161 NA
ATOM      5  C   UNL d   1     -47.347  11.198  23.357  0.00  0.00     0.218 A 
ATOM      6  C   UNL d   1     -46.531  11.253  23.442  0.00  0.00     0.140 A 
ATOM      7  O   UNL d   1     -47.729  10.483  23.520  0.00  0.00    -0.285 OA
ATOM      8  C   UNL d   1     -46.100  10.590  23.691  0.00  0.00     0.026 C 
ENDROOT
BRANCH   1   9
ATOM      9  N   UNL d   1     -47.833  13.221  22.698  0.00  0.00    -0.188 NA
ATOM     10  C   UNL d   1     -48.141  13.691  22.090  0.00  0.00     0.286 C 
ATOM     11  O   UNL d   1     -47.997  13.477  21.309  0.00  0.00    -0.265 OA
BRANCH  10  12
ATOM     12  C   UNL d   1     -48.581  14.358  22.270  0.00  0.00     0.087 A 
ATOM     13  S   UNL d   1     -48.976  14.849  21.733  0.00  0.00    -0.082 SA
ATOM     14  C   UNL d   1     -49.342  15.446  22.165  0.00  0.00     0.036 A 
ATOM     15  C   UNL d   1     -49.183  15.337  22.960  0.00  0.00     0.008 A 
ATOM     16  C   UNL d   1     -48.708  14.657  23.030  0.00  0.00     0.012 A 
ENDBRANCH  10  12
ENDBRANCH   1   9
BRANCH   2  17
ATOM     17  C   UNL d   1     -48.601  11.795  23.024  0.00  0.00     0.006 A 
ATOM     18  C   UNL d   1     -48.929  11.664  22.284  0.00  0.00     0.001 A 
ATOM     19  C   UNL d   1     -49.753  11.603  22.199  0.00  0.00     0.011 A 
ATOM     20  C   UNL d   1     -50.236  11.675  22.861  0.00  0.00     0.058 A 
ATOM     21  C   UNL d   1     -49.907  11.808  23.611  0.00  0.00     0.011 A 
ATOM     22 CL   UNL d   1     -51.055  11.614  22.773  0.00  0.00    -0.082 Cl
ATOM     23  C   UNL d   1     -49.089  11.868  23.686  0.00  0.00     0.001 A 
ENDBRANCH   2  17
BRANCH   3  24
ATOM     24  C   UNL d   1     -46.198  13.338  22.868  0.00  0.00     0.085 A 
ATOM     25  C   UNL d   1     -46.235  13.957  23.414  0.00  0.00     0.019 A 
ATOM     26  C   UNL d   1     -45.848  14.675  23.249  0.00  0.00     0.002 A 
ATOM     27  C   UNL d   1     -45.434  14.766  22.548  0.00  0.00     0.000 A 
ATOM     28  C   UNL d   1     -45.401  14.140  22.005  0.00  0.00     0.002 A 
ATOM     29  C   UNL d   1     -45.784  13.429  22.167  0.00  0.00     0.019 A 
ENDBRANCH   3  24
TORSDOF 4
ENDMDL
MODEL 3
REMARK VINA RESULT:      -5.3      1.444      2.988
REMARK  4 active torsions:
REMARK  status: ('A' for Active; 'I' for Inactive)
REMARK    1  A    between atoms: N_5  and  C_1 
REMARK    2  A    between atoms: C_10  and  C_2 
REMARK    3  A    between atoms: C_12  and  N_3 
REMARK       I    between atoms: C_8  and  N_5 
REMARK    4  A    between atoms: C_9  and  C_8 
ROOT
ATOM      1  C   UNL d   1     -47.990  13.764  22.819  0.00  0.00     0.170 A 
ATOM      2  C   UNL d   1     -47.243  13.418  22.886  0.00  0.00     0.076 A 
ATOM      3  N   UNL d   1     -48.060  14.591  22.783  0.00  0.00    -0.212 N 
ATOM      4  N   UNL d   1     -47.381  15.060  22.814  0.00  0.00    -0.161 NA
ATOM      5  C   UNL d   1     -46.565  13.894  22.917  0.00  0.00     0.218 A 
ATOM      6  C   UNL d   1     -46.634  14.713  22.881  0.00  0.00     0.140 A 
ATOM      7  O   UNL d   1     -45.818  13.548  22.983  0.00  0.00    -0.285 OA
ATOM      8  C   UNL d   1     -45.950  15.181  22.913  0.00  0.00     0.026 C 
ENDROOT
BRANCH   1   9
ATOM      9  N   UNL d   1     -48.661  13.298  22.788  0.00  0.00    -0.188 NA
ATOM     10  C   UNL d   1     -49.207  12.851  22.354  0.00  0.00     0.286 C 
ATOM     11  O   UNL d   1     -49.108  12.784  21.540  0.00  0.00    -0.265 OA
BRANCH  10  12
ATOM     12  C   UNL d   1     -49.832  12.485  22.735  0.00  0.00     0.087 A 
ATOM     13  S   UNL d   1     -50.515  12.181  22.382  0.00  0.00    -0.082 SA
ATOM     14  C   UNL d   1     -50.986  11.866  22.979  0.00  0.00     0.036 A 
ATOM     15  C   UNL d   1     -50.608  11.968  23.698  0.00  0.00     0.008 A 
ATOM     16  C   UNL d   1     -49.886  12.355  23.549  0.00  0.00     0.012 A 
ENDBRANCH  10  12
ENDBRANCH   1   9
BRANCH   2  17
ATOM     17  C   UNL d   1     -47.170  12.600  22.922  0.00  0.00     0.006 A 
ATOM     18  C   UNL d   1     -47.088  12.165  22.231  0.00  0.00     0.001 A 
ATOM     19  C   UNL d   1     -47.014  11.338  22.268  0.00  0.00     0.011 A 
ATOM     20  C   UNL d   1     -47.023  10.961  22.998  0.00  0.00     0.058 A 
ATOM     21  C   UNL d   1     -47.106  11.399  23.698  0.00  0.00     0.011 A 
ATOM     22 CL   UNL d   1     -46.949  10.139  23.031  0.00  0.00    -0.082 Cl
ATOM     23  C   UNL d   1     -47.179  12.218  23.653  0.00  0.00     0.001 A 
ENDBRANCH   2  17
BRANCH   3  24
ATOM     24  C   UNL d   1     -48.804  14.938  22.716  0.00  0.00     0.085 A 
ATOM     25  C   UNL d   1     -49.221  15.146  23.399  0.00  0.00     0.019 A 
ATOM     26  C   UNL d   1     -49.972  15.497  23.330  0.00  0.00     0.002 A 
ATOM     27  C   UNL d   1     -50.294  15.635  22.590  0.00  0.00     0.000 A 
ATOM     28  C   UNL d   1     -49.869  15.424  21.910  0.00  0.00     0.002 A 
ATOM     29  C   UNL d   1     -49.126  15.077  21.976  0.00  0.00     0.019 A 
ENDBRANCH   3  24
TORSDOF 4
ENDMDL
MODEL 4
REMARK VINA RESULT:      -5.1      8.029      9.902
REMARK  4 active torsions:
REMARK  status: ('A' for Active; 'I' for Inactive)
REMARK    1  A    between atoms: N_5  and  C_1 
REMARK    2  A    between atoms: C_10  and  C_2 
REMARK    3  A    between atoms: C_12  and  N_3 
REMARK       I    between atoms: C_8  and  N_5 
REMARK    4  A    between atoms: C_9  and  C_8 
ROOT
ATOM      1  C   UNL d   1     -39.312  14.088  18.911  0.00  0.00     0.170 A 
ATOM      2  C   UNL d   1     -39.478  14.098  19.721  0.00  0.00     0.076 A 
ATOM      3  N   UNL d   1     -38.683  13.628  18.624  0.00  0.00    -0.212 N 
ATOM      4  N   UNL d   1     -38.229  13.183  19.151  0.00  0.00    -0.161 NA
ATOM      5  C   UNL d   1     -39.017  13.649  20.245  0.00  0.00     0.218 A 
ATOM      6  C   UNL d   1     -38.395  13.193  19.961  0.00  0.00     0.140 A 
ATOM      7  O   UNL d   1     -39.183  13.659  21.054  0.00  0.00    -0.285 OA
ATOM      8  C   UNL d   1     -37.940  12.748  20.492  0.00  0.00     0.026 C 
ENDROOT
BRANCH   1   9
ATOM      9  N   UNL d   1     -39.763  14.529  18.392  0.00  0.00    -0.188 NA
ATOM     10  C   UNL d   1     -39.917  15.242  17.999  0.00  0.00     0.286 C 
ATOM     11  O   UNL d   1     -39.423  15.886  18.136  0.00  0.00    -0.265 OA
BRANCH  10  12
ATOM     12  C   UNL d   1     -40.551  15.298  17.484  0.00  0.00     0.087 A 
ATOM     13  S   UNL d   1     -40.709  15.920  16.961  0.00  0.00    -0.082 SA
ATOM     14  C   UNL d   1     -41.402  15.736  16.558  0.00  0.00     0.036 A 
ATOM     15  C   UNL d   1     -41.679  15.012  16.820  0.00  0.00     0.008 A 
ATOM     16  C   UNL d   1     -41.149  14.735  17.399  0.00  0.00     0.012 A 
ENDBRANCH  10  12
ENDBRANCH   1   9
BRANCH   2  17
ATOM     17  C   UNL d   1     -40.099  14.552  20.009  0.00  0.00     0.006 A 
ATOM     18  C   UNL d   1     -40.833  14.209  20.136  0.00  0.00     0.001 A 
ATOM     19  C   UNL d   1     -41.461  14.668  20.428  0.00  0.00     0.011 A 
ATOM     20  C   UNL d   1     -41.342  15.467  20.587  0.00  0.00     0.058 A 
ATOM     21  C   UNL d   1     -40.600  15.816  20.458  0.00  0.00     0.011 A 
ATOM     22 CL   UNL d   1     -41.968  15.920  20.876  0.00  0.00    -0.082 Cl
ATOM     23  C   UNL d   1     -39.983  15.353  20.169  0.00  0.00     0.001 A 
ENDBRANCH   2  17
BRANCH   3  24
ATOM     24  C   UNL d   1     -38.516  13.617  17.818  0.00  0.00     0.085 A 
ATOM     25  C   UNL d   1     -38.764  12.977  17.358  0.00  0.00     0.019 A 
ATOM     26  C   UNL d   1     -38.595  12.967  16.543  0.00  0.00     0.002 A 
ATOM     27  C   UNL d   1     -38.185  13.588  16.202  0.00  0.00     0.000 A 
ATOM     28  C   UNL d   1     -37.940  14.227  16.671  0.00  0.00     0.002 A 
ATOM     29  C   UNL d   1     -38.107  14.238  17.477  0.00  0.00     0.019 A 
ENDBRANCH   3  24
TORSDOF 4
ENDMDL
MODEL 5
REMARK VINA RESULT:      -4.1      1.299      2.903
REMARK  4 active torsions:
REMARK  status: ('A' for Active; 'I' for Inactive)
REMARK    1  A    between atoms: N_5  and  C_1 
REMARK    2  A    between atoms: C_10  and  C_2 
REMARK    3  A    between atoms: C_12  and  N_3 
REMARK       I    between atoms: C_8  and  N_5 
REMARK    4  A    between atoms: C_9  and  C_8 
ROOT
ATOM      1  C   UNL d   1     -48.691  13.565  22.735  0.00  0.00     0.170 A 
ATOM      2  C   UNL d   1     -48.172  14.204  22.663  0.00  0.00     0.076 A 
ATOM      3  N   UNL d   1     -49.505  13.701  22.816  0.00  0.00    -0.212 N 
ATOM      4  N   UNL d   1     -49.791  14.476  22.825  0.00  0.00    -0.161 NA
ATOM      5  C   UNL d   1     -48.465  14.980  22.672  0.00  0.00     0.218 A 
ATOM      6  C   UNL d   1     -49.272  15.116  22.753  0.00  0.00     0.140 A 
ATOM      7  O   UNL d   1     -47.947  15.619  22.600  0.00  0.00    -0.285 OA
ATOM      8  C   UNL d   1     -49.556  15.895  22.761  0.00  0.00     0.026 C 
ENDROOT
BRANCH   1   9
ATOM      9  N   UNL d   1     -48.406  12.799  22.726  0.00  0.00    -0.188 NA
ATOM     10  C   UNL d   1     -48.188  12.118  22.308  0.00  0.00     0.286 C 
ATOM     11  O   UNL d   1     -48.258  12.114  21.489  0.00  0.00    -0.265 OA
BRANCH  10  12
ATOM     12  C   UNL d   1     -47.909  11.462  22.711  0.00  0.00     0.087 A 
ATOM     13  S   UNL d   1     -47.754  10.714  22.391  0.00  0.00    -0.082 SA
ATOM     14  C   UNL d   1     -47.483  10.233  23.000  0.00  0.00     0.036 A 
ATOM     15  C   UNL d   1     -47.466  10.666  23.695  0.00  0.00     0.008 A 
ATOM     16  C   UNL d   1     -47.731  11.435  23.517  0.00  0.00     0.012 A 
ENDBRANCH  10  12
ENDBRANCH   1   9
BRANCH   2  17
ATOM     17  C   UNL d   1     -47.365  14.074  22.582  0.00  0.00     0.006 A 
ATOM     18  C   UNL d   1     -47.038  13.974  21.836  0.00  0.00     0.001 A 
ATOM     19  C   UNL d   1     -46.222  13.842  21.754  0.00  0.00     0.011 A 
ATOM     20  C   UNL d   1     -45.746  13.811  22.424  0.00  0.00     0.058 A 
ATOM     21  C   UNL d   1     -46.074  13.912  23.180  0.00  0.00     0.011 A 
ATOM     22 CL   UNL d   1     -44.936  13.680  22.340  0.00  0.00    -0.082 Cl
ATOM     23  C   UNL d   1     -46.884  14.043  23.252  0.00  0.00     0.001 A 
ENDBRANCH   2  17
BRANCH   3  24
ATOM     24  C   UNL d   1     -50.024  13.066  22.888  0.00  0.00     0.085 A 
ATOM     25  C   UNL d   1     -50.384  12.753  22.213  0.00  0.00     0.019 A 
ATOM     26  C   UNL d   1     -50.908  12.111  22.287  0.00  0.00     0.002 A 
ATOM     27  C   UNL d   1     -51.064  11.792  23.025  0.00  0.00     0.000 A 
ATOM     28  C   UNL d   1     -50.698  12.111  23.698  0.00  0.00     0.002 A 
ATOM     29  C   UNL d   1     -50.180  12.747  23.626  0.00  0.00     0.019 A 
ENDBRANCH   3  24
TORSDOF 4
ENDMDL
