MODEL 1
REMARK VINA RESULT:      -7.3      0.000      0.000
REMARK  5 active torsions:
REMARK  status: ('A' for Active; 'I' for Inactive)
REMARK    1  A    between atoms: C_2  and  C_1 
REMARK       I    between atoms: N_5  and  C_1 
REMARK    2  A    between atoms: C_3  and  C_14 
REMARK    3  A    between atoms: C_12  and  N_5 
REMARK    4  A    between atoms: O_13  and  C_9 
REMARK    5  A    between atoms: C_14  and  C_12 
ROOT
ATOM      1  C   UNL d   1      50.725  33.927  52.978  0.00  0.00     0.279 C 
ATOM      2  O   UNL d   1      50.604  33.195  53.318  0.00  0.00    -0.265 OA
ATOM      3  N   UNL d   1      51.456  34.299  53.004  0.00  0.00    -0.206 NA
ENDROOT
BRANCH   1   4
ATOM      4  C   UNL d   1      50.096  34.306  52.599  0.00  0.00     0.058 A 
ATOM      5  C   UNL d   1      49.641  34.835  53.007  0.00  0.00     0.007 A 
ATOM      6  C   UNL d   1      49.007  35.212  52.612  0.00  0.00     0.024 A 
ATOM      7  C   UNL d   1      48.852  35.054  51.851  0.00  0.00     0.094 A 
ATOM      8  C   UNL d   1      49.316  34.512  51.431  0.00  0.00     0.024 A 
ATOM      9  C   UNL d   1      49.944  34.133  51.806  0.00  0.00     0.007 A 
BRANCH   7  10
ATOM     10  O   UNL d   1      48.238  35.422  51.478  0.00  0.00    -0.328 OA
ATOM     11  C   UNL d   1      47.557  35.630  51.904  0.00  0.00     0.181 C 
ENDBRANCH   7  10
ENDBRANCH   1   4
BRANCH   3  12
ATOM     12  C   UNL d   1      52.079  33.910  53.387  0.00  0.00     0.102 C 
BRANCH  12  13
ATOM     13  C   UNL d   1      52.806  34.242  53.431  0.00  0.00     0.021 C 
BRANCH  13  14
ATOM     14  C   UNL d   1      53.404  33.887  53.861  0.00  0.00     0.002 A 
ATOM     15  C   UNL d   1      53.579  34.141  54.620  0.00  0.00     0.000 A 
ATOM     16  C   UNL d   1      54.183  33.783  55.055  0.00  0.00     0.000 A 
ATOM     17  C   UNL d   1      54.625  33.163  54.739  0.00  0.00     0.000 A 
ATOM     18  C   UNL d   1      54.445  32.907  53.968  0.00  0.00     0.000 A 
ATOM     19  C   UNL d   1      53.833  33.275  53.535  0.00  0.00     0.000 A 
ENDBRANCH  13  14
ENDBRANCH  12  13
ENDBRANCH   3  12
TORSDOF 5
ENDMDL
MODEL 2
REMARK VINA RESULT:      -7.0      2.921      4.952
REMARK  5 active torsions:
REMARK  status: ('A' for Active; 'I' for Inactive)
REMARK    1  A    between atoms: C_2  and  C_1 
REMARK       I    between atoms: N_5  and  C_1 
REMARK    2  A    between atoms: C_3  and  C_14 
REMARK    3  A    between atoms: C_12  and  N_5 
REMARK    4  A    between atoms: O_13  and  C_9 
REMARK    5  A    between atoms: C_14  and  C_12 
ROOT
ATOM      1  C   UNL d   1      52.809  31.481  52.985  0.00  0.00     0.279 C 
ATOM      2  O   UNL d   1      52.824  31.566  52.174  0.00  0.00    -0.265 OA
ATOM      3  N   UNL d   1      52.659  32.116  53.483  0.00  0.00    -0.206 NA
ENDROOT
BRANCH   1   4
ATOM      4  C   UNL d   1      52.949  30.737  53.316  0.00  0.00     0.058 A 
ATOM      5  C   UNL d   1      53.658  30.582  53.671  0.00  0.00     0.007 A 
ATOM      6  C   UNL d   1      53.787  29.825  54.003  0.00  0.00     0.024 A 
ATOM      7  C   UNL d   1      53.226  29.267  53.971  0.00  0.00     0.094 A 
ATOM      8  C   UNL d   1      52.498  29.422  53.608  0.00  0.00     0.024 A 
ATOM      9  C   UNL d   1      52.356  30.163  53.277  0.00  0.00     0.007 A 
BRANCH   7  10
ATOM     10  O   UNL d   1      53.359  28.539  54.293  0.00  0.00    -0.328 OA
ATOM     11  C   UNL d   1      53.434  28.456  55.116  0.00  0.00     0.181 C 
ENDBRANCH   7  10
ENDBRANCH   1   4
BRANCH   3  12
ATOM     12  C   UNL d   1      52.521  32.857  53.139  0.00  0.00     0.102 C 
BRANCH  12  13
ATOM     13  C   UNL d   1      52.121  33.426  53.536  0.00  0.00     0.021 C 
BRANCH  13  14
ATOM     14  C   UNL d   1      52.487  34.125  53.751  0.00  0.00     0.002 A 
ATOM     15  C   UNL d   1      52.563  34.738  53.213  0.00  0.00     0.000 A 
ATOM     16  C   UNL d   1      52.933  35.444  53.429  0.00  0.00     0.000 A 
ATOM     17  C   UNL d   1      53.234  35.551  54.188  0.00  0.00     0.000 A 
ATOM     18  C   UNL d   1      53.156  34.927  54.733  0.00  0.00     0.000 A 
ATOM     19  C   UNL d   1      52.781  34.216  54.506  0.00  0.00     0.000 A 
ENDBRANCH  13  14
ENDBRANCH  12  13
ENDBRANCH   3  12
TORSDOF 5
ENDMDL
MODEL 3
REMARK VINA RESULT:      -6.9      1.273      5.065
REMARK  5 active torsions:
REMARK  status: ('A' for Active; 'I' for Inactive)
REMARK    1  A    between atoms: C_2  and  C_1 
REMARK       I    between atoms: N_5  and  C_1 
REMARK    2  A    between atoms: C_3  and  C_14 
REMARK    3  A    between atoms: C_12  and  N_5 
REMARK    4  A    between atoms: O_13  and  C_9 
REMARK    5  A    between atoms: C_14  and  C_12 
ROOT
ATOM      1  C   UNL d   1      52.256  34.308  53.080  0.00  0.00     0.279 C 
ATOM      2  O   UNL d   1      52.453  34.811  52.469  0.00  0.00    -0.265 OA
ATOM      3  N   UNL d   1      51.478  34.086  53.221  0.00  0.00    -0.206 NA
ENDROOT
BRANCH   1   4
ATOM      4  C   UNL d   1      52.852  34.015  53.571  0.00  0.00     0.058 A 
ATOM      5  C   UNL d   1      53.063  34.424  54.235  0.00  0.00     0.007 A 
ATOM      6  C   UNL d   1      53.669  34.116  54.724  0.00  0.00     0.024 A 
ATOM      7  C   UNL d   1      54.031  33.436  54.541  0.00  0.00     0.094 A 
ATOM      8  C   UNL d   1      53.818  33.015  53.861  0.00  0.00     0.024 A 
ATOM      9  C   UNL d   1      53.223  33.305  53.370  0.00  0.00     0.007 A 
BRANCH   7  10
ATOM     10  O   UNL d   1      54.614  33.147  55.018  0.00  0.00    -0.328 OA
ATOM     11  C   UNL d   1      55.192  33.658  55.325  0.00  0.00     0.181 C 
ENDBRANCH   7  10
ENDBRANCH   1   4
BRANCH   3  12
ATOM     12  C   UNL d   1      50.890  34.386  52.723  0.00  0.00     0.102 C 
BRANCH  12  13
ATOM     13  C   UNL d   1      50.125  34.166  52.811  0.00  0.00     0.021 C 
BRANCH  13  14
ATOM     14  C   UNL d   1      49.529  34.541  52.394  0.00  0.00     0.002 A 
ATOM     15  C   UNL d   1      49.068  35.116  52.751  0.00  0.00     0.000 A 
ATOM     16  C   UNL d   1      48.467  35.494  52.329  0.00  0.00     0.000 A 
ATOM     17  C   UNL d   1      48.314  35.306  51.542  0.00  0.00     0.000 A 
ATOM     18  C   UNL d   1      48.784  34.721  51.182  0.00  0.00     0.000 A 
ATOM     19  C   UNL d   1      49.390  34.343  51.615  0.00  0.00     0.000 A 
ENDBRANCH  13  14
ENDBRANCH  12  13
ENDBRANCH   3  12
TORSDOF 5
ENDMDL
MODEL 4
REMARK VINA RESULT:      -6.9      1.125      5.093
REMARK  5 active torsions:
REMARK  status: ('A' for Active; 'I' for Inactive)
REMARK    1  A    between atoms: C_2  and  C_1 
REMARK       I    between atoms: N_5  and  C_1 
REMARK    2  A    between atoms: C_3  and  C_14 
REMARK    3  A    between atoms: C_12  and  N_5 
REMARK    4  A    between atoms: O_13  and  C_9 
REMARK    5  A    between atoms: C_14  and  C_12 
ROOT
ATOM      1  C   UNL d   1      51.393  34.165  52.538  0.00  0.00     0.279 C 
ATOM      2  O   UNL d   1      51.416  34.318  51.737  0.00  0.00    -0.265 OA
ATOM      3  N   UNL d   1      50.722  34.316  52.987  0.00  0.00    -0.206 NA
ENDROOT
BRANCH   1   4
ATOM      4  C   UNL d   1      52.060  33.848  52.909  0.00  0.00     0.058 A 
ATOM      5  C   UNL d   1      52.194  33.052  52.882  0.00  0.00     0.007 A 
ATOM      6  C   UNL d   1      52.874  32.744  53.261  0.00  0.00     0.024 A 
ATOM      7  C   UNL d   1      53.379  33.221  53.640  0.00  0.00     0.094 A 
ATOM      8  C   UNL d   1      53.244  34.038  53.669  0.00  0.00     0.024 A 
ATOM      9  C   UNL d   1      52.579  34.357  53.301  0.00  0.00     0.007 A 
BRANCH   7  10
ATOM     10  O   UNL d   1      54.032  32.916  54.003  0.00  0.00    -0.328 OA
ATOM     11  C   UNL d   1      54.049  32.838  54.829  0.00  0.00     0.181 C 
ENDBRANCH   7  10
ENDBRANCH   1   4
BRANCH   3  12
ATOM     12  C   UNL d   1      50.060  34.632  52.604  0.00  0.00     0.102 C 
BRANCH  12  13
ATOM     13  C   UNL d   1      49.384  34.779  53.007  0.00  0.00     0.021 C 
BRANCH  13  14
ATOM     14  C   UNL d   1      48.765  35.184  52.656  0.00  0.00     0.002 A 
ATOM     15  C   UNL d   1      48.497  34.971  51.912  0.00  0.00     0.000 A 
ATOM     16  C   UNL d   1      47.872  35.380  51.557  0.00  0.00     0.000 A 
ATOM     17  C   UNL d   1      47.504  36.009  51.940  0.00  0.00     0.000 A 
ATOM     18  C   UNL d   1      47.778  36.223  52.696  0.00  0.00     0.000 A 
ATOM     19  C   UNL d   1      48.410  35.805  53.047  0.00  0.00     0.000 A 
ENDBRANCH  13  14
ENDBRANCH  12  13
ENDBRANCH   3  12
TORSDOF 5
ENDMDL
MODEL 5
REMARK VINA RESULT:      -6.8      2.649      3.950
REMARK  5 active torsions:
REMARK  status: ('A' for Active; 'I' for Inactive)
REMARK    1  A    between atoms: C_2  and  C_1 
REMARK       I    between atoms: N_5  and  C_1 
REMARK    2  A    between atoms: C_3  and  C_14 
REMARK    3  A    between atoms: C_12  and  N_5 
REMARK    4  A    between atoms: O_13  and  C_9 
REMARK    5  A    between atoms: C_14  and  C_12 
ROOT
ATOM      1  C   UNL d   1      52.430  33.070  53.361  0.00  0.00     0.279 C 
ATOM      2  O   UNL d   1      51.673  32.941  53.085  0.00  0.00    -0.265 OA
ATOM      3  N   UNL d   1      52.985  32.466  53.395  0.00  0.00    -0.206 NA
ENDROOT
BRANCH   1   4
ATOM      4  C   UNL d   1      52.644  33.826  53.615  0.00  0.00     0.058 A 
ATOM      5  C   UNL d   1      53.006  33.921  54.331  0.00  0.00     0.007 A 
ATOM      6  C   UNL d   1      53.219  34.693  54.576  0.00  0.00     0.024 A 
ATOM      7  C   UNL d   1      53.069  35.321  54.117  0.00  0.00     0.094 A 
ATOM      8  C   UNL d   1      52.698  35.226  53.383  0.00  0.00     0.024 A 
ATOM      9  C   UNL d   1      52.482  34.473  53.127  0.00  0.00     0.007 A 
BRANCH   7  10
ATOM     10  O   UNL d   1      53.277  36.061  54.362  0.00  0.00    -0.328 OA
ATOM     11  C   UNL d   1      52.914  36.396  55.029  0.00  0.00     0.181 C 
ENDBRANCH   7  10
ENDBRANCH   1   4
BRANCH   3  12
ATOM     12  C   UNL d   1      52.758  31.712  53.138  0.00  0.00     0.102 C 
BRANCH  12  13
ATOM     13  C   UNL d   1      53.301  31.134  53.029  0.00  0.00     0.021 C 
BRANCH  13  14
ATOM     14  C   UNL d   1      53.190  30.388  53.346  0.00  0.00     0.002 A 
ATOM     15  C   UNL d   1      52.586  29.906  53.076  0.00  0.00     0.000 A 
ATOM     16  C   UNL d   1      52.473  29.153  53.395  0.00  0.00     0.000 A 
ATOM     17  C   UNL d   1      52.964  28.866  53.992  0.00  0.00     0.000 A 
ATOM     18  C   UNL d   1      53.577  29.358  54.265  0.00  0.00     0.000 A 
ATOM     19  C   UNL d   1      53.684  30.118  53.936  0.00  0.00     0.000 A 
ENDBRANCH  13  14
ENDBRANCH  12  13
ENDBRANCH   3  12
TORSDOF 5
ENDMDL
MODEL 6
REMARK VINA RESULT:      -6.7      2.118      2.664
REMARK  5 active torsions:
REMARK  status: ('A' for Active; 'I' for Inactive)
REMARK    1  A    between atoms: C_2  and  C_1 
REMARK       I    between atoms: N_5  and  C_1 
REMARK    2  A    between atoms: C_3  and  C_14 
REMARK    3  A    between atoms: C_12  and  N_5 
REMARK    4  A    between atoms: O_13  and  C_9 
REMARK    5  A    between atoms: C_14  and  C_12 
ROOT
ATOM      1  C   UNL d   1      51.979  33.245  53.143  0.00  0.00     0.279 C 
ATOM      2  O   UNL d   1      52.464  33.592  53.700  0.00  0.00    -0.265 OA
ATOM      3  N   UNL d   1      52.109  32.481  52.873  0.00  0.00    -0.206 NA
ENDROOT
BRANCH   1   4
ATOM      4  C   UNL d   1      51.339  33.674  52.842  0.00  0.00     0.058 A 
ATOM      5  C   UNL d   1      51.366  33.956  52.085  0.00  0.00     0.007 A 
ATOM      6  C   UNL d   1      50.712  34.388  51.792  0.00  0.00     0.024 A 
ATOM      7  C   UNL d   1      50.077  34.520  52.246  0.00  0.00     0.094 A 
ATOM      8  C   UNL d   1      50.046  34.232  53.022  0.00  0.00     0.024 A 
ATOM      9  C   UNL d   1      50.682  33.805  53.325  0.00  0.00     0.007 A 
BRANCH   7  10
ATOM     10  O   UNL d   1      49.450  34.938  51.955  0.00  0.00    -0.328 OA
ATOM     11  C   UNL d   1      48.972  34.610  51.361  0.00  0.00     0.181 C 
ENDBRANCH   7  10
ENDBRANCH   1   4
BRANCH   3  12
ATOM     12  C   UNL d   1      52.753  32.062  53.182  0.00  0.00     0.102 C 
BRANCH  12  13
ATOM     13  C   UNL d   1      53.029  31.406  52.817  0.00  0.00     0.021 C 
BRANCH  13  14
ATOM     14  C   UNL d   1      53.112  30.702  53.226  0.00  0.00     0.002 A 
ATOM     15  C   UNL d   1      52.601  30.077  53.088  0.00  0.00     0.000 A 
ATOM     16  C   UNL d   1      52.685  29.366  53.501  0.00  0.00     0.000 A 
ATOM     17  C   UNL d   1      53.282  29.266  54.059  0.00  0.00     0.000 A 
ATOM     18  C   UNL d   1      53.801  29.902  54.197  0.00  0.00     0.000 A 
ATOM     19  C   UNL d   1      53.708  30.617  53.775  0.00  0.00     0.000 A 
ENDBRANCH  13  14
ENDBRANCH  12  13
ENDBRANCH   3  12
TORSDOF 5
ENDMDL
MODEL 7
REMARK VINA RESULT:      -4.6      9.925     11.048
REMARK  5 active torsions:
REMARK  status: ('A' for Active; 'I' for Inactive)
REMARK    1  A    between atoms: C_2  and  C_1 
REMARK       I    between atoms: N_5  and  C_1 
REMARK    2  A    between atoms: C_3  and  C_14 
REMARK    3  A    between atoms: C_12  and  N_5 
REMARK    4  A    between atoms: O_13  and  C_9 
REMARK    5  A    between atoms: C_14  and  C_12 
ROOT
ATOM      1  C   UNL d   1      45.108  27.425  57.691  0.00  0.00     0.279 C 
ATOM      2  O   UNL d   1      45.777  27.540  57.240  0.00  0.00    -0.265 OA
ATOM      3  N   UNL d   1      44.627  28.051  57.916  0.00  0.00    -0.206 NA
ENDROOT
BRANCH   1   4
ATOM      4  C   UNL d   1      44.907  26.660  57.929  0.00  0.00     0.058 A 
ATOM      5  C   UNL d   1      45.048  26.427  58.690  0.00  0.00     0.007 A 
ATOM      6  C   UNL d   1      44.840  25.649  58.919  0.00  0.00     0.024 A 
ATOM      7  C   UNL d   1      44.511  25.147  58.402  0.00  0.00     0.094 A 
ATOM      8  C   UNL d   1      44.366  25.383  57.621  0.00  0.00     0.024 A 
ATOM      9  C   UNL d   1      44.565  26.146  57.380  0.00  0.00     0.007 A 
BRANCH   7  10
ATOM     10  O   UNL d   1      44.314  24.399  58.631  0.00  0.00    -0.328 OA
ATOM     11  C   UNL d   1      44.780  23.755  58.392  0.00  0.00     0.181 C 
ENDBRANCH   7  10
ENDBRANCH   1   4
BRANCH   3  12
ATOM     12  C   UNL d   1      44.838  28.813  57.671  0.00  0.00     0.102 C 
BRANCH  12  13
ATOM     13  C   UNL d   1      44.469  29.458  57.970  0.00  0.00     0.021 C 
BRANCH  13  14
ATOM     14  C   UNL d   1      44.532  30.186  57.602  0.00  0.00     0.002 A 
ATOM     15  C   UNL d   1      44.314  30.277  56.817  0.00  0.00     0.000 A 
ATOM     16  C   UNL d   1      44.378  31.012  56.446  0.00  0.00     0.000 A 
ATOM     17  C   UNL d   1      44.661  31.671  56.851  0.00  0.00     0.000 A 
ATOM     18  C   UNL d   1      44.882  31.576  57.648  0.00  0.00     0.000 A 
ATOM     19  C   UNL d   1      44.814  30.829  58.016  0.00  0.00     0.000 A 
ENDBRANCH  13  14
ENDBRANCH  12  13
ENDBRANCH   3  12
TORSDOF 5
ENDMDL
MODEL 8
REMARK VINA RESULT:      -4.5     10.794     11.696
REMARK  5 active torsions:
REMARK  status: ('A' for Active; 'I' for Inactive)
REMARK    1  A    between atoms: C_2  and  C_1 
REMARK       I    between atoms: N_5  and  C_1 
REMARK    2  A    between atoms: C_3  and  C_14 
REMARK    3  A    between atoms: C_12  and  N_5 
REMARK    4  A    between atoms: O_13  and  C_9 
REMARK    5  A    between atoms: C_14  and  C_12 
ROOT
ATOM      1  C   UNL d   1      44.689  25.543  56.115  0.00  0.00     0.279 C 
ATOM      2  O   UNL d   1      44.314  25.882  55.475  0.00  0.00    -0.265 OA
ATOM      3  N   UNL d   1      45.013  25.998  56.717  0.00  0.00    -0.206 NA
ENDROOT
BRANCH   1   4
ATOM      4  C   UNL d   1      44.746  24.720  56.161  0.00  0.00     0.058 A 
ATOM      5  C   UNL d   1      44.555  24.342  56.849  0.00  0.00     0.007 A 
ATOM      6  C   UNL d   1      44.617  23.508  56.883  0.00  0.00     0.024 A 
ATOM      7  C   UNL d   1      44.858  23.093  56.253  0.00  0.00     0.094 A 
ATOM      8  C   UNL d   1      45.055  23.478  55.546  0.00  0.00     0.024 A 
ATOM      9  C   UNL d   1      44.999  24.298  55.497  0.00  0.00     0.007 A 
BRANCH   7  10
ATOM     10  O   UNL d   1      44.915  22.289  56.294  0.00  0.00    -0.328 OA
ATOM     11  C   UNL d   1      45.593  21.937  56.617  0.00  0.00     0.181 C 
ENDBRANCH   7  10
ENDBRANCH   1   4
BRANCH   3  12
ATOM     12  C   UNL d   1      44.949  26.822  56.660  0.00  0.00     0.102 C 
BRANCH  12  13
ATOM     13  C   UNL d   1      45.460  27.301  57.047  0.00  0.00     0.021 C 
BRANCH  13  14
ATOM     14  C   UNL d   1      45.244  28.061  57.260  0.00  0.00     0.002 A 
ATOM     15  C   UNL d   1      45.151  28.263  58.048  0.00  0.00     0.000 A 
ATOM     16  C   UNL d   1      44.933  29.030  58.263  0.00  0.00     0.000 A 
ATOM     17  C   UNL d   1      44.804  29.611  57.694  0.00  0.00     0.000 A 
ATOM     18  C   UNL d   1      44.898  29.404  56.894  0.00  0.00     0.000 A 
ATOM     19  C   UNL d   1      45.119  28.626  56.685  0.00  0.00     0.000 A 
ENDBRANCH  13  14
ENDBRANCH  12  13
ENDBRANCH   3  12
TORSDOF 5
ENDMDL
