MODEL 1
REMARK VINA RESULT:      19.1      0.000      0.000
REMARK  3 active torsions:
REMARK  status: ('A' for Active; 'I' for Inactive)
REMARK    1  A    between atoms: N_2  and  S_1 
REMARK    2  A    between atoms: C_3  and  S_1 
REMARK    3  A    between atoms: C_4  and  N_2 
ROOT
ATOM      1  S   UNL d   1      45.161 -15.424  44.582  0.00  0.00     0.287 S 
ATOM      2  O   UNL d   1      44.793 -14.709  44.785  0.00  0.00    -0.198 OA
ATOM      3  O   UNL d   1      44.525 -15.839  44.905  0.00  0.00    -0.198 OA
ENDROOT
BRANCH   1   4
ATOM      4  N   UNL d   1      45.793 -15.004  44.261  0.00  0.00    -0.139 NA
BRANCH   4   5
ATOM      5  C   UNL d   1      45.806 -14.182  44.283  0.00  0.00     0.175 A 
ATOM      6  N   UNL d   1      45.539 -13.740  43.644  0.00  0.00    -0.226 NA
ATOM      7  C   UNL d   1      45.562 -12.966  43.690  0.00  0.00     0.083 A 
ATOM      8  C   UNL d   1      45.298 -12.491  43.059  0.00  0.00     0.021 C 
ATOM      9  C   UNL d   1      45.847 -12.581  44.361  0.00  0.00     0.019 A 
ATOM     10  C   UNL d   1      46.089 -12.997  44.940  0.00  0.00     0.005 A 
ATOM     11  C   UNL d   1      46.092 -13.796  44.955  0.00  0.00     0.040 A 
ENDBRANCH   4   5
ENDBRANCH   1   4
BRANCH   1  12
ATOM     12  C   UNL d   1      45.519 -16.130  44.385  0.00  0.00     0.105 A 
ATOM     13  C   UNL d   1      45.461 -16.423  43.616  0.00  0.00     0.013 A 
ATOM     14  C   UNL d   1      45.824 -17.137  43.419  0.00  0.00     0.001 A 
ATOM     15  C   UNL d   1      45.767 -17.428  42.654  0.00  0.00     0.000 A 
ATOM     16  C   UNL d   1      46.244 -17.559  43.990  0.00  0.00     0.000 A 
ATOM     17  C   UNL d   1      46.130 -18.145  42.452  0.00  0.00     0.000 A 
ATOM     18  C   UNL d   1      46.553 -18.567  43.030  0.00  0.00     0.000 A 
ATOM     19  C   UNL d   1      46.610 -18.276  43.794  0.00  0.00     0.000 A 
ATOM     20  C   UNL d   1      46.301 -17.265  44.759  0.00  0.00     0.001 A 
ATOM     21  C   UNL d   1      45.938 -16.552  44.954  0.00  0.00     0.013 A 
ENDBRANCH   1  12
TORSDOF 3
ENDMDL
MODEL 2
REMARK VINA RESULT:      22.1      1.183      1.746
REMARK  3 active torsions:
REMARK  status: ('A' for Active; 'I' for Inactive)
REMARK    1  A    between atoms: N_2  and  S_1 
REMARK    2  A    between atoms: C_3  and  S_1 
REMARK    3  A    between atoms: C_4  and  N_2 
ROOT
ATOM      1  S   UNL d   1      46.127 -16.857  44.459  0.00  0.00     0.287 S 
ATOM      2  O   UNL d   1      46.200 -16.195  44.953  0.00  0.00    -0.198 OA
ATOM      3  O   UNL d   1      46.638 -17.277  44.951  0.00  0.00    -0.198 OA
ENDROOT
BRANCH   1   4
ATOM      4  N   UNL d   1      45.617 -16.431  43.971  0.00  0.00    -0.139 NA
BRANCH   4   5
ATOM      5  C   UNL d   1      45.365 -15.677  44.182  0.00  0.00     0.175 A 
ATOM      6  N   UNL d   1      45.673 -15.013  43.809  0.00  0.00    -0.226 NA
ATOM      7  C   UNL d   1      45.419 -14.312  44.025  0.00  0.00     0.083 A 
ATOM      8  C   UNL d   1      45.712 -13.620  43.667  0.00  0.00     0.021 C 
ATOM      9  C   UNL d   1      44.851 -14.222  44.617  0.00  0.00     0.019 A 
ATOM     10  C   UNL d   1      44.576 -14.839  44.950  0.00  0.00     0.005 A 
ATOM     11  C   UNL d   1      44.796 -15.587  44.773  0.00  0.00     0.040 A 
ENDBRANCH   4   5
ENDBRANCH   1   4
BRANCH   1  12
ATOM     12  C   UNL d   1      46.058 -17.510  43.976  0.00  0.00     0.105 A 
ATOM     13  C   UNL d   1      46.380 -17.500  43.216  0.00  0.00     0.013 A 
ATOM     14  C   UNL d   1      46.309 -18.162  42.730  0.00  0.00     0.001 A 
ATOM     15  C   UNL d   1      46.629 -18.151  41.975  0.00  0.00     0.000 A 
ATOM     16  C   UNL d   1      45.917 -18.835  43.002  0.00  0.00     0.000 A 
ATOM     17  C   UNL d   1      46.560 -18.814  41.482  0.00  0.00     0.000 A 
ATOM     18  C   UNL d   1      46.164 -19.491  41.759  0.00  0.00     0.000 A 
ATOM     19  C   UNL d   1      45.844 -19.501  42.514  0.00  0.00     0.000 A 
ATOM     20  C   UNL d   1      45.595 -18.845  43.761  0.00  0.00     0.001 A 
ATOM     21  C   UNL d   1      45.667 -18.182  44.246  0.00  0.00     0.013 A 
ENDBRANCH   1  12
TORSDOF 3
ENDMDL
