MODEL 1
REMARK VINA RESULT:      29.1      0.000      0.000
REMARK  5 active torsions:
REMARK  status: ('A' for Active; 'I' for Inactive)
REMARK    1  A    between atoms: C_6  and  N_1 
REMARK    2  A    between atoms: C_7  and  C_2 
REMARK    3  A    between atoms: C_12  and  C_6 
REMARK    4  A    between atoms: C_11  and  C_7 
REMARK       I    between atoms: C_8  and  N_10 
REMARK    5  A    between atoms: N_10  and  C_11 
ROOT
ATOM      1  N   UNL d   1      14.008  12.589  -2.863  0.00  0.00    -0.289 N 
ATOM      2  C   UNL d   1      13.974  13.403  -2.690  0.00  0.00     0.149 A 
ATOM      3  N   UNL d   1      13.558  13.777  -3.300  0.00  0.00    -0.227 NA
ATOM      4  C   UNL d   1      13.611  12.463  -3.580  0.00  0.00     0.083 A 
ATOM      5  C   UNL d   1      13.332  13.200  -3.851  0.00  0.00     0.099 A 
ATOM      6  C   UNL d   1      13.466  11.779  -4.025  0.00  0.00     0.019 A 
ATOM      7  C   UNL d   1      12.910  13.245  -4.563  0.00  0.00     0.021 A 
ATOM      8  C   UNL d   1      13.047  11.827  -4.730  0.00  0.00     0.002 A 
ATOM      9  C   UNL d   1      12.771  12.557  -4.998  0.00  0.00     0.002 A 
ENDROOT
BRANCH   1  10
ATOM     10  C   UNL d   1      14.371  12.007  -2.404  0.00  0.00     0.082 C 
BRANCH  10  11
ATOM     11  C   UNL d   1      14.183  11.932  -1.606  0.00  0.00     0.018 A 
ATOM     12  C   UNL d   1      14.787  11.855  -1.052  0.00  0.00     0.002 A 
ATOM     13  C   UNL d   1      14.604  11.780  -0.245  0.00  0.00     0.000 A 
ATOM     14  C   UNL d   1      13.818  11.783  -0.016  0.00  0.00     0.000 A 
ATOM     15  C   UNL d   1      13.213  11.861  -0.574  0.00  0.00     0.000 A 
ATOM     16  C   UNL d   1      13.400  11.935  -1.372  0.00  0.00     0.002 A 
ENDBRANCH  10  11
ENDBRANCH   1  10
BRANCH   2  17
ATOM     17  C   UNL d   1      14.117  14.085  -2.251  0.00  0.00     0.058 C 
BRANCH  17  18
ATOM     18  C   UNL d   1      14.597  14.677  -2.559  0.00  0.00     0.105 C 
BRANCH  18  19
ATOM     19  N   UNL d   1      14.821  15.311  -2.085  0.00  0.00    -0.206 NA
ATOM     20  C   UNL d   1      14.767  16.078  -2.368  0.00  0.00     0.280 C 
ATOM     21  O   UNL d   1      14.486  16.213  -3.131  0.00  0.00    -0.265 OA
ATOM     22  C   UNL d   1      14.992  16.714  -1.893  0.00  0.00     0.068 C 
ENDBRANCH  18  19
ENDBRANCH  17  18
ENDBRANCH   2  17
TORSDOF 5
ENDMDL
