MODEL 1
REMARK VINA RESULT:      12.3      0.000      0.000
REMARK  3 active torsions:
REMARK  status: ('A' for Active; 'I' for Inactive)
REMARK    1  A    between atoms: C_6  and  N_1 
REMARK    2  A    between atoms: C_9  and  C_6 
REMARK    3  A    between atoms: C_10  and  C_9 
ROOT
ATOM      1  C   UNL d   1      58.924  49.548  50.306  0.00  0.00     0.086 C 
ENDROOT
BRANCH   1   2
ATOM      2  N   UNL d   1      59.639  49.606  50.672  0.00  0.00    -0.240 N 
ATOM      3  C   UNL d   1      60.388  49.655  50.285  0.00  0.00     0.267 A 
ATOM      4  C   UNL d   1      60.981  49.707  50.879  0.00  0.00     0.066 A 
ATOM      5  O   UNL d   1      60.501  49.651  49.491  0.00  0.00    -0.267 OA
ATOM      6  C   UNL d   1      60.589  49.690  51.630  0.00  0.00     0.066 A 
ATOM      7  C   UNL d   1      59.770  49.629  51.504  0.00  0.00     0.267 A 
ATOM      8  O   UNL d   1      59.206  49.596  52.069  0.00  0.00    -0.267 OA
ENDBRANCH   1   2
BRANCH   1   9
ATOM      9  C   UNL d   1      58.236  49.707  50.731  0.00  0.00     0.019 C 
BRANCH   9  10
ATOM     10  C   UNL d   1      57.508  49.661  50.360  0.00  0.00     0.002 A 
ATOM     11  C   UNL d   1      57.467  49.668  49.541  0.00  0.00     0.000 A 
ATOM     12  C   UNL d   1      56.741  49.622  49.165  0.00  0.00     0.000 A 
ATOM     13  C   UNL d   1      56.052  49.568  49.616  0.00  0.00     0.000 A 
ATOM     14  C   UNL d   1      56.096  49.561  50.440  0.00  0.00     0.000 A 
ATOM     15  C   UNL d   1      56.830  49.608  50.803  0.00  0.00     0.000 A 
ENDBRANCH   9  10
ENDBRANCH   1   9
TORSDOF 3
ENDMDL
