MODEL 1
REMARK VINA RESULT:      -6.1      0.000      0.000
REMARK  3 active torsions:
REMARK  status: ('A' for Active; 'I' for Inactive)
REMARK    1  A    between atoms: C_6  and  C_3 
REMARK    2  A    between atoms: C_9  and  C_6 
REMARK    3  A    between atoms: C_10  and  C_9 
ROOT
ATOM      1  N   UNL d   1     -47.511  13.796  22.944  0.00  0.00    -0.225 NA
ATOM      2  N   UNL d   1     -48.595  13.002  23.051  0.00  0.00    -0.225 NA
ATOM      3  C   UNL d   1     -48.355  13.774  22.865  0.00  0.00     0.163 A 
ATOM      4  C   UNL d   1     -47.261  13.065  23.168  0.00  0.00     0.101 A 
ATOM      5  C   UNL d   1     -47.944  12.564  23.235  0.00  0.00     0.101 A 
ATOM      6  C   UNL d   1     -46.536  12.707  23.338  0.00  0.00     0.021 A 
ATOM      7  C   UNL d   1     -47.856  11.775  23.458  0.00  0.00     0.021 A 
ATOM      8  C   UNL d   1     -46.458  11.978  23.543  0.00  0.00     0.002 A 
ATOM      9  C   UNL d   1     -47.121  11.492  23.609  0.00  0.00     0.002 A 
ENDROOT
BRANCH   3  10
ATOM     10  C   UNL d   1     -48.838  14.404  22.645  0.00  0.00     0.039 C 
BRANCH  10  11
ATOM     11  C   UNL d   1     -49.192  14.875  23.224  0.00  0.00     0.003 C 
BRANCH  11  12
ATOM     12  C   UNL d   1     -49.672  15.508  23.004  0.00  0.00     0.000 C 
ATOM     13  C   UNL d   1     -50.132  15.895  23.576  0.00  0.00     0.000 C 
ENDBRANCH  11  12
ENDBRANCH  10  11
ENDBRANCH   3  10
TORSDOF 3
ENDMDL
MODEL 2
REMARK VINA RESULT:      -6.0      1.666      2.353
REMARK  3 active torsions:
REMARK  status: ('A' for Active; 'I' for Inactive)
REMARK    1  A    between atoms: C_6  and  C_3 
REMARK    2  A    between atoms: C_9  and  C_6 
REMARK    3  A    between atoms: C_10  and  C_9 
ROOT
ATOM      1  N   UNL d   1     -47.400  12.080  23.215  0.00  0.00    -0.225 NA
ATOM      2  N   UNL d   1     -48.148  13.199  23.293  0.00  0.00    -0.225 NA
ATOM      3  C   UNL d   1     -48.173  12.376  23.399  0.00  0.00     0.163 A 
ATOM      4  C   UNL d   1     -46.935  12.703  23.007  0.00  0.00     0.101 A 
ATOM      5  C   UNL d   1     -47.406  13.409  23.057  0.00  0.00     0.101 A 
ATOM      6  C   UNL d   1     -46.152  12.812  22.771  0.00  0.00     0.021 A 
ATOM      7  C   UNL d   1     -47.073  14.140  22.874  0.00  0.00     0.021 A 
ATOM      8  C   UNL d   1     -45.846  13.488  22.603  0.00  0.00     0.002 A 
ATOM      9  C   UNL d   1     -46.303  14.173  22.651  0.00  0.00     0.002 A 
ENDROOT
BRANCH   3  10
ATOM     10  C   UNL d   1     -48.821  11.927  23.637  0.00  0.00     0.039 C 
BRANCH  10  11
ATOM     11  C   UNL d   1     -49.582  12.140  23.397  0.00  0.00     0.003 C 
BRANCH  11  12
ATOM     12  C   UNL d   1     -50.232  11.697  23.645  0.00  0.00     0.000 C 
ATOM     13  C   UNL d   1     -50.991  12.029  23.619  0.00  0.00     0.000 C 
ENDBRANCH  11  12
ENDBRANCH  10  11
ENDBRANCH   3  10
TORSDOF 3
ENDMDL
MODEL 3
REMARK VINA RESULT:      -5.9      1.653      2.943
REMARK  3 active torsions:
REMARK  status: ('A' for Active; 'I' for Inactive)
REMARK    1  A    between atoms: C_6  and  C_3 
REMARK    2  A    between atoms: C_9  and  C_6 
REMARK    3  A    between atoms: C_10  and  C_9 
ROOT
ATOM      1  N   UNL d   1     -48.829  13.485  22.676  0.00  0.00    -0.225 NA
ATOM      2  N   UNL d   1     -48.243  12.564  23.467  0.00  0.00    -0.225 NA
ATOM      3  C   UNL d   1     -48.095  13.255  23.033  0.00  0.00     0.163 A 
ATOM      4  C   UNL d   1     -49.390  12.950  22.892  0.00  0.00     0.101 A 
ATOM      5  C   UNL d   1     -49.021  12.369  23.391  0.00  0.00     0.101 A 
ATOM      6  C   UNL d   1     -50.196  12.839  22.750  0.00  0.00     0.021 A 
ATOM      7  C   UNL d   1     -49.466  11.746  23.698  0.00  0.00     0.021 A 
ATOM      8  C   UNL d   1     -50.605  12.263  23.034  0.00  0.00     0.002 A 
ATOM      9  C   UNL d   1     -50.246  11.700  23.519  0.00  0.00     0.002 A 
ENDROOT
BRANCH   3  10
ATOM     10  C   UNL d   1     -47.375  13.648  22.957  0.00  0.00     0.039 C 
BRANCH  10  11
ATOM     11  C   UNL d   1     -46.736  13.274  22.591  0.00  0.00     0.003 C 
BRANCH  11  12
ATOM     12  C   UNL d   1     -46.012  13.664  22.525  0.00  0.00     0.000 C 
ATOM     13  C   UNL d   1     -45.378  13.293  22.142  0.00  0.00     0.000 C 
ENDBRANCH  11  12
ENDBRANCH  10  11
ENDBRANCH   3  10
TORSDOF 3
ENDMDL
MODEL 4
REMARK VINA RESULT:      -5.7      1.403      3.390
REMARK  3 active torsions:
REMARK  status: ('A' for Active; 'I' for Inactive)
REMARK    1  A    between atoms: C_6  and  C_3 
REMARK    2  A    between atoms: C_9  and  C_6 
REMARK    3  A    between atoms: C_10  and  C_9 
ROOT
ATOM      1  N   UNL d   1     -47.791  14.893  22.695  0.00  0.00    -0.225 NA
ATOM      2  N   UNL d   1     -48.095  13.624  23.033  0.00  0.00    -0.225 NA
ATOM      3  C   UNL d   1     -47.460  14.143  22.910  0.00  0.00     0.163 A 
ATOM      4  C   UNL d   1     -48.592  14.821  22.691  0.00  0.00     0.101 A 
ATOM      5  C   UNL d   1     -48.785  14.021  22.904  0.00  0.00     0.101 A 
ATOM      6  C   UNL d   1     -49.236  15.315  22.537  0.00  0.00     0.021 A 
ATOM      7  C   UNL d   1     -49.573  13.783  22.946  0.00  0.00     0.021 A 
ATOM      8  C   UNL d   1     -49.963  15.093  22.576  0.00  0.00     0.002 A 
ATOM      9  C   UNL d   1     -50.150  14.316  22.783  0.00  0.00     0.002 A 
ENDROOT
BRANCH   3  10
ATOM     10  C   UNL d   1     -46.657  13.969  22.982  0.00  0.00     0.039 C 
BRANCH  10  11
ATOM     11  C   UNL d   1     -46.286  13.493  22.418  0.00  0.00     0.003 C 
BRANCH  11  12
ATOM     12  C   UNL d   1     -45.482  13.320  22.489  0.00  0.00     0.000 C 
ATOM     13  C   UNL d   1     -45.077  12.977  21.853  0.00  0.00     0.000 C 
ENDBRANCH  11  12
ENDBRANCH  10  11
ENDBRANCH   3  10
TORSDOF 3
ENDMDL
MODEL 5
REMARK VINA RESULT:      -4.8      1.888      3.683
REMARK  3 active torsions:
REMARK  status: ('A' for Active; 'I' for Inactive)
REMARK    1  A    between atoms: C_6  and  C_3 
REMARK    2  A    between atoms: C_9  and  C_6 
REMARK    3  A    between atoms: C_10  and  C_9 
ROOT
ATOM      1  N   UNL d   1     -45.983  12.870  23.090  0.00  0.00    -0.225 NA
ATOM      2  N   UNL d   1     -46.550  13.292  21.942  0.00  0.00    -0.225 NA
ATOM      3  C   UNL d   1     -45.823  13.225  22.337  0.00  0.00     0.163 A 
ATOM      4  C   UNL d   1     -46.774  12.733  23.140  0.00  0.00     0.101 A 
ATOM      5  C   UNL d   1     -47.132  12.999  22.416  0.00  0.00     0.101 A 
ATOM      6  C   UNL d   1     -47.291  12.412  23.698  0.00  0.00     0.021 A 
ATOM      7  C   UNL d   1     -47.946  12.928  22.309  0.00  0.00     0.021 A 
ATOM      8  C   UNL d   1     -48.043  12.347  23.596  0.00  0.00     0.002 A 
ATOM      9  C   UNL d   1     -48.390  12.606  22.894  0.00  0.00     0.002 A 
ENDROOT
BRANCH   3  10
ATOM     10  C   UNL d   1     -45.084  13.456  22.056  0.00  0.00     0.039 C 
BRANCH  10  11
ATOM     11  C   UNL d   1     -44.510  12.887  21.888  0.00  0.00     0.003 C 
BRANCH  11  12
ATOM     12  C   UNL d   1     -43.799  13.111  21.533  0.00  0.00     0.000 C 
ATOM     13  C   UNL d   1     -43.204  12.547  21.412  0.00  0.00     0.000 C 
ENDBRANCH  11  12
ENDBRANCH  10  11
ENDBRANCH   3  10
TORSDOF 3
ENDMDL
MODEL 6
REMARK VINA RESULT:      -4.1      2.046      3.035
REMARK  3 active torsions:
REMARK  status: ('A' for Active; 'I' for Inactive)
REMARK    1  A    between atoms: C_6  and  C_3 
REMARK    2  A    between atoms: C_9  and  C_6 
REMARK    3  A    between atoms: C_10  and  C_9 
ROOT
ATOM      1  N   UNL d   1     -45.296  12.128  23.124  0.00  0.00    -0.225 NA
ATOM      2  N   UNL d   1     -46.119  11.181  23.617  0.00  0.00    -0.225 NA
ATOM      3  C   UNL d   1     -46.093  11.972  23.368  0.00  0.00     0.163 A 
ATOM      4  C   UNL d   1     -44.867  11.454  23.226  0.00  0.00     0.101 A 
ATOM      5  C   UNL d   1     -45.386  10.857  23.537  0.00  0.00     0.101 A 
ATOM      6  C   UNL d   1     -44.084  11.220  23.106  0.00  0.00     0.021 A 
ATOM      7  C   UNL d   1     -45.097  10.102  23.697  0.00  0.00     0.021 A 
ATOM      8  C   UNL d   1     -43.819  10.522  23.255  0.00  0.00     0.002 A 
ATOM      9  C   UNL d   1     -44.323   9.943  23.557  0.00  0.00     0.002 A 
ENDROOT
BRANCH   3  10
ATOM     10  C   UNL d   1     -46.717  12.510  23.356  0.00  0.00     0.039 C 
BRANCH  10  11
ATOM     11  C   UNL d   1     -46.595  13.279  23.082  0.00  0.00     0.003 C 
BRANCH  11  12
ATOM     12  C   UNL d   1     -47.157  13.864  23.231  0.00  0.00     0.000 C 
ATOM     13  C   UNL d   1     -47.447  14.325  22.606  0.00  0.00     0.000 C 
ENDBRANCH  11  12
ENDBRANCH  10  11
ENDBRANCH   3  10
TORSDOF 3
ENDMDL
