MODEL 1
REMARK VINA RESULT:      15.0      0.000      0.000
REMARK  6 active torsions:
REMARK  status: ('A' for Active; 'I' for Inactive)
REMARK       I    between atoms: C_4  and  N_1 
REMARK    1  A    between atoms: C_8  and  C_3 
REMARK    2  A    between atoms: C_16  and  C_4 
REMARK    3  A    between atoms: C_13  and  C_5 
REMARK    4  A    between atoms: N_6  and  C_9 
REMARK    5  A    between atoms: O_24  and  C_11 
REMARK    6  A    between atoms: O_25  and  C_17 
ROOT
ATOM      1  N   UNL d   1     -41.861-122.767 -52.643  0.00  0.00    -0.195 N 
ATOM      2  N   UNL d   1     -41.875-123.260 -51.963  0.00  0.00    -0.163 NA
ATOM      3  C   UNL d   1     -41.810-121.984 -52.368  0.00  0.00     0.088 A 
ATOM      4  C   UNL d   1     -41.893-123.022 -53.462  0.00  0.00     0.280 C 
ATOM      5  C   UNL d   1     -41.832-122.765 -51.294  0.00  0.00     0.103 A 
ATOM      6  C   UNL d   1     -41.793-121.997 -51.543  0.00  0.00     0.040 A 
ATOM      7  O   UNL d   1     -41.942-123.813 -53.648  0.00  0.00    -0.265 OA
ENDROOT
BRANCH   3   8
ATOM      8  C   UNL d   1     -41.783-121.339 -52.891  0.00  0.00     0.020 A 
ATOM      9  C   UNL d   1     -41.625-120.688 -52.425  0.00  0.00     0.028 A 
ATOM     10  C   UNL d   1     -41.559-119.945 -52.761  0.00  0.00     0.116 A 
ATOM     11  C   UNL d   1     -41.653-119.849 -53.577  0.00  0.00     0.116 A 
ATOM     12  C   UNL d   1     -41.817-120.537 -54.040  0.00  0.00     0.026 A 
ATOM     13  C   UNL d   1     -41.883-121.279 -53.704  0.00  0.00     0.004 A 
BRANCH  10  14
ATOM     14  O   UNL d   1     -41.396-119.278 -52.278  0.00  0.00    -0.326 OA
ATOM     15  C   UNL d   1     -41.125-119.374 -51.480  0.00  0.00     0.181 C 
ENDBRANCH  10  14
BRANCH  11  16
ATOM     16  O   UNL d   1     -41.587-119.088 -53.930  0.00  0.00    -0.326 OA
ATOM     17  C   UNL d   1     -42.074-118.492 -53.695  0.00  0.00     0.181 C 
ENDBRANCH  11  16
ENDBRANCH   3   8
BRANCH   4  18
ATOM     18  C   UNL d   1     -41.871-122.432 -54.078  0.00  0.00     0.058 A 
ATOM     19  C   UNL d   1     -42.567-122.073 -54.337  0.00  0.00     0.005 A 
ATOM     20  C   UNL d   1     -42.560-121.501 -54.932  0.00  0.00     0.000 A 
ATOM     21  C   UNL d   1     -41.841-121.287 -55.274  0.00  0.00     0.000 A 
ATOM     22  C   UNL d   1     -41.146-121.646 -55.015  0.00  0.00     0.000 A 
ATOM     23  C   UNL d   1     -41.153-122.222 -54.415  0.00  0.00     0.005 A 
ENDBRANCH   4  18
BRANCH   5  24
ATOM     24  C   UNL d   1     -41.827-122.965 -50.497  0.00  0.00     0.019 A 
ATOM     25  C   UNL d   1     -42.217-122.447 -49.973  0.00  0.00     0.003 A 
ATOM     26  C   UNL d   1     -42.233-122.611 -49.176  0.00  0.00     0.024 A 
ATOM     27  C   UNL d   1     -41.860-123.299 -48.884  0.00  0.00     0.127 A 
ATOM     28  C   UNL d   1     -41.470-123.817 -49.408  0.00  0.00     0.024 A 
ATOM     29  C   UNL d   1     -41.463-123.632 -50.225  0.00  0.00     0.003 A 
BRANCH  27  30
ATOM     30  N   UNL d   1     -41.880-123.465 -48.053  0.00  0.00    -0.114 N 
ATOM     31  O   UNL d   1     -41.179-123.646 -47.643  0.00  0.00    -0.532 OA
ATOM     32  O   UNL d   1     -42.609-123.447 -47.646  0.00  0.00    -0.532 OA
ENDBRANCH  27  30
ENDBRANCH   5  24
TORSDOF 6
ENDMDL
MODEL 2
REMARK VINA RESULT:      16.2      1.737      5.290
REMARK  6 active torsions:
REMARK  status: ('A' for Active; 'I' for Inactive)
REMARK       I    between atoms: C_4  and  N_1 
REMARK    1  A    between atoms: C_8  and  C_3 
REMARK    2  A    between atoms: C_16  and  C_4 
REMARK    3  A    between atoms: C_13  and  C_5 
REMARK    4  A    between atoms: N_6  and  C_9 
REMARK    5  A    between atoms: O_24  and  C_11 
REMARK    6  A    between atoms: O_25  and  C_17 
ROOT
ATOM      1  N   UNL d   1     -41.828-121.703 -51.315  0.00  0.00    -0.195 N 
ATOM      2  N   UNL d   1     -41.744-121.482 -52.120  0.00  0.00    -0.163 NA
ATOM      3  C   UNL d   1     -42.252-122.418 -51.307  0.00  0.00     0.088 A 
ATOM      4  C   UNL d   1     -41.532-121.275 -50.633  0.00  0.00     0.280 C 
ATOM      5  C   UNL d   1     -42.120-122.067 -52.581  0.00  0.00     0.103 A 
ATOM      6  C   UNL d   1     -42.424-122.628 -52.086  0.00  0.00     0.040 A 
ATOM      7  O   UNL d   1     -41.123-120.577 -50.726  0.00  0.00    -0.265 OA
ENDROOT
BRANCH   3   8
ATOM      8  C   UNL d   1     -42.441-122.805 -50.597  0.00  0.00     0.020 A 
ATOM      9  C   UNL d   1     -43.253-122.763 -50.536  0.00  0.00     0.028 A 
ATOM     10  C   UNL d   1     -43.637-123.094 -49.893  0.00  0.00     0.116 A 
ATOM     11  C   UNL d   1     -43.203-123.473 -49.301  0.00  0.00     0.116 A 
ATOM     12  C   UNL d   1     -42.362-123.505 -49.384  0.00  0.00     0.026 A 
ATOM     13  C   UNL d   1     -41.979-123.174 -50.027  0.00  0.00     0.004 A 
BRANCH  10  14
ATOM     14  O   UNL d   1     -44.473-123.048 -49.834  0.00  0.00    -0.326 OA
ATOM     15  C   UNL d   1     -44.949-122.865 -50.512  0.00  0.00     0.181 C 
ENDBRANCH  10  14
BRANCH  11  16
ATOM     16  O   UNL d   1     -43.591-123.815 -48.637  0.00  0.00    -0.326 OA
ATOM     17  C   UNL d   1     -43.348-123.634 -47.892  0.00  0.00     0.181 C 
ENDBRANCH  11  16
ENDBRANCH   3   8
BRANCH   4  18
ATOM     18  C   UNL d   1     -41.675-121.592 -49.853  0.00  0.00     0.058 A 
ATOM     19  C   UNL d   1     -41.130-122.102 -49.504  0.00  0.00     0.005 A 
ATOM     20  C   UNL d   1     -41.255-122.416 -48.751  0.00  0.00     0.000 A 
ATOM     21  C   UNL d   1     -41.942-122.213 -48.342  0.00  0.00     0.000 A 
ATOM     22  C   UNL d   1     -42.486-121.704 -48.691  0.00  0.00     0.000 A 
ATOM     23  C   UNL d   1     -42.360-121.387 -49.450  0.00  0.00     0.005 A 
ENDBRANCH   4  18
BRANCH   5  24
ATOM     24  C   UNL d   1     -42.198-122.116 -53.397  0.00  0.00     0.019 A 
ATOM     25  C   UNL d   1     -42.948-121.946 -53.718  0.00  0.00     0.003 A 
ATOM     26  C   UNL d   1     -43.066-121.984 -54.522  0.00  0.00     0.024 A 
ATOM     27  C   UNL d   1     -42.434-122.194 -55.027  0.00  0.00     0.127 A 
ATOM     28  C   UNL d   1     -41.683-122.365 -54.706  0.00  0.00     0.024 A 
ATOM     29  C   UNL d   1     -41.580-122.321 -53.876  0.00  0.00     0.003 A 
BRANCH  27  30
ATOM     30  N   UNL d   1     -42.561-122.233 -55.863  0.00  0.00    -0.114 N 
ATOM     31  O   UNL d   1     -42.066-121.812 -56.384  0.00  0.00    -0.532 OA
ATOM     32  O   UNL d   1     -43.187-122.697 -56.165  0.00  0.00    -0.532 OA
ENDBRANCH  27  30
ENDBRANCH   5  24
TORSDOF 6
ENDMDL
