MODEL 1
REMARK VINA RESULT:      75.0      0.000      0.000
REMARK  3 active torsions:
REMARK  status: ('A' for Active; 'I' for Inactive)
REMARK    1  A    between atoms: C_4  and  C_1 
REMARK    2  A    between atoms: C_9  and  N_2 
REMARK    3  A    between atoms: C_8  and  C_13 
ROOT
ATOM      1  N   UNL d   1      59.205  49.379  50.314  0.00  0.00    -0.273 N 
ATOM      2  C   UNL d   1      60.413  49.512  50.897  0.00  0.00     0.056 A 
ATOM      3  C   UNL d   1      59.772  49.494  49.714  0.00  0.00     0.265 A 
ATOM      4  C   UNL d   1      59.601  49.390  51.035  0.00  0.00     0.086 A 
ATOM      5  C   UNL d   1      60.511  49.575  50.072  0.00  0.00     0.066 A 
ATOM      6  O   UNL d   1      59.611  49.521  48.901  0.00  0.00    -0.267 OA
ENDROOT
BRANCH   1   7
ATOM      7  C   UNL d   1      58.414  49.277  50.167  0.00  0.00     0.067 A 
ATOM      8  C   UNL d   1      57.937  48.923  50.730  0.00  0.00     0.021 A 
ATOM      9  C   UNL d   1      57.123  48.813  50.593  0.00  0.00     0.073 A 
ATOM     10  C   UNL d   1      56.793  49.069  49.867  0.00  0.00     0.004 A 
ATOM     11  C   UNL d   1      57.271  49.422  49.305  0.00  0.00     0.001 A 
ATOM     12  C   UNL d   1      58.084  49.529  49.452  0.00  0.00     0.018 A 
BRANCH   9  13
ATOM     13  C   UNL d   1      56.663  48.460  51.161  0.00  0.00     0.419 C 
ATOM     14  F   UNL d   1      56.190  48.090  51.745  0.00  0.00    -0.166 F 
ATOM     15  F   UNL d   1      56.409  49.195  51.422  0.00  0.00    -0.166 F 
ATOM     16  F   UNL d   1      56.910  47.711  50.910  0.00  0.00    -0.166 F 
ENDBRANCH   9  13
ENDBRANCH   1   7
BRANCH   2  17
ATOM     17  C   UNL d   1      60.967  49.553  51.498  0.00  0.00     0.142 A 
ATOM     18  N   UNL d   1      61.762  49.603  51.455  0.00  0.00    -0.227 NA
ATOM     19  C   UNL d   1      62.071  49.629  52.226  0.00  0.00     0.099 A 
ATOM     20  C   UNL d   1      62.839  49.681  52.502  0.00  0.00     0.021 A 
ATOM     21  C   UNL d   1      61.438  49.594  52.743  0.00  0.00     0.076 A 
ATOM     22  C   UNL d   1      62.967  49.697  53.325  0.00  0.00     0.002 A 
ATOM     23  C   UNL d   1      62.334  49.662  53.843  0.00  0.00     0.002 A 
ATOM     24  C   UNL d   1      61.555  49.610  53.552  0.00  0.00     0.019 A 
ATOM     25  N   UNL d   1      60.747  49.546  52.286  0.00  0.00    -0.338 N 
ATOM     26  H   UNL d   1      59.961  49.499  52.576  0.00  0.00     0.167 HD
ENDBRANCH   2  17
TORSDOF 3
ENDMDL
MODEL 2
REMARK VINA RESULT:      75.9      2.802      3.472
REMARK  3 active torsions:
REMARK  status: ('A' for Active; 'I' for Inactive)
REMARK    1  A    between atoms: C_4  and  C_1 
REMARK    2  A    between atoms: C_9  and  N_2 
REMARK    3  A    between atoms: C_8  and  C_13 
ROOT
ATOM      1  N   UNL d   1      60.303  48.632  50.837  0.00  0.00    -0.273 N 
ATOM      2  C   UNL d   1      61.261  47.793  50.397  0.00  0.00     0.056 A 
ATOM      3  C   UNL d   1      61.045  48.973  51.004  0.00  0.00     0.265 A 
ATOM      4  C   UNL d   1      60.439  47.911  50.466  0.00  0.00     0.086 A 
ATOM      5  C   UNL d   1      61.630  48.458  50.735  0.00  0.00     0.066 A 
ATOM      6  O   UNL d   1      61.163  49.704  51.377  0.00  0.00    -0.267 OA
ENDROOT
BRANCH   1   7
ATOM      7  C   UNL d   1      59.597  48.985  51.024  0.00  0.00     0.067 A 
ATOM      8  C   UNL d   1      59.014  49.058  50.455  0.00  0.00     0.021 A 
ATOM      9  C   UNL d   1      58.284  49.417  50.632  0.00  0.00     0.073 A 
ATOM     10  C   UNL d   1      58.150  49.708  51.407  0.00  0.00     0.004 A 
ATOM     11  C   UNL d   1      58.734  49.634  51.975  0.00  0.00     0.001 A 
ATOM     12  C   UNL d   1      59.460  49.273  51.787  0.00  0.00     0.018 A 
BRANCH   9  13
ATOM     13  C   UNL d   1      57.716  49.482  50.057  0.00  0.00     0.419 C 
ATOM     14  F   UNL d   1      57.124  49.547  49.468  0.00  0.00    -0.166 F 
ATOM     15  F   UNL d   1      58.294  49.609  49.489  0.00  0.00    -0.166 F 
ATOM     16  F   UNL d   1      57.120  49.354  50.618  0.00  0.00    -0.166 F 
ENDBRANCH   9  13
ENDBRANCH   1   7
BRANCH   2  17
ATOM     17  C   UNL d   1      61.588  47.126  50.053  0.00  0.00     0.142 A 
ATOM     18  N   UNL d   1      62.247  47.054  49.608  0.00  0.00    -0.227 NA
ATOM     19  C   UNL d   1      62.339  46.257  49.392  0.00  0.00     0.099 A 
ATOM     20  C   UNL d   1      62.909  45.877  48.946  0.00  0.00     0.021 A 
ATOM     21  C   UNL d   1      61.714  45.842  49.720  0.00  0.00     0.076 A 
ATOM     22  C   UNL d   1      62.842  45.055  48.829  0.00  0.00     0.002 A 
ATOM     23  C   UNL d   1      62.218  44.640  49.156  0.00  0.00     0.002 A 
ATOM     24  C   UNL d   1      61.641  45.035  49.610  0.00  0.00     0.019 A 
ATOM     25  N   UNL d   1      61.245  46.388  50.133  0.00  0.00    -0.338 N 
ATOM     26  H   UNL d   1      60.542  46.217  50.559  0.00  0.00     0.167 HD
ENDBRANCH   2  17
TORSDOF 3
ENDMDL
