MODEL 1
REMARK VINA RESULT:      14.7      0.000      0.000
REMARK  4 active torsions:
REMARK  status: ('A' for Active; 'I' for Inactive)
REMARK    1  A    between atoms: S_10  and  C_3 
REMARK    2  A    between atoms: C_11  and  C_7 
REMARK    3  A    between atoms: C_13  and  S_10 
REMARK    4  A    between atoms: C_15  and  C_13 
ROOT
ATOM      1  N   UNL d   1     -41.426-122.095 -51.826  0.00  0.00    -0.186 N 
ATOM      2  N   UNL d   1     -41.558-122.561 -52.486  0.00  0.00    -0.162 NA
ATOM      3  C   UNL d   1     -41.459-122.264 -51.014  0.00  0.00     0.217 A 
ATOM      4  C   UNL d   1     -41.218-121.299 -51.905  0.00  0.00     0.187 A 
ATOM      5  N   UNL d   1     -41.272-121.575 -50.609  0.00  0.00    -0.120 NA
ATOM      6  N   UNL d   1     -41.122-120.977 -51.159  0.00  0.00    -0.127 NA
ATOM      7  C   UNL d   1     -41.481-122.228 -53.242  0.00  0.00     0.102 A 
ATOM      8  C   UNL d   1     -41.142-120.969 -52.665  0.00  0.00     0.042 A 
ATOM      9  C   UNL d   1     -41.273-121.431 -53.326  0.00  0.00     0.024 A 
ENDROOT
BRANCH   3  10
ATOM     10  S   UNL d   1     -41.644-122.987 -50.657  0.00  0.00    -0.046 SA
BRANCH  10  11
ATOM     11  C   UNL d   1     -41.351-123.171 -49.919  0.00  0.00     0.038 C 
BRANCH  11  12
ATOM     12  C   UNL d   1     -41.863-123.330 -49.300  0.00  0.00     0.007 A 
ATOM     13  C   UNL d   1     -42.610-123.659 -49.437  0.00  0.00     0.003 A 
ATOM     14  C   UNL d   1     -43.124-123.817 -48.802  0.00  0.00     0.030 A 
ATOM     15  C   UNL d   1     -42.884-123.644 -48.039  0.00  0.00     0.140 A 
ATOM     16  C   UNL d   1     -42.146-123.316 -47.882  0.00  0.00     0.030 A 
ATOM     17  F   UNL d   1     -43.398-123.802 -47.411  0.00  0.00    -0.204 F 
ATOM     18  C   UNL d   1     -41.633-123.159 -48.516  0.00  0.00     0.003 A 
ENDBRANCH  11  12
ENDBRANCH  10  11
ENDBRANCH   3  10
BRANCH   7  19
ATOM     19  C   UNL d   1     -41.613-122.694 -53.912  0.00  0.00     0.022 A 
ATOM     20  C   UNL d   1     -41.123-123.328 -54.069  0.00  0.00     0.022 A 
ATOM     21  C   UNL d   1     -41.240-123.802 -54.732  0.00  0.00     0.099 A 
ATOM     22  N   UNL d   1     -41.884-123.617 -55.249  0.00  0.00    -0.242 NA
ATOM     23  C   UNL d   1     -42.374-122.981 -55.089  0.00  0.00     0.099 A 
ATOM     24  C   UNL d   1     -42.239-122.520 -54.420  0.00  0.00     0.022 A 
ENDBRANCH   7  19
TORSDOF 4
ENDMDL
