MODEL 1
REMARK VINA RESULT:      64.6      0.000      0.000
REMARK  2 active torsions:
REMARK  status: ('A' for Active; 'I' for Inactive)
REMARK    1  A    between atoms: C_6  and  C_1 
REMARK       I    between atoms: N_10  and  C_6 
REMARK    2  A    between atoms: C_12  and  N_10 
ROOT
ATOM      1  C   UNL d   1      45.625 -17.902  40.213  0.00  0.00     0.108 A 
ATOM      2  C   UNL d   1      45.116 -17.135  39.259  0.00  0.00     0.044 A 
ATOM      3  C   UNL d   1      45.945 -17.104  39.207  0.00  0.00     0.112 A 
ATOM      4  S   UNL d   1      46.250 -17.584  39.804  0.00  0.00    -0.061 SA
ATOM      5  C   UNL d   1      44.918 -17.634  39.888  0.00  0.00     0.116 A 
ATOM      6  N   UNL d   1      46.297 -16.637  38.616  0.00  0.00    -0.239 NA
ATOM      7  C   UNL d   1      45.012 -16.243  38.142  0.00  0.00     0.056 A 
ATOM      8  C   UNL d   1      45.841 -16.212  38.090  0.00  0.00     0.081 A 
ATOM      9  C   UNL d   1      44.653 -16.699  38.719  0.00  0.00     0.008 A 
ATOM     10  C   UNL d   1      44.550 -15.819  37.617  0.00  0.00     0.193 A 
ATOM     11  C   UNL d   1      45.738 -15.320  36.973  0.00  0.00     0.042 A 
ATOM     12  C   UNL d   1      46.195 -15.757  37.514  0.00  0.00    -0.003 A 
ATOM     13  C   UNL d   1      44.909 -15.351  37.025  0.00  0.00     0.019 A 
ATOM     14  O   UNL d   1      43.715 -15.850  37.669  0.00  0.00    -0.287 OA
ATOM     15  N   UNL d   1      44.141 -17.830  40.147  0.00  0.00    -0.147 N 
ATOM     16  C   UNL d   1      46.414 -15.045  36.617  0.00  0.00     0.009 C 
ATOM     17  C   UNL d   1      45.817 -14.809  36.331  0.00  0.00     0.009 C 
ENDROOT
BRANCH   1  18
ATOM     18  C   UNL d   1      45.704 -18.414  40.855  0.00  0.00     0.287 C 
ATOM     19  N   UNL d   1      46.344 -18.350  41.379  0.00  0.00    -0.208 NA
ATOM     20  O   UNL d   1      45.138 -18.993  40.970  0.00  0.00    -0.265 OA
BRANCH  19  21
ATOM     21  C   UNL d   1      46.422 -18.859  42.015  0.00  0.00     0.085 A 
ATOM     22  C   UNL d   1      46.566 -19.664  41.906  0.00  0.00     0.018 A 
ATOM     23  C   UNL d   1      46.643 -20.168  42.536  0.00  0.00     0.002 A 
ATOM     24  C   UNL d   1      46.635 -19.979  41.135  0.00  0.00     0.002 C 
ATOM     25  C   UNL d   1      46.573 -19.847  43.311  0.00  0.00     0.000 A 
ATOM     26  C   UNL d   1      46.430 -19.048  43.415  0.00  0.00     0.002 A 
ATOM     27  C   UNL d   1      46.644 -20.320  43.984  0.00  0.00     0.000 C 
ATOM     28  C   UNL d   1      46.356 -18.558  42.773  0.00  0.00     0.018 A 
ATOM     29  C   UNL d   1      46.209 -17.736  42.879  0.00  0.00     0.002 C 
ENDBRANCH  19  21
ENDBRANCH   1  18
TORSDOF 2
ENDMDL
