MODEL 1
REMARK VINA RESULT:      -2.1      0.000      0.000
REMARK  5 active torsions:
REMARK  status: ('A' for Active; 'I' for Inactive)
REMARK    1  A    between atoms: O_8  and  C_1 
REMARK    2  A    between atoms: C_10  and  C_5 
REMARK    3  A    between atoms: C_12  and  O_8 
REMARK    4  A    between atoms: N_9  and  C_10 
REMARK    5  A    between atoms: O_24  and  C_17 
ROOT
ATOM      1  C   UNL d   1     -41.380-122.371 -50.610  0.00  0.00     0.161 A 
ATOM      2  C   UNL d   1     -41.327-122.386 -52.270  0.00  0.00     0.108 A 
ATOM      3  C   UNL d   1     -41.251-123.101 -51.842  0.00  0.00     0.064 A 
ATOM      4  C   UNL d   1     -41.277-123.093 -51.021  0.00  0.00     0.222 A 
ATOM      5  C   UNL d   1     -41.301-122.393 -53.101  0.00  0.00     0.079 A 
ATOM      6  O   UNL d   1     -41.430-121.665 -51.872  0.00  0.00    -0.305 OA
ATOM      7  C   UNL d   1     -41.456-121.662 -51.034  0.00  0.00     0.126 A 
ATOM      8  C   UNL d   1     -41.148-123.813 -52.259  0.00  0.00     0.009 A 
ATOM      9  C   UNL d   1     -41.199-123.110 -53.500  0.00  0.00     0.199 A 
ATOM     10  O   UNL d   1     -41.201-123.796 -50.595  0.00  0.00    -0.284 OA
ATOM     11  C   UNL d   1     -41.123-123.817 -53.081  0.00  0.00     0.042 A 
ATOM     12  O   UNL d   1     -41.173-123.114 -54.323  0.00  0.00    -0.286 OA
ATOM     13  C   UNL d   1     -41.557-120.952 -50.631  0.00  0.00     0.029 C 
ENDROOT
BRANCH   1  14
ATOM     14  O   UNL d   1     -41.405-122.367 -49.787  0.00  0.00    -0.300 OA
BRANCH  14  15
ATOM     15  C   UNL d   1     -42.056-122.685 -49.395  0.00  0.00     0.122 A 
ATOM     16  C   UNL d   1     -42.003-122.850 -48.587  0.00  0.00     0.117 A 
ATOM     17  C   UNL d   1     -42.650-123.167 -48.193  0.00  0.00     0.026 A 
ATOM     18  C   UNL d   1     -43.351-123.320 -48.600  0.00  0.00     0.002 A 
ATOM     19  C   UNL d   1     -43.398-123.151 -49.414  0.00  0.00     0.002 A 
ATOM     20  C   UNL d   1     -42.747-122.834 -49.805  0.00  0.00     0.027 A 
BRANCH  16  21
ATOM     21  O   UNL d   1     -41.310-122.699 -48.181  0.00  0.00    -0.326 OA
ATOM     22  C   UNL d   1     -41.155-123.081 -47.464  0.00  0.00     0.181 C 
ENDBRANCH  16  21
ENDBRANCH  14  15
ENDBRANCH   1  14
BRANCH   5  23
ATOM     23  C   UNL d   1     -41.376-121.698 -53.513  0.00  0.00     0.086 C 
BRANCH  23  24
ATOM     24  N   UNL d   1     -41.778-121.687 -54.236  0.00  0.00    -0.300 N 
ATOM     25  C   UNL d   1     -41.359-121.553 -54.934  0.00  0.00     0.100 A 
ATOM     26  C   UNL d   1     -41.758-121.543 -55.654  0.00  0.00     0.100 A 
ATOM     27  N   UNL d   1     -42.575-121.666 -55.676  0.00  0.00    -0.299 N 
ATOM     28  C   UNL d   1     -42.990-121.799 -54.975  0.00  0.00     0.100 A 
ATOM     29  C   UNL d   1     -42.974-121.655 -56.396  0.00  0.00     0.100 C 
ATOM     30  C   UNL d   1     -42.588-121.809 -54.253  0.00  0.00     0.100 A 
ENDBRANCH  23  24
ENDBRANCH   5  23
TORSDOF 5
ENDMDL
MODEL 2
REMARK VINA RESULT:      -1.7      1.662      5.205
REMARK  5 active torsions:
REMARK  status: ('A' for Active; 'I' for Inactive)
REMARK    1  A    between atoms: O_8  and  C_1 
REMARK    2  A    between atoms: C_10  and  C_5 
REMARK    3  A    between atoms: C_12  and  O_8 
REMARK    4  A    between atoms: N_9  and  C_10 
REMARK    5  A    between atoms: O_24  and  C_17 
ROOT
ATOM      1  C   UNL d   1     -41.233-122.385 -53.238  0.00  0.00     0.161 A 
ATOM      2  C   UNL d   1     -41.213-122.503 -51.581  0.00  0.00     0.108 A 
ATOM      3  C   UNL d   1     -41.178-121.752 -51.949  0.00  0.00     0.064 A 
ATOM      4  C   UNL d   1     -41.187-121.693 -52.768  0.00  0.00     0.222 A 
ATOM      5  C   UNL d   1     -41.203-122.563 -50.753  0.00  0.00     0.079 A 
ATOM      6  O   UNL d   1     -41.258-123.194 -52.039  0.00  0.00    -0.305 OA
ATOM      7  C   UNL d   1     -41.268-123.130 -52.874  0.00  0.00     0.126 A 
ATOM      8  C   UNL d   1     -41.133-121.071 -51.473  0.00  0.00     0.009 A 
ATOM      9  C   UNL d   1     -41.159-121.876 -50.294  0.00  0.00     0.199 A 
ATOM     10  O   UNL d   1     -41.153-120.955 -53.133  0.00  0.00    -0.284 OA
ATOM     11  C   UNL d   1     -41.124-121.134 -50.652  0.00  0.00     0.042 A 
ATOM     12  O   UNL d   1     -41.149-121.939 -49.473  0.00  0.00    -0.286 OA
ATOM     13  C   UNL d   1     -41.312-123.809 -53.337  0.00  0.00     0.029 C 
ENDROOT
BRANCH   1  14
ATOM     14  O   UNL d   1     -41.242-122.323 -54.059  0.00  0.00    -0.300 OA
BRANCH  14  15
ATOM     15  C   UNL d   1     -41.959-122.244 -54.456  0.00  0.00     0.122 A 
ATOM     16  C   UNL d   1     -41.991-122.391 -55.269  0.00  0.00     0.117 A 
ATOM     17  C   UNL d   1     -42.704-122.313 -55.669  0.00  0.00     0.026 A 
ATOM     18  C   UNL d   1     -43.387-122.089 -55.263  0.00  0.00     0.002 A 
ATOM     19  C   UNL d   1     -43.348-121.943 -54.444  0.00  0.00     0.002 A 
ATOM     20  C   UNL d   1     -42.631-122.022 -54.048  0.00  0.00     0.027 A 
BRANCH  16  21
ATOM     21  O   UNL d   1     -41.316-122.612 -55.674  0.00  0.00    -0.326 OA
ATOM     22  C   UNL d   1     -41.123-122.250 -56.392  0.00  0.00     0.181 C 
ENDBRANCH  16  21
ENDBRANCH  14  15
ENDBRANCH   1  14
BRANCH   5  23
ATOM     23  C   UNL d   1     -41.238-123.294 -50.400  0.00  0.00     0.086 C 
BRANCH  23  24
ATOM     24  N   UNL d   1     -41.762-123.425 -49.773  0.00  0.00    -0.300 N 
ATOM     25  C   UNL d   1     -42.569-123.293 -49.882  0.00  0.00     0.100 A 
ATOM     26  C   UNL d   1     -43.091-123.424 -49.259  0.00  0.00     0.100 A 
ATOM     27  N   UNL d   1     -42.807-123.686 -48.529  0.00  0.00    -0.299 N 
ATOM     28  C   UNL d   1     -41.999-123.817 -48.425  0.00  0.00     0.100 A 
ATOM     29  C   UNL d   1     -43.329-123.817 -47.906  0.00  0.00     0.100 C 
ATOM     30  C   UNL d   1     -41.475-123.686 -49.051  0.00  0.00     0.100 A 
ENDBRANCH  23  24
ENDBRANCH   5  23
TORSDOF 5
ENDMDL
MODEL 3
REMARK VINA RESULT:       0.7      0.838      1.567
REMARK  5 active torsions:
REMARK  status: ('A' for Active; 'I' for Inactive)
REMARK    1  A    between atoms: O_8  and  C_1 
REMARK    2  A    between atoms: C_10  and  C_5 
REMARK    3  A    between atoms: C_12  and  O_8 
REMARK    4  A    between atoms: N_9  and  C_10 
REMARK    5  A    between atoms: O_24  and  C_17 
ROOT
ATOM      1  C   UNL d   1     -41.372-122.468 -50.522  0.00  0.00     0.161 A 
ATOM      2  C   UNL d   1     -41.288-121.936 -52.094  0.00  0.00     0.108 A 
ATOM      3  C   UNL d   1     -41.412-121.389 -51.472  0.00  0.00     0.064 A 
ATOM      4  C   UNL d   1     -41.454-121.652 -50.695  0.00  0.00     0.222 A 
ATOM      5  C   UNL d   1     -41.245-121.671 -52.880  0.00  0.00     0.079 A 
ATOM      6  O   UNL d   1     -41.205-122.746 -51.932  0.00  0.00    -0.305 OA
ATOM      7  C   UNL d   1     -41.249-123.010 -51.138  0.00  0.00     0.126 A 
ATOM      8  C   UNL d   1     -41.492-120.582 -51.654  0.00  0.00     0.009 A 
ATOM      9  C   UNL d   1     -41.327-120.864 -53.044  0.00  0.00     0.199 A 
ATOM     10  O   UNL d   1     -41.577-121.116 -50.080  0.00  0.00    -0.284 OA
ATOM     11  C   UNL d   1     -41.450-120.322 -52.434  0.00  0.00     0.042 A 
ATOM     12  O   UNL d   1     -41.284-120.605 -53.824  0.00  0.00    -0.286 OA
ATOM     13  C   UNL d   1     -41.169-123.811 -50.967  0.00  0.00     0.029 C 
ENDROOT
BRANCH   1  14
ATOM     14  O   UNL d   1     -41.415-122.727 -49.742  0.00  0.00    -0.300 OA
BRANCH  14  15
ATOM     15  C   UNL d   1     -42.129-123.004 -49.440  0.00  0.00     0.122 A 
ATOM     16  C   UNL d   1     -42.151-123.323 -48.678  0.00  0.00     0.117 A 
ATOM     17  C   UNL d   1     -42.862-123.600 -48.373  0.00  0.00     0.026 A 
ATOM     18  C   UNL d   1     -43.552-123.561 -48.824  0.00  0.00     0.002 A 
ATOM     19  C   UNL d   1     -43.523-123.238 -49.591  0.00  0.00     0.002 A 
ATOM     20  C   UNL d   1     -42.808-122.962 -49.892  0.00  0.00     0.027 A 
BRANCH  16  21
ATOM     21  O   UNL d   1     -41.470-123.363 -48.228  0.00  0.00    -0.326 OA
ATOM     22  C   UNL d   1     -41.470-123.096 -47.445  0.00  0.00     0.181 C 
ENDBRANCH  16  21
ENDBRANCH  14  15
ENDBRANCH   1  14
BRANCH   5  23
ATOM     23  C   UNL d   1     -41.124-122.204 -53.480  0.00  0.00     0.086 C 
BRANCH  23  24
ATOM     24  N   UNL d   1     -41.652-122.237 -54.116  0.00  0.00    -0.300 N 
ATOM     25  C   UNL d   1     -42.463-122.187 -53.976  0.00  0.00     0.100 A 
ATOM     26  C   UNL d   1     -42.989-122.219 -54.609  0.00  0.00     0.100 A 
ATOM     27  N   UNL d   1     -42.704-122.300 -55.380  0.00  0.00    -0.299 N 
ATOM     28  C   UNL d   1     -41.892-122.350 -55.515  0.00  0.00     0.100 A 
ATOM     29  C   UNL d   1     -43.231-122.333 -56.013  0.00  0.00     0.100 C 
ATOM     30  C   UNL d   1     -41.365-122.318 -54.880  0.00  0.00     0.100 A 
ENDBRANCH  23  24
ENDBRANCH   5  23
TORSDOF 5
ENDMDL
