MODEL 1
REMARK VINA RESULT:      39.2      0.000      0.000
REMARK  4 active torsions:
REMARK  status: ('A' for Active; 'I' for Inactive)
REMARK    1  A    between atoms: C_2  and  C_3 
REMARK    2  A    between atoms: N_4  and  C_2 
REMARK    3  A    between atoms: C_12  and  N_4 
REMARK    4  A    between atoms: N_8  and  C_7 
ROOT
ATOM      1  C   UNL d   1      13.263  12.407  -3.726  0.00  0.00     0.153 C 
ATOM      2  S   UNL d   1      13.556  11.789  -4.187  0.00  0.00    -0.056 SA
ENDROOT
BRANCH   1   3
ATOM      3  C   UNL d   1      13.253  13.172  -4.030  0.00  0.00     0.109 A 
ATOM      4  N   UNL d   1      13.713  13.764  -3.679  0.00  0.00    -0.243 NA
ATOM      5  C   UNL d   1      13.702  14.528  -3.983  0.00  0.00     0.081 A 
ATOM      6  C   UNL d   1      13.233  14.706  -4.638  0.00  0.00     0.018 A 
ATOM      7  C   UNL d   1      14.163  15.123  -3.632  0.00  0.00     0.019 A 
ATOM      8  C   UNL d   1      12.772  14.120  -4.992  0.00  0.00     0.003 A 
ATOM      9  C   UNL d   1      13.225  15.479  -4.942  0.00  0.00     0.002 A 
ATOM     10  C   UNL d   1      12.781  13.351  -4.689  0.00  0.00     0.021 A 
ATOM     11  C   UNL d   1      13.683  16.066  -4.591  0.00  0.00     0.000 A 
ATOM     12  C   UNL d   1      14.152  15.888  -3.936  0.00  0.00     0.002 A 
ENDBRANCH   1   3
BRANCH   1  13
ATOM     13  N   UNL d   1      12.981  12.261  -2.965  0.00  0.00    -0.233 NA
BRANCH  13  14
ATOM     14  C   UNL d   1      13.491  12.311  -2.323  0.00  0.00     0.083 A 
ATOM     15  C   UNL d   1      14.232  11.943  -2.360  0.00  0.00     0.021 A 
ATOM     16  C   UNL d   1      14.741  11.995  -1.716  0.00  0.00     0.019 A 
ATOM     17  C   UNL d   1      14.510  12.415  -1.034  0.00  0.00     0.064 A 
ATOM     18  C   UNL d   1      13.773  12.779  -1.004  0.00  0.00     0.019 A 
ATOM     19  C   UNL d   1      13.263  12.727  -1.648  0.00  0.00     0.021 A 
BRANCH  17  20
ATOM     20  N   UNL d   1      15.031  12.464  -0.384  0.00  0.00    -0.301 N 
ATOM     21  C   UNL d   1      15.237  13.196  -0.087  0.00  0.00     0.100 C 
ATOM     22  C   UNL d   1      15.333  11.782  -0.046  0.00  0.00     0.100 C 
ENDBRANCH  17  20
ENDBRANCH  13  14
ENDBRANCH   1  13
TORSDOF 4
ENDMDL
