MODEL 1
REMARK VINA RESULT:      37.7      0.000      0.000
REMARK  4 active torsions:
REMARK  status: ('A' for Active; 'I' for Inactive)
REMARK    1  A    between atoms: N_3  and  S_1 
REMARK    2  A    between atoms: N_4  and  S_1 
REMARK    3  A    between atoms: N_2  and  C_7 
REMARK    4  A    between atoms: C_10  and  N_4 
ROOT
ATOM      1  N   UNL d   1      59.000  49.693  50.318  0.00  0.00    -0.144 NA
ENDROOT
BRANCH   1   2
ATOM      2  S   UNL d   1      58.326  49.678  50.795  0.00  0.00     0.351 S 
ATOM      3  O   UNL d   1      58.804  49.674  51.468  0.00  0.00    -0.180 OA
ATOM      4  O   UNL d   1      57.982  49.664  51.544  0.00  0.00    -0.180 OA
BRANCH   2   5
ATOM      5  N   UNL d   1      57.576  49.675  50.450  0.00  0.00    -0.215 N 
ATOM      6  C   UNL d   1      56.904  49.703  50.927  0.00  0.00     0.093 A 
ATOM      7  C   UNL d   1      56.154  49.699  50.582  0.00  0.00     0.020 A 
ATOM      8  C   UNL d   1      56.081  49.667  49.764  0.00  0.00     0.003 A 
ATOM      9  C   UNL d   1      56.751  49.638  49.285  0.00  0.00     0.020 A 
ATOM     10  C   UNL d   1      57.500  49.642  49.629  0.00  0.00     0.093 A 
ENDBRANCH   2   5
ENDBRANCH   1   2
BRANCH   1  11
ATOM     11  C   UNL d   1      59.608  49.151  50.446  0.00  0.00     0.095 A 
ATOM     12  C   UNL d   1      60.361  49.298  50.142  0.00  0.00     0.022 A 
ATOM     13  C   UNL d   1      60.970  48.756  50.270  0.00  0.00     0.025 A 
ATOM     14  C   UNL d   1      60.825  48.067  50.702  0.00  0.00     0.127 A 
ATOM     15  C   UNL d   1      60.068  47.918  51.007  0.00  0.00     0.025 A 
ATOM     16  C   UNL d   1      59.460  48.460  50.879  0.00  0.00     0.022 A 
BRANCH  14  17
ATOM     17  N   UNL d   1      61.433  47.524  50.830  0.00  0.00    -0.114 N 
ATOM     18  O   UNL d   1      61.966  47.351  50.219  0.00  0.00    -0.532 OA
ATOM     19  O   UNL d   1      61.510  47.157  51.564  0.00  0.00    -0.532 OA
ENDBRANCH  14  17
ENDBRANCH   1  11
TORSDOF 4
ENDMDL
MODEL 2
REMARK VINA RESULT:      39.7      1.472      4.029
REMARK  4 active torsions:
REMARK  status: ('A' for Active; 'I' for Inactive)
REMARK    1  A    between atoms: N_3  and  S_1 
REMARK    2  A    between atoms: N_4  and  S_1 
REMARK    3  A    between atoms: N_2  and  C_7 
REMARK    4  A    between atoms: C_10  and  N_4 
ROOT
ATOM      1  N   UNL d   1      59.869  49.490  51.009  0.00  0.00    -0.144 NA
ENDROOT
BRANCH   1   2
ATOM      2  S   UNL d   1      60.449  49.099  50.569  0.00  0.00     0.351 S 
ATOM      3  O   UNL d   1      60.434  49.706  50.011  0.00  0.00    -0.180 OA
ATOM      4  O   UNL d   1      60.943  49.064  49.909  0.00  0.00    -0.180 OA
BRANCH   2   5
ATOM      5  N   UNL d   1      60.750  48.378  50.833  0.00  0.00    -0.215 N 
ATOM      6  C   UNL d   1      61.054  47.836  50.292  0.00  0.00     0.093 A 
ATOM      7  C   UNL d   1      61.356  47.114  50.555  0.00  0.00     0.020 A 
ATOM      8  C   UNL d   1      61.352  46.940  51.359  0.00  0.00     0.003 A 
ATOM      9  C   UNL d   1      61.049  47.479  51.903  0.00  0.00     0.020 A 
ATOM     10  C   UNL d   1      60.748  48.200  51.639  0.00  0.00     0.093 A 
ENDBRANCH   2   5
ENDBRANCH   1   2
BRANCH   1  11
ATOM     11  C   UNL d   1      59.093  49.521  50.733  0.00  0.00     0.095 A 
ATOM     12  C   UNL d   1      58.934  49.397  49.932  0.00  0.00     0.022 A 
ATOM     13  C   UNL d   1      58.158  49.429  49.656  0.00  0.00     0.025 A 
ATOM     14  C   UNL d   1      57.539  49.583  50.181  0.00  0.00     0.127 A 
ATOM     15  C   UNL d   1      57.697  49.708  50.985  0.00  0.00     0.025 A 
ATOM     16  C   UNL d   1      58.474  49.676  51.261  0.00  0.00     0.022 A 
BRANCH  14  17
ATOM     17  N   UNL d   1      56.762  49.614  49.905  0.00  0.00    -0.114 N 
ATOM     18  O   UNL d   1      56.616  49.707  49.094  0.00  0.00    -0.532 OA
ATOM     19  O   UNL d   1      56.133  49.553  50.436  0.00  0.00    -0.532 OA
ENDBRANCH  14  17
ENDBRANCH   1  11
TORSDOF 4
ENDMDL
