MODEL 1
REMARK VINA RESULT:      -5.5      0.000      0.000
REMARK  1 active torsions:
REMARK  status: ('A' for Active; 'I' for Inactive)
REMARK    1  A    between atoms: C_5  and  C_1 
ROOT
ATOM      1  C   UNL d   1     -41.758-122.323 -54.086  0.00  0.00     0.128 A 
ATOM      2  C   UNL d   1     -41.545-123.147 -54.116  0.00  0.00     0.306 A 
ATOM      3  C   UNL d   1     -41.749-121.945 -53.364  0.00  0.00     0.013 A 
ATOM      4  O   UNL d   1     -41.339-123.534 -53.422  0.00  0.00    -0.273 OA
ATOM      5  C   UNL d   1     -41.539-122.343 -52.665  0.00  0.00     0.023 A 
ATOM      6  C   UNL d   1     -41.332-123.144 -52.695  0.00  0.00     0.103 A 
ATOM      7  O   UNL d   1     -41.540-123.580 -54.839  0.00  0.00    -0.259 OA
ATOM      8  C   UNL d   1     -41.541-121.942 -51.971  0.00  0.00     0.002 A 
ATOM      9  C   UNL d   1     -41.130-123.530 -52.028  0.00  0.00     0.025 A 
ATOM     10  C   UNL d   1     -41.336-122.316 -51.267  0.00  0.00     0.000 A 
ATOM     11  C   UNL d   1     -41.123-123.141 -51.297  0.00  0.00     0.002 A 
ENDROOT
BRANCH   1  12
ATOM     12  C   UNL d   1     -41.958-121.948 -54.757  0.00  0.00     0.216 C 
ATOM     13  O   UNL d   1     -42.740-121.882 -55.011  0.00  0.00    -0.644 OA
ATOM     14  O   UNL d   1     -41.497-121.573 -55.309  0.00  0.00    -0.644 OA
ENDBRANCH   1  12
TORSDOF 1
ENDMDL
MODEL 2
REMARK VINA RESULT:      -5.3      1.001      1.649
REMARK  1 active torsions:
REMARK  status: ('A' for Active; 'I' for Inactive)
REMARK    1  A    between atoms: C_5  and  C_1 
ROOT
ATOM      1  C   UNL d   1     -42.029-122.142 -54.753  0.00  0.00     0.128 A 
ATOM      2  C   UNL d   1     -42.027-121.473 -54.225  0.00  0.00     0.306 A 
ATOM      3  C   UNL d   1     -41.802-122.869 -54.461  0.00  0.00     0.013 A 
ATOM      4  O   UNL d   1     -41.799-121.579 -53.444  0.00  0.00    -0.273 OA
ATOM      5  C   UNL d   1     -41.573-122.968 -53.668  0.00  0.00     0.023 A 
ATOM      6  C   UNL d   1     -41.571-122.318 -53.156  0.00  0.00     0.103 A 
ATOM      7  O   UNL d   1     -42.253-120.703 -54.482  0.00  0.00    -0.259 OA
ATOM      8  C   UNL d   1     -41.355-123.697 -53.412  0.00  0.00     0.002 A 
ATOM      9  C   UNL d   1     -41.352-122.407 -52.395  0.00  0.00     0.025 A 
ATOM     10  C   UNL d   1     -41.124-123.817 -52.632  0.00  0.00     0.000 A 
ATOM     11  C   UNL d   1     -41.123-123.148 -52.104  0.00  0.00     0.002 A 
ENDROOT
BRANCH   1  12
ATOM     12  C   UNL d   1     -42.249-122.040 -55.509  0.00  0.00     0.216 C 
ATOM     13  O   UNL d   1     -41.705-121.903 -56.114  0.00  0.00    -0.644 OA
ATOM     14  O   UNL d   1     -42.985-122.044 -55.849  0.00  0.00    -0.644 OA
ENDBRANCH   1  12
TORSDOF 1
ENDMDL
MODEL 3
REMARK VINA RESULT:      -5.0      1.226      2.751
REMARK  1 active torsions:
REMARK  status: ('A' for Active; 'I' for Inactive)
REMARK    1  A    between atoms: C_5  and  C_1 
ROOT
ATOM      1  C   UNL d   1     -41.638-122.387 -52.357  0.00  0.00     0.128 A 
ATOM      2  C   UNL d   1     -41.362-123.176 -52.521  0.00  0.00     0.306 A 
ATOM      3  C   UNL d   1     -41.859-121.914 -52.982  0.00  0.00     0.013 A 
ATOM      4  O   UNL d   1     -41.328-123.435 -53.299  0.00  0.00    -0.273 OA
ATOM      5  C   UNL d   1     -41.822-122.183 -53.767  0.00  0.00     0.023 A 
ATOM      6  C   UNL d   1     -41.554-122.950 -53.927  0.00  0.00     0.103 A 
ATOM      7  O   UNL d   1     -41.122-123.701 -51.907  0.00  0.00    -0.259 OA
ATOM      8  C   UNL d   1     -42.047-121.692 -54.361  0.00  0.00     0.002 A 
ATOM      9  C   UNL d   1     -41.517-123.213 -54.678  0.00  0.00     0.025 A 
ATOM     10  C   UNL d   1     -42.019-121.938 -55.145  0.00  0.00     0.000 A 
ATOM     11  C   UNL d   1     -41.743-122.728 -55.310  0.00  0.00     0.002 A 
ENDROOT
BRANCH   1  12
ATOM     12  C   UNL d   1     -41.671-122.135 -51.604  0.00  0.00     0.216 C 
ATOM     13  O   UNL d   1     -42.334-122.253 -51.126  0.00  0.00    -0.644 OA
ATOM     14  O   UNL d   1     -41.123-121.741 -51.155  0.00  0.00    -0.644 OA
ENDBRANCH   1  12
TORSDOF 1
ENDMDL
MODEL 4
REMARK VINA RESULT:      -4.8      0.811      1.437
REMARK  1 active torsions:
REMARK  status: ('A' for Active; 'I' for Inactive)
REMARK    1  A    between atoms: C_5  and  C_1 
ROOT
ATOM      1  C   UNL d   1     -41.528-122.724 -53.719  0.00  0.00     0.128 A 
ATOM      2  C   UNL d   1     -41.655-121.932 -53.431  0.00  0.00     0.306 A 
ATOM      3  C   UNL d   1     -41.368-123.313 -53.179  0.00  0.00     0.013 A 
ATOM      4  O   UNL d   1     -41.614-121.788 -52.624  0.00  0.00    -0.273 OA
ATOM      5  C   UNL d   1     -41.328-123.159 -52.364  0.00  0.00     0.023 A 
ATOM      6  C   UNL d   1     -41.452-122.390 -52.084  0.00  0.00     0.103 A 
ATOM      7  O   UNL d   1     -41.823-121.291 -53.951  0.00  0.00    -0.259 OA
ATOM      8  C   UNL d   1     -41.169-123.762 -51.858  0.00  0.00     0.002 A 
ATOM      9  C   UNL d   1     -41.415-122.236 -51.303  0.00  0.00     0.025 A 
ATOM     10  C   UNL d   1     -41.125-123.631 -51.047  0.00  0.00     0.000 A 
ATOM     11  C   UNL d   1     -41.253-122.840 -50.759  0.00  0.00     0.002 A 
ENDROOT
BRANCH   1  12
ATOM     12  C   UNL d   1     -41.567-122.865 -54.500  0.00  0.00     0.216 C 
ATOM     13  O   UNL d   1     -42.096-123.408 -54.825  0.00  0.00    -0.644 OA
ATOM     14  O   UNL d   1     -41.146-122.547 -55.115  0.00  0.00    -0.644 OA
ENDBRANCH   1  12
TORSDOF 1
ENDMDL
MODEL 5
REMARK VINA RESULT:      -4.6      1.628      3.095
REMARK  1 active torsions:
REMARK  status: ('A' for Active; 'I' for Inactive)
REMARK    1  A    between atoms: C_5  and  C_1 
ROOT
ATOM      1  C   UNL d   1     -41.501-122.605 -51.667  0.00  0.00     0.128 A 
ATOM      2  C   UNL d   1     -41.252-121.861 -52.000  0.00  0.00     0.306 A 
ATOM      3  C   UNL d   1     -41.611-123.238 -52.168  0.00  0.00     0.013 A 
ATOM      4  O   UNL d   1     -41.131-121.804 -52.809  0.00  0.00    -0.273 OA
ATOM      5  C   UNL d   1     -41.486-123.173 -52.987  0.00  0.00     0.023 A 
ATOM      6  C   UNL d   1     -41.244-122.450 -53.310  0.00  0.00     0.103 A 
ATOM      7  O   UNL d   1     -41.126-121.180 -51.520  0.00  0.00    -0.259 OA
ATOM      8  C   UNL d   1     -41.603-123.815 -53.454  0.00  0.00     0.002 A 
ATOM      9  C   UNL d   1     -41.123-122.382 -54.095  0.00  0.00     0.025 A 
ATOM     10  C   UNL d   1     -41.486-123.772 -54.267  0.00  0.00     0.000 A 
ATOM     11  C   UNL d   1     -41.237-123.029 -54.600  0.00  0.00     0.002 A 
ENDROOT
BRANCH   1  12
ATOM     12  C   UNL d   1     -41.618-122.661 -50.883  0.00  0.00     0.216 C 
ATOM     13  O   UNL d   1     -42.310-122.396 -50.519  0.00  0.00    -0.644 OA
ATOM     14  O   UNL d   1     -41.143-122.960 -50.299  0.00  0.00    -0.644 OA
ENDBRANCH   1  12
TORSDOF 1
ENDMDL
MODEL 6
REMARK VINA RESULT:      -4.4      2.724      3.901
REMARK  1 active torsions:
REMARK  status: ('A' for Active; 'I' for Inactive)
REMARK    1  A    between atoms: C_5  and  C_1 
ROOT
ATOM      1  C   UNL d   1     -41.772-122.715 -50.460  0.00  0.00     0.128 A 
ATOM      2  C   UNL d   1     -42.549-122.441 -50.243  0.00  0.00     0.306 A 
ATOM      3  C   UNL d   1     -41.324-123.099 -49.899  0.00  0.00     0.013 A 
ATOM      4  O   UNL d   1     -42.821-122.571 -49.480  0.00  0.00    -0.273 OA
ATOM      5  C   UNL d   1     -41.606-123.227 -49.128  0.00  0.00     0.023 A 
ATOM      6  C   UNL d   1     -42.361-122.961 -48.916  0.00  0.00     0.103 A 
ATOM      7  O   UNL d   1     -43.049-122.039 -50.790  0.00  0.00    -0.259 OA
ATOM      8  C   UNL d   1     -41.140-123.608 -48.598  0.00  0.00     0.002 A 
ATOM      9  C   UNL d   1     -42.637-123.080 -48.179  0.00  0.00     0.025 A 
ATOM     10  C   UNL d   1     -41.400-123.745 -47.829  0.00  0.00     0.000 A 
ATOM     11  C   UNL d   1     -42.177-123.471 -47.612  0.00  0.00     0.002 A 
ENDROOT
BRANCH   1  12
ATOM     12  C   UNL d   1     -41.508-122.590 -51.199  0.00  0.00     0.216 C 
ATOM     13  O   UNL d   1     -41.599-123.146 -51.802  0.00  0.00    -0.644 OA
ATOM     14  O   UNL d   1     -41.123-121.953 -51.520  0.00  0.00    -0.644 OA
ENDBRANCH   1  12
TORSDOF 1
ENDMDL
MODEL 7
REMARK VINA RESULT:      -2.5      3.528      5.003
REMARK  1 active torsions:
REMARK  status: ('A' for Active; 'I' for Inactive)
REMARK    1  A    between atoms: C_5  and  C_1 
ROOT
ATOM      1  C   UNL d   1     -42.316-123.181 -48.498  0.00  0.00     0.128 A 
ATOM      2  C   UNL d   1     -43.000-123.483 -48.906  0.00  0.00     0.306 A 
ATOM      3  C   UNL d   1     -41.707-122.866 -48.938  0.00  0.00     0.013 A 
ATOM      4  O   UNL d   1     -43.025-123.448 -49.726  0.00  0.00    -0.273 OA
ATOM      5  C   UNL d   1     -41.739-122.835 -49.768  0.00  0.00     0.023 A 
ATOM      6  C   UNL d   1     -42.404-123.128 -50.165  0.00  0.00     0.103 A 
ATOM      7  O   UNL d   1     -43.654-123.817 -48.493  0.00  0.00    -0.259 OA
ATOM      8  C   UNL d   1     -41.123-122.519 -50.172  0.00  0.00     0.002 A 
ATOM      9  C   UNL d   1     -42.440-123.101 -50.960  0.00  0.00     0.025 A 
ATOM     10  C   UNL d   1     -41.134-122.478 -50.994  0.00  0.00     0.000 A 
ATOM     11  C   UNL d   1     -41.818-122.780 -51.403  0.00  0.00     0.002 A 
ENDROOT
BRANCH   1  12
ATOM     12  C   UNL d   1     -42.291-123.214 -47.704  0.00  0.00     0.216 C 
ATOM     13  O   UNL d   1     -42.627-122.631 -47.226  0.00  0.00    -0.644 OA
ATOM     14  O   UNL d   1     -41.966-123.767 -47.209  0.00  0.00    -0.644 OA
ENDBRANCH   1  12
TORSDOF 1
ENDMDL
