MODEL 1
REMARK VINA RESULT:      62.2      0.000      0.000
REMARK  8 active torsions:
REMARK  status: ('A' for Active; 'I' for Inactive)
REMARK    1  A    between atoms: O_4  and  C_1 
REMARK    2  A    between atoms: C_15  and  C_2 
REMARK    3  A    between atoms: C_5  and  O_4 
REMARK    4  A    between atoms: C_7  and  C_5 
REMARK    5  A    between atoms: O_21  and  C_8 
REMARK    6  A    between atoms: O_22  and  C_10 
REMARK    7  A    between atoms: O_23  and  C_11 
REMARK    8  A    between atoms: N_16  and  C_15 
ROOT
ATOM      1  C   UNL d   1      14.448  15.089  -2.149  0.00  0.00     0.122 A 
ATOM      2  C   UNL d   1      14.503  14.955  -1.337  0.00  0.00     0.043 A 
ATOM      3  C   UNL d   1      14.759  15.781  -2.474  0.00  0.00     0.105 A 
ATOM      4  C   UNL d   1      15.125  16.337  -1.988  0.00  0.00     0.030 A 
ATOM      5  C   UNL d   1      15.176  16.196  -1.182  0.00  0.00     0.059 A 
ATOM      6  C   UNL d   1      14.869  15.511  -0.851  0.00  0.00     0.015 A 
ATOM      7  N   UNL d   1      14.702  15.910  -3.280  0.00  0.00    -0.242 NA
ATOM      8 CL   UNL d   1      15.551  16.774  -0.710  0.00  0.00    -0.082 Cl
ATOM      9  C   UNL d   1      15.430  17.017  -2.313  0.00  0.00     0.004 A 
ATOM     10  C   UNL d   1      15.013  16.602  -3.605  0.00  0.00     0.099 A 
ATOM     11  C   UNL d   1      15.379  17.158  -3.119  0.00  0.00     0.021 A 
ENDROOT
BRANCH   1  12
ATOM     12  O   UNL d   1      14.118  14.592  -2.598  0.00  0.00    -0.271 OA
BRANCH  12  13
ATOM     13  C   UNL d   1      13.389  14.517  -3.224  0.00  0.00     0.300 C 
ATOM     14  O   UNL d   1      12.770  15.308  -3.229  0.00  0.00    -0.259 OA
BRANCH  13  15
ATOM     15  C   UNL d   1      13.301  13.852  -3.702  0.00  0.00     0.068 A 
ATOM     16  C   UNL d   1      13.092  13.122  -3.369  0.00  0.00     0.032 A 
ATOM     17  C   UNL d   1      13.002  12.447  -3.849  0.00  0.00     0.118 A 
ATOM     18  C   UNL d   1      13.122  12.503  -4.668  0.00  0.00     0.138 A 
ATOM     19  C   UNL d   1      13.333  13.239  -5.005  0.00  0.00     0.118 A 
ATOM     20  C   UNL d   1      13.422  13.914  -4.523  0.00  0.00     0.032 A 
BRANCH  17  21
ATOM     21  O   UNL d   1      12.773  11.786  -3.242  0.00  0.00    -0.326 OA
ATOM     22  C   UNL d   1      12.778  12.138  -2.664  0.00  0.00     0.181 C 
ENDBRANCH  17  21
BRANCH  18  23
ATOM     23  O   UNL d   1      13.065  12.038  -5.039  0.00  0.00    -0.324 OA
ATOM     24  C   UNL d   1      13.415  11.885  -5.686  0.00  0.00     0.182 C 
ENDBRANCH  18  23
BRANCH  19  25
ATOM     25  O   UNL d   1      13.473  13.392  -5.816  0.00  0.00    -0.326 OA
ATOM     26  C   UNL d   1      14.115  13.939  -5.753  0.00  0.00     0.181 C 
ENDBRANCH  19  25
ENDBRANCH  13  15
ENDBRANCH  12  13
ENDBRANCH   1  12
BRANCH   2  27
ATOM     27  C   UNL d   1      14.227  14.269  -0.808  0.00  0.00     0.082 C 
BRANCH  27  28
ATOM     28  N   UNL d   1      14.765  13.693  -0.580  0.00  0.00    -0.299 N 
ATOM     29  C   UNL d   1      15.480  13.913  -0.254  0.00  0.00     0.107 A 
ATOM     30  C   UNL d   1      16.032  13.344  -0.019  0.00  0.00     0.142 A 
ATOM     31  O   UNL d   1      15.852  12.554  -0.118  0.00  0.00    -0.300 OA
ATOM     32  C   UNL d   1      15.126  12.327  -0.449  0.00  0.00     0.142 A 
ATOM     33  C   UNL d   1      14.591  12.904  -0.676  0.00  0.00     0.107 A 
ENDBRANCH  27  28
ENDBRANCH   2  27
TORSDOF 8
ENDMDL
MODEL 2
REMARK VINA RESULT:      64.7      1.188      2.996
REMARK  8 active torsions:
REMARK  status: ('A' for Active; 'I' for Inactive)
REMARK    1  A    between atoms: O_4  and  C_1 
REMARK    2  A    between atoms: C_15  and  C_2 
REMARK    3  A    between atoms: C_5  and  O_4 
REMARK    4  A    between atoms: C_7  and  C_5 
REMARK    5  A    between atoms: O_21  and  C_8 
REMARK    6  A    between atoms: O_22  and  C_10 
REMARK    7  A    between atoms: O_23  and  C_11 
REMARK    8  A    between atoms: N_16  and  C_15 
ROOT
ATOM      1  C   UNL d   1      14.305  13.674  -1.699  0.00  0.00     0.122 A 
ATOM      2  C   UNL d   1      14.830  14.309  -1.668  0.00  0.00     0.043 A 
ATOM      3  C   UNL d   1      14.391  13.043  -1.175  0.00  0.00     0.105 A 
ATOM      4  C   UNL d   1      15.001  13.048  -0.620  0.00  0.00     0.030 A 
ATOM      5  C   UNL d   1      15.518  13.683  -0.596  0.00  0.00     0.059 A 
ATOM      6  C   UNL d   1      15.440  14.314  -1.114  0.00  0.00     0.015 A 
ATOM      7  N   UNL d   1      13.868  12.415  -1.208  0.00  0.00    -0.242 NA
ATOM      8 CL   UNL d   1      16.128  13.666  -0.025  0.00  0.00    -0.082 Cl
ATOM      9  C   UNL d   1      15.082  12.424  -0.105  0.00  0.00     0.004 A 
ATOM     10  C   UNL d   1      13.954  11.784  -0.684  0.00  0.00     0.099 A 
ATOM     11  C   UNL d   1      14.564  11.789  -0.129  0.00  0.00     0.021 A 
ENDROOT
BRANCH   1  12
ATOM     12  O   UNL d   1      13.749  13.660  -2.198  0.00  0.00    -0.271 OA
BRANCH  12  13
ATOM     13  C   UNL d   1      13.324  13.067  -2.828  0.00  0.00     0.300 C 
ATOM     14  O   UNL d   1      12.800  12.324  -2.403  0.00  0.00    -0.259 OA
BRANCH  13  15
ATOM     15  C   UNL d   1      13.400  13.180  -3.641  0.00  0.00     0.068 A 
ATOM     16  C   UNL d   1      13.558  12.536  -4.140  0.00  0.00     0.032 A 
ATOM     17  C   UNL d   1      13.635  12.646  -4.962  0.00  0.00     0.118 A 
ATOM     18  C   UNL d   1      13.552  13.405  -5.287  0.00  0.00     0.138 A 
ATOM     19  C   UNL d   1      13.393  14.053  -4.785  0.00  0.00     0.118 A 
ATOM     20  C   UNL d   1      13.316  13.942  -3.962  0.00  0.00     0.032 A 
BRANCH  17  21
ATOM     21  O   UNL d   1      13.806  11.790  -5.273  0.00  0.00    -0.326 OA
ATOM     22  C   UNL d   1      13.425  11.780  -5.832  0.00  0.00     0.181 C 
ENDBRANCH  17  21
BRANCH  18  23
ATOM     23  O   UNL d   1      13.602  13.516  -5.872  0.00  0.00    -0.324 OA
ATOM     24  C   UNL d   1      13.611  14.168  -6.245  0.00  0.00     0.182 C 
ENDBRANCH  18  23
BRANCH  19  25
ATOM     25  O   UNL d   1      13.294  14.851  -5.021  0.00  0.00    -0.326 OA
ATOM     26  C   UNL d   1      12.825  15.136  -4.378  0.00  0.00     0.181 C 
ENDBRANCH  19  25
ENDBRANCH  13  15
ENDBRANCH  12  13
ENDBRANCH   1  12
BRANCH   2  27
ATOM     27  C   UNL d   1      14.894  15.077  -2.153  0.00  0.00     0.082 C 
BRANCH  27  28
ATOM     28  N   UNL d   1      14.995  15.793  -1.763  0.00  0.00    -0.299 N 
ATOM     29  C   UNL d   1      15.454  15.826  -1.089  0.00  0.00     0.107 A 
ATOM     30  C   UNL d   1      15.564  16.540  -0.686  0.00  0.00     0.142 A 
ATOM     31  O   UNL d   1      15.206  17.215  -0.973  0.00  0.00    -0.300 OA
ATOM     32  C   UNL d   1      14.740  17.184  -1.658  0.00  0.00     0.142 A 
ATOM     33  C   UNL d   1      14.641  16.469  -2.044  0.00  0.00     0.107 A 
ENDBRANCH  27  28
ENDBRANCH   2  27
TORSDOF 8
ENDMDL
