MODEL 1
REMARK VINA RESULT:      -8.1      0.000      0.000
REMARK  6 active torsions:
REMARK  status: ('A' for Active; 'I' for Inactive)
REMARK       I    between atoms: C_2  and  N_1 
REMARK    1  A    between atoms: C_3  and  C_2 
REMARK    2  A    between atoms: C_12  and  C_4 
REMARK       I    between atoms: C_5  and  N_8 
REMARK    3  A    between atoms: C_6  and  C_5 
REMARK       I    between atoms: N_9  and  C_6 
REMARK    4  A    between atoms: N_8  and  C_12 
REMARK    5  A    between atoms: C_19  and  N_9 
REMARK    6  A    between atoms: C_21  and  C_19 
ROOT
ATOM      1  C   UNL d   1      54.184  32.909  54.872  0.00  0.00     0.337 C 
ATOM      2  N   UNL d   1      53.638  33.519  54.826  0.00  0.00    -0.199 NA
ATOM      3  O   UNL d   1      54.654  32.831  55.542  0.00  0.00    -0.260 OA
ENDROOT
BRANCH   2   4
ATOM      4  C   UNL d   1      53.167  33.597  54.155  0.00  0.00     0.146 C 
BRANCH   4   5
ATOM      5  C   UNL d   1      52.826  34.334  53.977  0.00  0.00     0.190 A 
ATOM      6  N   UNL d   1      52.112  34.438  53.581  0.00  0.00    -0.250 N 
ATOM      7  C   UNL d   1      51.565  33.899  53.268  0.00  0.00     0.272 C 
ATOM      8  C   UNL d   1      51.986  35.253  53.523  0.00  0.00     0.112 A 
ATOM      9  O   UNL d   1      51.706  33.086  53.333  0.00  0.00    -0.266 OA
ATOM     10  C   UNL d   1      52.617  35.640  53.881  0.00  0.00     0.144 A 
ATOM     11  O   UNL d   1      53.137  35.058  54.161  0.00  0.00    -0.285 OA
BRANCH   7  12
ATOM     12  C   UNL d   1      50.885  34.167  52.893  0.00  0.00     0.086 A 
ATOM     13  S   UNL d   1      50.200  34.526  53.192  0.00  0.00    -0.082 SA
ATOM     14  C   UNL d   1      49.692  34.678  52.545  0.00  0.00     0.036 A 
ATOM     15  C   UNL d   1      50.072  34.411  51.862  0.00  0.00     0.008 A 
ATOM     16  C   UNL d   1      50.803  34.097  52.070  0.00  0.00     0.012 A 
ENDBRANCH   7  12
ENDBRANCH   4   5
ENDBRANCH   2   4
BRANCH   1  17
ATOM     17  C   UNL d   1      54.265  32.369  54.251  0.00  0.00     0.337 C 
ATOM     18  N   UNL d   1      53.894  31.635  54.280  0.00  0.00    -0.202 NA
ATOM     19  O   UNL d   1      54.722  32.570  53.596  0.00  0.00    -0.260 OA
BRANCH  18  20
ATOM     20  C   UNL d   1      53.978  31.103  53.663  0.00  0.00     0.102 C 
BRANCH  20  21
ATOM     21  C   UNL d   1      53.529  30.391  53.638  0.00  0.00     0.019 A 
ATOM     22  C   UNL d   1      53.004  30.275  53.021  0.00  0.00     0.002 A 
ATOM     23  C   UNL d   1      52.560  29.572  52.996  0.00  0.00     0.000 A 
ATOM     24  C   UNL d   1      52.647  29.007  53.578  0.00  0.00     0.000 A 
ATOM     25  C   UNL d   1      53.189  29.140  54.205  0.00  0.00     0.000 A 
ATOM     26  C   UNL d   1      53.629  29.843  54.225  0.00  0.00     0.002 A 
ENDBRANCH  20  21
ENDBRANCH  18  20
ENDBRANCH   1  17
TORSDOF 6
ENDMDL
MODEL 2
REMARK VINA RESULT:      -7.3      1.493      4.794
REMARK  6 active torsions:
REMARK  status: ('A' for Active; 'I' for Inactive)
REMARK       I    between atoms: C_2  and  N_1 
REMARK    1  A    between atoms: C_3  and  C_2 
REMARK    2  A    between atoms: C_12  and  C_4 
REMARK       I    between atoms: C_5  and  N_8 
REMARK    3  A    between atoms: C_6  and  C_5 
REMARK       I    between atoms: N_9  and  C_6 
REMARK    4  A    between atoms: N_8  and  C_12 
REMARK    5  A    between atoms: C_19  and  N_9 
REMARK    6  A    between atoms: C_21  and  C_19 
ROOT
ATOM      1  C   UNL d   1      52.031  34.715  53.376  0.00  0.00     0.337 C 
ATOM      2  N   UNL d   1      52.579  34.171  53.651  0.00  0.00    -0.199 NA
ATOM      3  O   UNL d   1      51.961  35.446  53.744  0.00  0.00    -0.260 OA
ENDROOT
BRANCH   2   4
ATOM      4  C   UNL d   1      52.650  33.439  53.282  0.00  0.00     0.146 C 
BRANCH   4   5
ATOM      5  C   UNL d   1      53.335  32.983  53.401  0.00  0.00     0.190 A 
ATOM      6  N   UNL d   1      53.354  32.161  53.432  0.00  0.00    -0.250 N 
ATOM      7  C   UNL d   1      52.759  31.587  53.362  0.00  0.00     0.272 C 
ATOM      8  C   UNL d   1      54.142  31.944  53.558  0.00  0.00     0.112 A 
ATOM      9  O   UNL d   1      51.976  31.821  53.236  0.00  0.00    -0.266 OA
ATOM     10  C   UNL d   1      54.596  32.627  53.603  0.00  0.00     0.144 A 
ATOM     11  O   UNL d   1      54.084  33.272  53.503  0.00  0.00    -0.285 OA
BRANCH   7  12
ATOM     12  C   UNL d   1      52.944  30.788  53.417  0.00  0.00     0.086 A 
ATOM     13  S   UNL d   1      53.196  30.327  54.059  0.00  0.00    -0.082 SA
ATOM     14  C   UNL d   1      53.298  29.544  53.782  0.00  0.00     0.036 A 
ATOM     15  C   UNL d   1      53.108  29.538  52.979  0.00  0.00     0.008 A 
ATOM     16  C   UNL d   1      52.890  30.298  52.750  0.00  0.00     0.012 A 
ENDBRANCH   7  12
ENDBRANCH   4   5
ENDBRANCH   2   4
BRANCH   1  17
ATOM     17  C   UNL d   1      51.547  34.535  52.730  0.00  0.00     0.337 C 
ATOM     18  N   UNL d   1      50.728  34.551  52.801  0.00  0.00    -0.202 NA
ATOM     19  O   UNL d   1      51.890  34.337  52.008  0.00  0.00    -0.260 OA
BRANCH  18  20
ATOM     20  C   UNL d   1      50.251  34.372  52.159  0.00  0.00     0.102 C 
BRANCH  20  21
ATOM     21  C   UNL d   1      49.474  34.689  52.091  0.00  0.00     0.019 A 
ATOM     22  C   UNL d   1      49.077  34.617  51.380  0.00  0.00     0.002 A 
ATOM     23  C   UNL d   1      48.310  34.930  51.313  0.00  0.00     0.000 A 
ATOM     24  C   UNL d   1      47.959  35.304  51.947  0.00  0.00     0.000 A 
ATOM     25  C   UNL d   1      48.377  35.371  52.670  0.00  0.00     0.000 A 
ATOM     26  C   UNL d   1      49.143  35.057  52.732  0.00  0.00     0.002 A 
ENDBRANCH  20  21
ENDBRANCH  18  20
ENDBRANCH   1  17
TORSDOF 6
ENDMDL
MODEL 3
REMARK VINA RESULT:      -7.2      1.908      5.417
REMARK  6 active torsions:
REMARK  status: ('A' for Active; 'I' for Inactive)
REMARK       I    between atoms: C_2  and  N_1 
REMARK    1  A    between atoms: C_3  and  C_2 
REMARK    2  A    between atoms: C_12  and  C_4 
REMARK       I    between atoms: C_5  and  N_8 
REMARK    3  A    between atoms: C_6  and  C_5 
REMARK       I    between atoms: N_9  and  C_6 
REMARK    4  A    between atoms: N_8  and  C_12 
REMARK    5  A    between atoms: C_19  and  N_9 
REMARK    6  A    between atoms: C_21  and  C_19 
ROOT
ATOM      1  C   UNL d   1      50.923  34.154  51.922  0.00  0.00     0.337 C 
ATOM      2  N   UNL d   1      51.655  33.847  52.126  0.00  0.00    -0.199 NA
ATOM      3  O   UNL d   1      50.797  34.441  51.162  0.00  0.00    -0.260 OA
ENDROOT
BRANCH   2   4
ATOM      4  C   UNL d   1      51.781  33.559  52.887  0.00  0.00     0.146 C 
BRANCH   4   5
ATOM      5  C   UNL d   1      52.372  32.989  53.018  0.00  0.00     0.190 A 
ATOM      6  N   UNL d   1      52.974  33.056  53.574  0.00  0.00    -0.250 N 
ATOM      7  C   UNL d   1      53.163  33.649  54.122  0.00  0.00     0.272 C 
ATOM      8  C   UNL d   1      53.432  32.370  53.516  0.00  0.00     0.112 A 
ATOM      9  O   UNL d   1      52.695  34.330  54.168  0.00  0.00    -0.266 OA
ATOM     10  C   UNL d   1      53.110  31.891  52.931  0.00  0.00     0.144 A 
ATOM     11  O   UNL d   1      52.448  32.286  52.625  0.00  0.00    -0.285 OA
BRANCH   7  12
ATOM     12  C   UNL d   1      53.812  33.565  54.620  0.00  0.00     0.086 A 
ATOM     13  S   UNL d   1      53.937  33.078  55.279  0.00  0.00    -0.082 SA
ATOM     14  C   UNL d   1      54.708  33.233  55.564  0.00  0.00     0.036 A 
ATOM     15  C   UNL d   1      55.042  33.809  55.076  0.00  0.00     0.008 A 
ATOM     16  C   UNL d   1      54.497  34.016  54.496  0.00  0.00     0.012 A 
ENDBRANCH   7  12
ENDBRANCH   4   5
ENDBRANCH   2   4
BRANCH   1  17
ATOM     17  C   UNL d   1      50.308  34.178  52.474  0.00  0.00     0.337 C 
ATOM     18  N   UNL d   1      49.833  34.846  52.546  0.00  0.00    -0.202 NA
ATOM     19  O   UNL d   1      50.169  33.525  52.956  0.00  0.00    -0.260 OA
BRANCH  18  20
ATOM     20  C   UNL d   1      49.224  34.866  53.095  0.00  0.00     0.102 C 
BRANCH  20  21
ATOM     21  C   UNL d   1      48.651  35.482  53.086  0.00  0.00     0.019 A 
ATOM     22  C   UNL d   1      48.610  35.996  53.722  0.00  0.00     0.002 A 
ATOM     23  C   UNL d   1      48.044  36.604  53.714  0.00  0.00     0.000 A 
ATOM     24  C   UNL d   1      47.536  36.688  53.081  0.00  0.00     0.000 A 
ATOM     25  C   UNL d   1      47.588  36.154  52.436  0.00  0.00     0.000 A 
ATOM     26  C   UNL d   1      48.156  35.549  52.449  0.00  0.00     0.002 A 
ENDBRANCH  20  21
ENDBRANCH  18  20
ENDBRANCH   1  17
TORSDOF 6
ENDMDL
MODEL 4
REMARK VINA RESULT:      -6.6      2.408      3.996
REMARK  6 active torsions:
REMARK  status: ('A' for Active; 'I' for Inactive)
REMARK       I    between atoms: C_2  and  N_1 
REMARK    1  A    between atoms: C_3  and  C_2 
REMARK    2  A    between atoms: C_12  and  C_4 
REMARK       I    between atoms: C_5  and  N_8 
REMARK    3  A    between atoms: C_6  and  C_5 
REMARK       I    between atoms: N_9  and  C_6 
REMARK    4  A    between atoms: N_8  and  C_12 
REMARK    5  A    between atoms: C_19  and  N_9 
REMARK    6  A    between atoms: C_21  and  C_19 
ROOT
ATOM      1  C   UNL d   1      51.452  34.100  52.037  0.00  0.00     0.337 C 
ATOM      2  N   UNL d   1      50.760  34.469  51.800  0.00  0.00    -0.199 NA
ATOM      3  O   UNL d   1      52.078  34.027  51.509  0.00  0.00    -0.260 OA
ENDROOT
BRANCH   2   4
ATOM      4  C   UNL d   1      50.133  34.542  52.328  0.00  0.00     0.146 C 
BRANCH   4   5
ATOM      5  C   UNL d   1      49.368  34.696  52.040  0.00  0.00     0.190 A 
ATOM      6  N   UNL d   1      48.799  35.143  52.431  0.00  0.00    -0.250 N 
ATOM      7  C   UNL d   1      48.807  35.539  53.160  0.00  0.00     0.272 C 
ATOM      8  C   UNL d   1      48.128  35.153  51.949  0.00  0.00     0.112 A 
ATOM      9  O   UNL d   1      49.486  35.520  53.632  0.00  0.00    -0.266 OA
ATOM     10  C   UNL d   1      48.288  34.717  51.271  0.00  0.00     0.144 A 
ATOM     11  O   UNL d   1      49.065  34.435  51.336  0.00  0.00    -0.285 OA
BRANCH   7  12
ATOM     12  C   UNL d   1      48.143  35.951  53.416  0.00  0.00     0.086 A 
ATOM     13  S   UNL d   1      47.615  36.446  53.011  0.00  0.00    -0.082 SA
ATOM     14  C   UNL d   1      47.043  36.709  53.562  0.00  0.00     0.036 A 
ATOM     15  C   UNL d   1      47.229  36.373  54.293  0.00  0.00     0.008 A 
ATOM     16  C   UNL d   1      47.902  35.908  54.209  0.00  0.00     0.012 A 
ENDBRANCH   7  12
ENDBRANCH   4   5
ENDBRANCH   2   4
BRANCH   1  17
ATOM     17  C   UNL d   1      51.527  33.798  52.803  0.00  0.00     0.337 C 
ATOM     18  N   UNL d   1      52.179  33.989  53.268  0.00  0.00    -0.202 NA
ATOM     19  O   UNL d   1      50.943  33.303  53.103  0.00  0.00    -0.260 OA
BRANCH  18  20
ATOM     20  C   UNL d   1      52.250  33.688  54.027  0.00  0.00     0.102 C 
BRANCH  20  21
ATOM     21  C   UNL d   1      53.001  33.624  54.401  0.00  0.00     0.019 A 
ATOM     22  C   UNL d   1      53.382  32.900  54.405  0.00  0.00     0.002 A 
ATOM     23  C   UNL d   1      54.124  32.836  54.775  0.00  0.00     0.000 A 
ATOM     24  C   UNL d   1      54.467  33.486  55.128  0.00  0.00     0.000 A 
ATOM     25  C   UNL d   1      54.065  34.222  55.117  0.00  0.00     0.000 A 
ATOM     26  C   UNL d   1      53.325  34.281  54.747  0.00  0.00     0.002 A 
ENDBRANCH  20  21
ENDBRANCH  18  20
ENDBRANCH   1  17
TORSDOF 6
ENDMDL
MODEL 5
REMARK VINA RESULT:      -5.3      1.730      2.873
REMARK  6 active torsions:
REMARK  status: ('A' for Active; 'I' for Inactive)
REMARK       I    between atoms: C_2  and  N_1 
REMARK    1  A    between atoms: C_3  and  C_2 
REMARK    2  A    between atoms: C_12  and  C_4 
REMARK       I    between atoms: C_5  and  N_8 
REMARK    3  A    between atoms: C_6  and  C_5 
REMARK       I    between atoms: N_9  and  C_6 
REMARK    4  A    between atoms: N_8  and  C_12 
REMARK    5  A    between atoms: C_19  and  N_9 
REMARK    6  A    between atoms: C_21  and  C_19 
ROOT
ATOM      1  C   UNL d   1      52.768  31.503  52.746  0.00  0.00     0.337 C 
ATOM      2  N   UNL d   1      52.279  32.053  52.385  0.00  0.00    -0.199 NA
ATOM      3  O   UNL d   1      53.028  30.847  52.324  0.00  0.00    -0.260 OA
ENDROOT
BRANCH   2   4
ATOM      4  C   UNL d   1      52.018  32.709  52.807  0.00  0.00     0.146 C 
BRANCH   4   5
ATOM      5  C   UNL d   1      51.888  33.429  52.410  0.00  0.00     0.190 A 
ATOM      6  N   UNL d   1      51.213  33.892  52.487  0.00  0.00    -0.250 N 
ATOM      7  C   UNL d   1      50.522  33.800  52.935  0.00  0.00     0.272 C 
ATOM      8  C   UNL d   1      51.318  34.551  51.997  0.00  0.00     0.112 A 
ATOM      9  O   UNL d   1      50.432  33.136  53.420  0.00  0.00    -0.266 OA
ATOM     10  C   UNL d   1      52.049  34.487  51.628  0.00  0.00     0.144 A 
ATOM     11  O   UNL d   1      52.399  33.783  51.892  0.00  0.00    -0.285 OA
BRANCH   7  12
ATOM     12  C   UNL d   1      49.926  34.365  52.901  0.00  0.00     0.086 A 
ATOM     13  S   UNL d   1      49.364  34.534  52.315  0.00  0.00    -0.082 SA
ATOM     14  C   UNL d   1      48.898  35.172  52.589  0.00  0.00     0.036 A 
ATOM     15  C   UNL d   1      49.180  35.384  53.336  0.00  0.00     0.008 A 
ATOM     16  C   UNL d   1      49.810  34.892  53.532  0.00  0.00     0.012 A 
ENDBRANCH   7  12
ENDBRANCH   4   5
ENDBRANCH   2   4
BRANCH   1  17
ATOM     17  C   UNL d   1      53.003  31.602  53.532  0.00  0.00     0.337 C 
ATOM     18  N   UNL d   1      53.663  32.056  53.720  0.00  0.00    -0.202 NA
ATOM     19  O   UNL d   1      52.571  31.241  54.133  0.00  0.00    -0.260 OA
BRANCH  18  20
ATOM     20  C   UNL d   1      53.893  32.151  54.501  0.00  0.00     0.102 C 
BRANCH  20  21
ATOM     21  C   UNL d   1      54.396  32.785  54.732  0.00  0.00     0.019 A 
ATOM     22  C   UNL d   1      54.264  33.155  55.450  0.00  0.00     0.002 A 
ATOM     23  C   UNL d   1      54.761  33.781  55.678  0.00  0.00     0.000 A 
ATOM     24  C   UNL d   1      55.370  34.024  55.194  0.00  0.00     0.000 A 
ATOM     25  C   UNL d   1      55.494  33.636  54.460  0.00  0.00     0.000 A 
ATOM     26  C   UNL d   1      54.996  33.012  54.237  0.00  0.00     0.002 A 
ENDBRANCH  20  21
ENDBRANCH  18  20
ENDBRANCH   1  17
TORSDOF 6
ENDMDL
