MODEL 1
REMARK VINA RESULT:      72.1      0.000      0.000
REMARK  3 active torsions:
REMARK  status: ('A' for Active; 'I' for Inactive)
REMARK    1  A    between atoms: C_11  and  N_2 
REMARK    2  A    between atoms: C_9  and  N_3 
REMARK    3  A    between atoms: C_10  and  C_12 
ROOT
ATOM      1  C   UNL d   1     -50.553  25.586  33.560  0.00  0.00     0.339 A 
ATOM      2  N   UNL d   1     -51.355  25.423  33.469  0.00  0.00    -0.258 N 
ATOM      3  N   UNL d   1     -50.451  26.408  33.590  0.00  0.00    -0.258 N 
ATOM      4  S   UNL d   1     -52.401  27.315  33.398  0.00  0.00     0.214 S 
ATOM      5  C   UNL d   1     -51.764  26.153  33.441  0.00  0.00     0.097 A 
ATOM      6  C   UNL d   1     -51.197  26.756  33.516  0.00  0.00     0.097 A 
ATOM      7  C   UNL d   1     -52.502  26.503  33.368  0.00  0.00     0.118 A 
ATOM      8  C   UNL d   1     -51.603  27.477  33.488  0.00  0.00     0.118 A 
ATOM      9  O   UNL d   1     -49.946  25.025  33.614  0.00  0.00    -0.245 OA
ATOM     10  O   UNL d   1     -52.296  28.142  33.427  0.00  0.00    -0.217 OA
ATOM     11  O   UNL d   1     -53.217  27.209  33.306  0.00  0.00    -0.217 OA
ENDROOT
BRANCH   3  12
ATOM     12  C   UNL d   1     -49.734  26.810  33.677  0.00  0.00     0.068 A 
ATOM     13  C   UNL d   1     -49.728  27.612  33.865  0.00  0.00     0.021 A 
ATOM     14  C   UNL d   1     -49.019  28.016  33.952  0.00  0.00     0.073 A 
ATOM     15  C   UNL d   1     -48.306  27.613  33.850  0.00  0.00     0.004 A 
ATOM     16  C   UNL d   1     -48.302  26.808  33.661  0.00  0.00     0.001 A 
ATOM     17  C   UNL d   1     -49.020  26.408  33.575  0.00  0.00     0.018 A 
BRANCH  14  18
ATOM     18  C   UNL d   1     -49.015  28.821  34.141  0.00  0.00     0.419 C 
ATOM     19  F   UNL d   1     -49.015  29.556  34.310  0.00  0.00    -0.166 F 
ATOM     20  F   UNL d   1     -49.520  29.455  33.835  0.00  0.00    -0.166 F 
ATOM     21  F   UNL d   1     -48.512  29.252  34.691  0.00  0.00    -0.166 F 
ENDBRANCH  14  18
ENDBRANCH   3  12
BRANCH   2  22
ATOM     22  C   UNL d   1     -51.703  24.673  33.415  0.00  0.00     0.068 A 
ATOM     23  C   UNL d   1     -51.228  23.999  33.414  0.00  0.00     0.016 A 
ATOM     24  C   UNL d   1     -50.410  24.064  33.467  0.00  0.00     0.002 C 
ATOM     25  C   UNL d   1     -51.588  23.254  33.359  0.00  0.00     0.001 A 
ATOM     26  C   UNL d   1     -52.407  23.189  33.306  0.00  0.00     0.000 A 
ATOM     27  C   UNL d   1     -52.874  23.866  33.307  0.00  0.00     0.002 A 
ATOM     28  C   UNL d   1     -52.522  24.607  33.361  0.00  0.00     0.018 A 
ENDBRANCH   2  22
TORSDOF 3
ENDMDL
