MODEL 1
REMARK VINA RESULT:      27.1      0.000      0.000
REMARK  6 active torsions:
REMARK  status: ('A' for Active; 'I' for Inactive)
REMARK    1  A    between atoms: N_2  and  S_1 
REMARK    2  A    between atoms: C_5  and  S_1 
REMARK    3  A    between atoms: S_8  and  C_3 
REMARK    4  A    between atoms: C_13  and  S_8 
REMARK    5  A    between atoms: C_17  and  C_13 
REMARK    6  A    between atoms: O_21  and  C_15 
ROOT
ATOM      1  N   UNL d   1      14.645  12.414  -1.273  0.00  0.00    -0.208 N 
ATOM      2  C   UNL d   1      14.339  12.158  -2.003  0.00  0.00     0.189 A 
ATOM      3  N   UNL d   1      14.972  11.896  -2.469  0.00  0.00    -0.219 NA
ATOM      4  C   UNL d   1      15.470  12.309  -1.290  0.00  0.00     0.114 A 
ATOM      5  C   UNL d   1      15.665  11.991  -2.026  0.00  0.00     0.121 A 
ENDROOT
BRANCH   1   6
ATOM      6  S   UNL d   1      14.201  12.719  -0.644  0.00  0.00     0.273 S 
ATOM      7  O   UNL d   1      13.632  12.807  -0.049  0.00  0.00    -0.200 OA
ATOM      8  O   UNL d   1      13.741  12.044  -0.686  0.00  0.00    -0.200 OA
BRANCH   6   9
ATOM      9  C   UNL d   1      14.655  13.407  -0.585  0.00  0.00     0.104 A 
ATOM     10  C   UNL d   1      15.332  13.403  -0.118  0.00  0.00     0.015 A 
ATOM     11  C   UNL d   1      15.780  14.097  -0.065  0.00  0.00     0.025 A 
ATOM     12  C   UNL d   1      15.544  14.778  -0.476  0.00  0.00     0.094 A 
ATOM     13  C   UNL d   1      14.868  14.773  -0.938  0.00  0.00     0.025 A 
ATOM     14  C   UNL d   1      14.420  14.079  -0.992  0.00  0.00     0.015 A 
BRANCH  12  15
ATOM     15  O   UNL d   1      15.999  15.464  -0.415  0.00  0.00    -0.328 OA
ATOM     16  C   UNL d   1      15.689  16.121  -0.015  0.00  0.00     0.181 C 
ENDBRANCH  12  15
ENDBRANCH   6   9
ENDBRANCH   1   6
BRANCH   2  17
ATOM     17  S   UNL d   1      13.538  12.164  -2.225  0.00  0.00    -0.049 SA
BRANCH  17  18
ATOM     18  C   UNL d   1      13.301  11.780  -2.915  0.00  0.00     0.038 C 
BRANCH  18  19
ATOM     19  C   UNL d   1      13.185  12.213  -3.605  0.00  0.00     0.009 A 
ATOM     20  C   UNL d   1      13.257  11.838  -4.353  0.00  0.00     0.030 A 
ATOM     21  C   UNL d   1      13.142  12.265  -5.042  0.00  0.00     0.140 A 
ATOM     22  F   UNL d   1      13.213  11.891  -5.778  0.00  0.00    -0.204 F 
ATOM     23  C   UNL d   1      12.953  13.074  -5.004  0.00  0.00     0.030 A 
ATOM     24  C   UNL d   1      12.882  13.445  -4.271  0.00  0.00     0.002 A 
ATOM     25  C   UNL d   1      12.998  13.013  -3.570  0.00  0.00     0.001 A 
ENDBRANCH  18  19
ENDBRANCH  17  18
ENDBRANCH   2  17
TORSDOF 6
ENDMDL
