MODEL 1
REMARK VINA RESULT:      36.4      0.000      0.000
REMARK  4 active torsions:
REMARK  status: ('A' for Active; 'I' for Inactive)
REMARK    1  A    between atoms: C_8  and  N_2 
REMARK    2  A    between atoms: C_13  and  C_8 
REMARK    3  A    between atoms: O_17  and  C_13 
REMARK    4  A    between atoms: O_18  and  C_15 
ROOT
ATOM      1  C   UNL d   1      13.829  12.824  -2.699  0.00  0.00     0.166 A 
ATOM      2  N   UNL d   1      13.466  12.844  -3.440  0.00  0.00    -0.285 N 
ATOM      3  C   UNL d   1      14.175  13.564  -2.567  0.00  0.00     0.117 A 
ATOM      4  C   UNL d   1      14.028  14.042  -3.222  0.00  0.00     0.039 A 
ATOM      5  C   UNL d   1      13.591  13.596  -3.761  0.00  0.00     0.067 A 
ATOM      6  N   UNL d   1      13.884  12.230  -2.139  0.00  0.00    -0.225 NA
ATOM      7  N   UNL d   1      14.580  13.705  -1.865  0.00  0.00    -0.241 NA
ATOM      8  C   UNL d   1      14.291  12.364  -1.428  0.00  0.00     0.101 A 
ATOM      9  C   UNL d   1      14.637  13.105  -1.295  0.00  0.00     0.099 A 
ATOM     10  C   UNL d   1      13.351  13.926  -4.488  0.00  0.00     0.020 A 
ATOM     11  C   UNL d   1      14.229  14.811  -3.403  0.00  0.00     0.027 A 
ATOM     12  C   UNL d   1      13.997  15.147  -4.121  0.00  0.00     0.094 A 
ATOM     13  C   UNL d   1      13.560  14.702  -4.660  0.00  0.00     0.026 A 
ATOM     14  C   UNL d   1      15.041  13.246  -0.594  0.00  0.00     0.021 A 
ATOM     15  C   UNL d   1      14.352  11.779  -0.863  0.00  0.00     0.021 A 
ATOM     16  C   UNL d   1      14.758  11.915  -0.153  0.00  0.00     0.002 A 
ATOM     17  C   UNL d   1      15.104  12.656  -0.021  0.00  0.00     0.002 A 
ENDROOT
BRANCH   2  18
ATOM     18  C   UNL d   1      13.054  12.226  -3.797  0.00  0.00     0.150 C 
BRANCH  18  19
ATOM     19  C   UNL d   1      13.307  11.931  -4.528  0.00  0.00     0.314 C 
ATOM     20  O   UNL d   1      14.114  11.780  -4.649  0.00  0.00    -0.257 OA
BRANCH  19  21
ATOM     21  O   UNL d   1      12.770  11.791  -5.119  0.00  0.00    -0.295 OA
ATOM     22  C   UNL d   1      13.011  11.781  -5.912  0.00  0.00     0.185 C 
ENDBRANCH  19  21
ENDBRANCH  18  19
ENDBRANCH   2  18
BRANCH  12  23
ATOM     23  O   UNL d   1      14.205  15.923  -4.292  0.00  0.00    -0.328 OA
ATOM     24  C   UNL d   1      14.687  16.351  -3.778  0.00  0.00     0.181 C 
ENDBRANCH  12  23
TORSDOF 4
ENDMDL
MODEL 2
REMARK VINA RESULT:      39.3      0.615      2.692
REMARK  4 active torsions:
REMARK  status: ('A' for Active; 'I' for Inactive)
REMARK    1  A    between atoms: C_8  and  N_2 
REMARK    2  A    between atoms: C_13  and  C_8 
REMARK    3  A    between atoms: O_17  and  C_13 
REMARK    4  A    between atoms: O_18  and  C_15 
ROOT
ATOM      1  C   UNL d   1      13.828  13.611  -2.504  0.00  0.00     0.166 A 
ATOM      2  N   UNL d   1      13.517  14.095  -3.096  0.00  0.00    -0.285 N 
ATOM      3  C   UNL d   1      13.799  12.829  -2.777  0.00  0.00     0.117 A 
ATOM      4  C   UNL d   1      13.472  12.828  -3.533  0.00  0.00     0.039 A 
ATOM      5  C   UNL d   1      13.298  13.610  -3.730  0.00  0.00     0.067 A 
ATOM      6  N   UNL d   1      14.128  13.786  -1.764  0.00  0.00    -0.225 NA
ATOM      7  N   UNL d   1      14.076  12.221  -2.297  0.00  0.00    -0.241 NA
ATOM      8  C   UNL d   1      14.409  13.177  -1.274  0.00  0.00     0.101 A 
ATOM      9  C   UNL d   1      14.381  12.395  -1.546  0.00  0.00     0.099 A 
ATOM     10  C   UNL d   1      12.958  13.796  -4.467  0.00  0.00     0.020 A 
ATOM     11  C   UNL d   1      13.310  12.232  -4.065  0.00  0.00     0.027 A 
ATOM     12  C   UNL d   1      12.973  12.405  -4.798  0.00  0.00     0.094 A 
ATOM     13  C   UNL d   1      12.798  13.187  -4.996  0.00  0.00     0.026 A 
ATOM     14  C   UNL d   1      14.657  11.787  -1.067  0.00  0.00     0.021 A 
ATOM     15  C   UNL d   1      14.711  13.340  -0.534  0.00  0.00     0.021 A 
ATOM     16  C   UNL d   1      14.991  12.732  -0.046  0.00  0.00     0.002 A 
ATOM     17  C   UNL d   1      14.962  11.950  -0.319  0.00  0.00     0.002 A 
ENDROOT
BRANCH   2  18
ATOM     18  C   UNL d   1      13.438  14.914  -3.063  0.00  0.00     0.150 C 
BRANCH  18  19
ATOM     19  C   UNL d   1      13.950  15.395  -3.501  0.00  0.00     0.314 C 
ATOM     20  O   UNL d   1      13.645  15.860  -4.116  0.00  0.00    -0.257 OA
BRANCH  19  21
ATOM     21  O   UNL d   1      14.743  15.411  -3.328  0.00  0.00    -0.295 OA
ATOM     22  C   UNL d   1      15.215  16.044  -3.578  0.00  0.00     0.185 C 
ENDBRANCH  19  21
ENDBRANCH  18  19
ENDBRANCH   2  18
BRANCH  12  23
ATOM     23  O   UNL d   1      12.814  11.796  -5.327  0.00  0.00    -0.328 OA
ATOM     24  C   UNL d   1      13.088  11.833  -6.104  0.00  0.00     0.181 C 
ENDBRANCH  12  23
TORSDOF 4
ENDMDL
