MODEL 1
REMARK VINA RESULT:      66.1      0.000      0.000
REMARK  6 active torsions:
REMARK  status: ('A' for Active; 'I' for Inactive)
REMARK    1  A    between atoms: N_8  and  S_1 
REMARK    2  A    between atoms: C_12  and  S_1 
REMARK    3  A    between atoms: N_5  and  C_2 
REMARK    4  A    between atoms: C_4  and  O_9 
REMARK    5  A    between atoms: O_9  and  C_10 
REMARK    6  A    between atoms: C_10  and  C_16 
ROOT
ATOM      1  C   UNL d   1     -51.041  26.561  33.512  0.00  0.00     0.104 A 
ATOM      2  C   UNL d   1     -50.086  27.884  33.674  0.00  0.00     0.064 A 
ATOM      3  C   UNL d   1     -50.243  26.476  33.666  0.00  0.00     0.013 A 
ATOM      4  C   UNL d   1     -51.364  27.316  33.438  0.00  0.00     0.013 A 
ATOM      5  C   UNL d   1     -49.756  27.145  33.749  0.00  0.00     0.006 A 
ATOM      6  C   UNL d   1     -50.887  27.981  33.519  0.00  0.00     0.006 A 
ENDROOT
BRANCH   2   7
ATOM      7  C   UNL d   1     -49.607  28.558  33.755  0.00  0.00     0.300 C 
ATOM      8  O   UNL d   1     -49.765  29.225  33.310  0.00  0.00    -0.259 OA
BRANCH   7   9
ATOM      9  O   UNL d   1     -48.973  28.547  34.287  0.00  0.00    -0.271 OA
BRANCH   9  10
ATOM     10  C   UNL d   1     -48.631  29.251  34.546  0.00  0.00     0.132 A 
ATOM     11  C   UNL d   1     -48.176  29.265  35.236  0.00  0.00     0.207 A 
ATOM     12  C   UNL d   1     -47.834  29.969  35.495  0.00  0.00     0.303 A 
ATOM     13  O   UNL d   1     -47.379  29.977  36.186  0.00  0.00    -0.263 OA
ATOM     14  N   UNL d   1     -47.946  30.661  35.065  0.00  0.00    -0.206 NA
ATOM     15  C   UNL d   1     -48.395  30.652  34.383  0.00  0.00     0.087 A 
ATOM     16  C   UNL d   1     -48.738  29.948  34.123  0.00  0.00     0.046 A 
ATOM     17  C   UNL d   1     -48.510  31.353  33.945  0.00  0.00     0.021 C 
BRANCH  11  18
ATOM     18  N   UNL d   1     -48.066  28.564  35.666  0.00  0.00    -0.107 N 
ATOM     19  O   UNL d   1     -48.585  28.378  36.281  0.00  0.00    -0.531 OA
ATOM     20  O   UNL d   1     -47.442  28.058  35.481  0.00  0.00    -0.531 OA
ENDBRANCH  11  18
ENDBRANCH   9  10
ENDBRANCH   7   9
ENDBRANCH   2   7
BRANCH   1  21
ATOM     21  S   UNL d   1     -51.526  25.908  33.430  0.00  0.00     0.271 S 
ATOM     22  O   UNL d   1     -52.144  25.390  33.348  0.00  0.00    -0.200 OA
ATOM     23  O   UNL d   1     -52.033  26.544  33.442  0.00  0.00    -0.200 OA
BRANCH  21  24
ATOM     24  N   UNL d   1     -51.183  25.168  33.398  0.00  0.00    -0.229 N 
ATOM     25  C   UNL d   1     -51.653  24.493  33.336  0.00  0.00     0.092 A 
ATOM     26  C   UNL d   1     -51.295  23.762  33.306  0.00  0.00     0.020 A 
ATOM     27  C   UNL d   1     -50.470  23.684  33.337  0.00  0.00     0.003 A 
ATOM     28  C   UNL d   1     -50.011  24.356  33.399  0.00  0.00     0.020 A 
ATOM     29  C   UNL d   1     -50.364  25.104  33.430  0.00  0.00     0.092 A 
ENDBRANCH  21  24
ENDBRANCH   1  21
TORSDOF 6
ENDMDL
MODEL 2
REMARK VINA RESULT:      66.8      1.074      1.865
REMARK  6 active torsions:
REMARK  status: ('A' for Active; 'I' for Inactive)
REMARK    1  A    between atoms: N_8  and  S_1 
REMARK    2  A    between atoms: C_12  and  S_1 
REMARK    3  A    between atoms: N_5  and  C_2 
REMARK    4  A    between atoms: C_4  and  O_9 
REMARK    5  A    between atoms: O_9  and  C_10 
REMARK    6  A    between atoms: C_10  and  C_16 
ROOT
ATOM      1  C   UNL d   1     -50.513  27.072  33.860  0.00  0.00     0.104 A 
ATOM      2  C   UNL d   1     -49.275  28.048  34.310  0.00  0.00     0.064 A 
ATOM      3  C   UNL d   1     -50.135  27.538  33.306  0.00  0.00     0.013 A 
ATOM      4  C   UNL d   1     -50.268  27.094  34.648  0.00  0.00     0.013 A 
ATOM      5  C   UNL d   1     -49.507  28.034  33.532  0.00  0.00     0.006 A 
ATOM      6  C   UNL d   1     -49.647  27.583  34.876  0.00  0.00     0.006 A 
ENDROOT
BRANCH   2   7
ATOM      7  C   UNL d   1     -48.648  28.540  34.544  0.00  0.00     0.300 C 
ATOM      8  O   UNL d   1     -47.915  28.216  34.704  0.00  0.00    -0.259 OA
BRANCH   7   9
ATOM      9  O   UNL d   1     -48.772  29.355  34.612  0.00  0.00    -0.271 OA
BRANCH   9  10
ATOM     10  C   UNL d   1     -48.227  29.831  35.008  0.00  0.00     0.132 A 
ATOM     11  C   UNL d   1     -48.139  30.626  34.800  0.00  0.00     0.207 A 
ATOM     12  C   UNL d   1     -47.594  31.102  35.197  0.00  0.00     0.303 A 
ATOM     13  O   UNL d   1     -47.510  31.898  34.985  0.00  0.00    -0.263 OA
ATOM     14  N   UNL d   1     -47.137  30.784  35.802  0.00  0.00    -0.206 NA
ATOM     15  C   UNL d   1     -47.221  29.998  36.010  0.00  0.00     0.087 A 
ATOM     16  C   UNL d   1     -47.766  29.522  35.614  0.00  0.00     0.046 A 
ATOM     17  C   UNL d   1     -46.758  29.673  36.624  0.00  0.00     0.021 C 
BRANCH  11  18
ATOM     18  N   UNL d   1     -48.603  30.942  34.190  0.00  0.00    -0.107 N 
ATOM     19  O   UNL d   1     -48.269  31.054  33.442  0.00  0.00    -0.531 OA
ATOM     20  O   UNL d   1     -49.391  31.143  34.329  0.00  0.00    -0.531 OA
ENDBRANCH  11  18
ENDBRANCH   9  10
ENDBRANCH   7   9
ENDBRANCH   2   7
BRANCH   1  21
ATOM     21  S   UNL d   1     -51.131  26.582  33.647  0.00  0.00     0.271 S 
ATOM     22  O   UNL d   1     -51.844  26.255  33.440  0.00  0.00    -0.200 OA
ATOM     23  O   UNL d   1     -51.461  27.324  33.695  0.00  0.00    -0.200 OA
BRANCH  21  24
ATOM     24  N   UNL d   1     -50.983  25.784  33.551  0.00  0.00    -0.229 N 
ATOM     25  C   UNL d   1     -50.212  25.494  33.600  0.00  0.00     0.092 A 
ATOM     26  C   UNL d   1     -50.082  24.696  33.502  0.00  0.00     0.020 A 
ATOM     27  C   UNL d   1     -50.707  24.172  33.353  0.00  0.00     0.003 A 
ATOM     28  C   UNL d   1     -51.467  24.467  33.306  0.00  0.00     0.020 A 
ATOM     29  C   UNL d   1     -51.611  25.275  33.404  0.00  0.00     0.092 A 
ENDBRANCH  21  24
ENDBRANCH   1  21
TORSDOF 6
ENDMDL
MODEL 3
REMARK VINA RESULT:      68.8      1.531      5.514
REMARK  6 active torsions:
REMARK  status: ('A' for Active; 'I' for Inactive)
REMARK    1  A    between atoms: N_8  and  S_1 
REMARK    2  A    between atoms: C_12  and  S_1 
REMARK    3  A    between atoms: N_5  and  C_2 
REMARK    4  A    between atoms: C_4  and  O_9 
REMARK    5  A    between atoms: O_9  and  C_10 
REMARK    6  A    between atoms: C_10  and  C_16 
ROOT
ATOM      1  C   UNL d   1     -48.052  29.147  35.301  0.00  0.00     0.104 A 
ATOM      2  C   UNL d   1     -48.689  27.816  34.587  0.00  0.00     0.064 A 
ATOM      3  C   UNL d   1     -47.908  28.996  34.511  0.00  0.00     0.013 A 
ATOM      4  C   UNL d   1     -48.520  28.627  35.737  0.00  0.00     0.013 A 
ATOM      5  C   UNL d   1     -48.229  28.321  34.146  0.00  0.00     0.006 A 
ATOM      6  C   UNL d   1     -48.840  27.958  35.381  0.00  0.00     0.006 A 
ENDROOT
BRANCH   2   7
ATOM      7  C   UNL d   1     -49.014  27.139  34.230  0.00  0.00     0.300 C 
ATOM      8  O   UNL d   1     -48.539  26.492  34.079  0.00  0.00    -0.259 OA
BRANCH   7   9
ATOM      9  O   UNL d   1     -49.816  27.128  34.031  0.00  0.00    -0.271 OA
BRANCH   9  10
ATOM     10  C   UNL d   1     -50.184  26.424  33.809  0.00  0.00     0.132 A 
ATOM     11  C   UNL d   1     -51.000  26.402  33.680  0.00  0.00     0.207 A 
ATOM     12  C   UNL d   1     -51.368  25.698  33.458  0.00  0.00     0.303 A 
ATOM     13  O   UNL d   1     -52.185  25.681  33.329  0.00  0.00    -0.263 OA
ATOM     14  N   UNL d   1     -50.921  25.014  33.365  0.00  0.00    -0.206 NA
ATOM     15  C   UNL d   1     -50.113  25.032  33.492  0.00  0.00     0.087 A 
ATOM     16  C   UNL d   1     -49.745  25.736  33.714  0.00  0.00     0.046 A 
ATOM     17  C   UNL d   1     -49.657  24.339  33.398  0.00  0.00     0.021 C 
BRANCH  11  18
ATOM     18  N   UNL d   1     -51.447  27.094  33.774  0.00  0.00    -0.107 N 
ATOM     19  O   UNL d   1     -51.279  27.754  33.308  0.00  0.00    -0.531 OA
ATOM     20  O   UNL d   1     -52.055  27.122  34.331  0.00  0.00    -0.531 OA
ENDBRANCH  11  18
ENDBRANCH   9  10
ENDBRANCH   7   9
ENDBRANCH   2   7
BRANCH   1  21
ATOM     21  S   UNL d   1     -47.740  29.808  35.666  0.00  0.00     0.271 S 
ATOM     22  O   UNL d   1     -47.402  30.344  36.172  0.00  0.00    -0.200 OA
ATOM     23  O   UNL d   1     -47.667  29.213  36.216  0.00  0.00    -0.200 OA
BRANCH  21  24
ATOM     24  N   UNL d   1     -47.730  30.514  35.256  0.00  0.00    -0.229 N 
ATOM     25  C   UNL d   1     -47.049  30.981  35.246  0.00  0.00     0.092 A 
ATOM     26  C   UNL d   1     -47.056  31.682  34.831  0.00  0.00     0.020 A 
ATOM     27  C   UNL d   1     -47.732  31.935  34.422  0.00  0.00     0.003 A 
ATOM     28  C   UNL d   1     -48.401  31.468  34.437  0.00  0.00     0.020 A 
ATOM     29  C   UNL d   1     -48.405  30.753  34.854  0.00  0.00     0.092 A 
ENDBRANCH  21  24
ENDBRANCH   1  21
TORSDOF 6
ENDMDL
