MODEL 1
REMARK VINA RESULT:      -4.1      0.000      0.000
REMARK  2 active torsions:
REMARK  status: ('A' for Active; 'I' for Inactive)
REMARK    1  A    between atoms: C_2  and  S_1 
REMARK    2  A    between atoms: N_4  and  S_1 
ROOT
ATOM      1  S   UNL d   1     -41.842-122.666 -50.613  0.00  0.00     0.275 S 
ATOM      2  O   UNL d   1     -42.563-122.300 -50.754  0.00  0.00    -0.199 OA
ATOM      3  O   UNL d   1     -41.123-123.034 -50.468  0.00  0.00    -0.199 OA
ENDROOT
BRANCH   1   4
ATOM      4  C   UNL d   1     -41.582-122.483 -51.370  0.00  0.00     0.143 A 
ATOM      5  C   UNL d   1     -41.529-123.016 -51.998  0.00  0.00     0.117 A 
ATOM      6  N   UNL d   1     -41.244-122.603 -52.652  0.00  0.00    -0.147 NA
ATOM      7  C   UNL d   1     -41.725-123.817 -51.980  0.00  0.00     0.023 C 
ATOM      8  N   UNL d   1     -41.123-121.818 -52.423  0.00  0.00    -0.147 NA
ATOM      9  C   UNL d   1     -41.333-121.752 -51.634  0.00  0.00     0.117 A 
ATOM     10  C   UNL d   1     -41.298-121.062 -51.183  0.00  0.00     0.023 C 
ENDBRANCH   1   4
BRANCH   1  11
ATOM     11  N   UNL d   1     -42.073-122.867 -49.844  0.00  0.00    -0.225 N 
ATOM     12  C   UNL d   1     -42.872-122.791 -49.616  0.00  0.00     0.118 A 
ATOM     13  C   UNL d   1     -43.102-122.992 -48.847  0.00  0.00     0.142 A 
ATOM     14  O   UNL d   1     -42.546-123.267 -48.306  0.00  0.00    -0.300 OA
ATOM     15  C   UNL d   1     -41.755-123.343 -48.530  0.00  0.00     0.142 A 
ATOM     16  C   UNL d   1     -41.516-123.143 -49.299  0.00  0.00     0.118 A 
ENDBRANCH   1  11
TORSDOF 2
ENDMDL
MODEL 2
REMARK VINA RESULT:      -3.9      2.129      3.028
REMARK  2 active torsions:
REMARK  status: ('A' for Active; 'I' for Inactive)
REMARK    1  A    between atoms: C_2  and  S_1 
REMARK    2  A    between atoms: N_4  and  S_1 
ROOT
ATOM      1  S   UNL d   1     -41.644-122.608 -53.237  0.00  0.00     0.275 S 
ATOM      2  O   UNL d   1     -42.164-123.239 -53.170  0.00  0.00    -0.199 OA
ATOM      3  O   UNL d   1     -41.123-121.977 -53.299  0.00  0.00    -0.199 OA
ENDROOT
BRANCH   1   4
ATOM      4  C   UNL d   1     -41.792-122.550 -54.042  0.00  0.00     0.143 A 
ATOM      5  C   UNL d   1     -42.210-121.939 -54.407  0.00  0.00     0.117 A 
ATOM      6  N   UNL d   1     -42.228-122.097 -55.215  0.00  0.00    -0.147 NA
ATOM      7  C   UNL d   1     -42.551-121.286 -54.035  0.00  0.00     0.023 C 
ATOM      8  N   UNL d   1     -41.821-122.805 -55.345  0.00  0.00    -0.147 NA
ATOM      9  C   UNL d   1     -41.555-123.077 -54.618  0.00  0.00     0.117 A 
ATOM     10  C   UNL d   1     -41.123-123.767 -54.493  0.00  0.00     0.023 C 
ENDBRANCH   1   4
BRANCH   1  11
ATOM     11  N   UNL d   1     -41.472-122.639 -52.427  0.00  0.00    -0.225 N 
ATOM     12  C   UNL d   1     -41.472-123.373 -52.030  0.00  0.00     0.118 A 
ATOM     13  C   UNL d   1     -41.300-123.403 -51.221  0.00  0.00     0.142 A 
ATOM     14  O   UNL d   1     -41.129-122.713 -50.807  0.00  0.00    -0.300 OA
ATOM     15  C   UNL d   1     -41.129-121.986 -51.198  0.00  0.00     0.142 A 
ATOM     16  C   UNL d   1     -41.300-121.947 -52.010  0.00  0.00     0.118 A 
ENDBRANCH   1  11
TORSDOF 2
ENDMDL
MODEL 3
REMARK VINA RESULT:      -3.8      1.125      3.088
REMARK  2 active torsions:
REMARK  status: ('A' for Active; 'I' for Inactive)
REMARK    1  A    between atoms: C_2  and  S_1 
REMARK    2  A    between atoms: N_4  and  S_1 
ROOT
ATOM      1  S   UNL d   1     -42.045-123.127 -49.939  0.00  0.00     0.275 S 
ATOM      2  O   UNL d   1     -42.503-122.446 -49.927  0.00  0.00    -0.199 OA
ATOM      3  O   UNL d   1     -41.586-123.807 -49.956  0.00  0.00    -0.199 OA
ENDROOT
BRANCH   1   4
ATOM      4  C   UNL d   1     -42.331-123.353 -49.204  0.00  0.00     0.143 A 
ATOM      5  C   UNL d   1     -43.080-123.670 -49.060  0.00  0.00     0.117 A 
ATOM      6  N   UNL d   1     -43.137-123.817 -48.251  0.00  0.00    -0.147 NA
ATOM      7  C   UNL d   1     -43.668-123.816 -49.620  0.00  0.00     0.023 C 
ATOM      8  N   UNL d   1     -42.424-123.590 -47.900  0.00  0.00    -0.147 NA
ATOM      9  C   UNL d   1     -41.933-123.306 -48.492  0.00  0.00     0.117 A 
ATOM     10  C   UNL d   1     -41.167-123.020 -48.386  0.00  0.00     0.023 C 
ENDBRANCH   1   4
BRANCH   1  11
ATOM     11  N   UNL d   1     -41.737-122.929 -50.682  0.00  0.00    -0.225 N 
ATOM     12  C   UNL d   1     -41.736-122.133 -50.933  0.00  0.00     0.118 A 
ATOM     13  C   UNL d   1     -41.428-121.936 -51.675  0.00  0.00     0.142 A 
ATOM     14  O   UNL d   1     -41.123-122.521 -52.166  0.00  0.00    -0.300 OA
ATOM     15  C   UNL d   1     -41.123-123.309 -51.920  0.00  0.00     0.142 A 
ATOM     16  C   UNL d   1     -41.430-123.515 -51.177  0.00  0.00     0.118 A 
ENDBRANCH   1  11
TORSDOF 2
ENDMDL
MODEL 4
REMARK VINA RESULT:      -3.3      2.497      4.160
REMARK  2 active torsions:
REMARK  status: ('A' for Active; 'I' for Inactive)
REMARK    1  A    between atoms: C_2  and  S_1 
REMARK    2  A    between atoms: N_4  and  S_1 
ROOT
ATOM      1  S   UNL d   1     -41.681-122.266 -53.295  0.00  0.00     0.275 S 
ATOM      2  O   UNL d   1     -41.123-121.666 -53.336  0.00  0.00    -0.199 OA
ATOM      3  O   UNL d   1     -42.241-122.865 -53.258  0.00  0.00    -0.199 OA
ENDROOT
BRANCH   1   4
ATOM      4  C   UNL d   1     -41.497-122.407 -52.507  0.00  0.00     0.143 A 
ATOM      5  C   UNL d   1     -41.540-121.848 -51.900  0.00  0.00     0.117 A 
ATOM      6  N   UNL d   1     -41.308-122.221 -51.203  0.00  0.00    -0.147 NA
ATOM      7  C   UNL d   1     -41.772-121.060 -51.973  0.00  0.00     0.023 C 
ATOM      8  N   UNL d   1     -41.124-123.006 -51.383  0.00  0.00    -0.147 NA
ATOM      9  C   UNL d   1     -41.242-123.113 -52.187  0.00  0.00     0.117 A 
ATOM     10  C   UNL d   1     -41.124-123.816 -52.601  0.00  0.00     0.023 C 
ENDBRANCH   1   4
BRANCH   1  11
ATOM     11  N   UNL d   1     -41.892-122.150 -54.087  0.00  0.00    -0.225 N 
ATOM     12  C   UNL d   1     -41.335-122.296 -54.691  0.00  0.00     0.118 A 
ATOM     13  C   UNL d   1     -41.546-122.180 -55.483  0.00  0.00     0.142 A 
ATOM     14  O   UNL d   1     -42.302-121.920 -55.677  0.00  0.00    -0.300 OA
ATOM     15  C   UNL d   1     -42.854-121.775 -55.080  0.00  0.00     0.142 A 
ATOM     16  C   UNL d   1     -42.651-121.889 -54.284  0.00  0.00     0.118 A 
ENDBRANCH   1  11
TORSDOF 2
ENDMDL
