MODEL 1
REMARK VINA RESULT:      -9.3      0.000      0.000
REMARK  7 active torsions:
REMARK  status: ('A' for Active; 'I' for Inactive)
REMARK       I    between atoms: C_3  and  N_1 
REMARK    1  A    between atoms: C_4  and  N_2 
REMARK    2  A    between atoms: C_15  and  C_3 
REMARK    3  A    between atoms: C_12  and  C_4 
REMARK    4  A    between atoms: C_13  and  C_4 
REMARK    5  A    between atoms: C_5  and  C_17 
REMARK    6  A    between atoms: C_16  and  C_15 
REMARK    7  A    between atoms: C_17  and  C_16 
ROOT
ATOM      1  N   UNL d   1      51.480  33.764  52.786  0.00  0.00    -0.269 N 
ATOM      2  N   UNL d   1      52.735  32.874  53.428  0.00  0.00    -0.301 N 
ATOM      3  C   UNL d   1      50.856  34.204  52.475  0.00  0.00     0.265 C 
ATOM      4  C   UNL d   1      51.427  33.465  53.562  0.00  0.00     0.102 A 
ATOM      5  C   UNL d   1      52.166  33.613  52.336  0.00  0.00     0.102 A 
ATOM      6  C   UNL d   1      52.790  33.168  52.658  0.00  0.00     0.100 A 
ATOM      7  C   UNL d   1      52.060  33.015  53.890  0.00  0.00     0.100 A 
ATOM      8  O   UNL d   1      50.918  34.493  51.710  0.00  0.00    -0.267 OA
ENDROOT
BRANCH   2   9
ATOM      9  C   UNL d   1      53.354  32.433  53.748  0.00  0.00     0.064 C 
BRANCH   9  10
ATOM     10  C   UNL d   1      53.969  32.811  54.166  0.00  0.00     0.016 A 
ATOM     11  C   UNL d   1      54.650  33.045  53.764  0.00  0.00     0.001 A 
ATOM     12  C   UNL d   1      55.248  33.416  54.186  0.00  0.00     0.000 A 
ATOM     13  C   UNL d   1      55.176  33.555  54.996  0.00  0.00     0.000 A 
ATOM     14  C   UNL d   1      54.492  33.317  55.387  0.00  0.00     0.000 A 
ATOM     15  C   UNL d   1      53.879  32.941  54.975  0.00  0.00     0.001 A 
ENDBRANCH   9  10
BRANCH   9  16
ATOM     16  C   UNL d   1      53.366  31.615  53.656  0.00  0.00     0.016 A 
ATOM     17  C   UNL d   1      53.135  31.129  54.272  0.00  0.00     0.001 A 
ATOM     18  C   UNL d   1      53.144  30.308  54.187  0.00  0.00     0.000 A 
ATOM     19  C   UNL d   1      53.391  29.977  53.466  0.00  0.00     0.000 A 
ATOM     20  C   UNL d   1      53.626  30.471  52.841  0.00  0.00     0.000 A 
ATOM     21  C   UNL d   1      53.611  31.286  52.940  0.00  0.00     0.001 A 
ENDBRANCH   9  16
ENDBRANCH   2   9
BRANCH   3  22
ATOM     22  C   UNL d   1      50.188  34.347  52.922  0.00  0.00     0.061 C 
BRANCH  22  23
ATOM     23  C   UNL d   1      49.646  34.908  52.672  0.00  0.00     0.011 C 
BRANCH  23  24
ATOM     24  C   UNL d   1      48.969  35.047  53.112  0.00  0.00     0.070 C 
BRANCH  24  25
ATOM     25  C   UNL d   1      48.517  35.715  52.967  0.00  0.00     0.211 C 
ATOM     26  O   UNL d   1      48.017  35.740  52.327  0.00  0.00    -0.644 OA
ATOM     27  O   UNL d   1      48.572  36.364  53.478  0.00  0.00    -0.644 OA
ENDBRANCH  24  25
ENDBRANCH  23  24
ENDBRANCH  22  23
ENDBRANCH   3  22
TORSDOF 7
ENDMDL
MODEL 2
REMARK VINA RESULT:      -9.3      0.053      2.019
REMARK  7 active torsions:
REMARK  status: ('A' for Active; 'I' for Inactive)
REMARK       I    between atoms: C_3  and  N_1 
REMARK    1  A    between atoms: C_4  and  N_2 
REMARK    2  A    between atoms: C_15  and  C_3 
REMARK    3  A    between atoms: C_12  and  C_4 
REMARK    4  A    between atoms: C_13  and  C_4 
REMARK    5  A    between atoms: C_5  and  C_17 
REMARK    6  A    between atoms: C_16  and  C_15 
REMARK    7  A    between atoms: C_17  and  C_16 
ROOT
ATOM      1  N   UNL d   1      51.454  33.749  52.800  0.00  0.00    -0.269 N 
ATOM      2  N   UNL d   1      52.709  32.844  53.422  0.00  0.00    -0.301 N 
ATOM      3  C   UNL d   1      50.830  34.196  52.499  0.00  0.00     0.265 C 
ATOM      4  C   UNL d   1      51.413  33.457  53.580  0.00  0.00     0.102 A 
ATOM      5  C   UNL d   1      52.128  33.583  52.336  0.00  0.00     0.102 A 
ATOM      6  C   UNL d   1      52.751  33.132  52.649  0.00  0.00     0.100 A 
ATOM      7  C   UNL d   1      52.046  33.000  53.897  0.00  0.00     0.100 A 
ATOM      8  O   UNL d   1      50.880  34.477  51.731  0.00  0.00    -0.267 OA
ENDROOT
BRANCH   2   9
ATOM      9  C   UNL d   1      53.328  32.396  53.732  0.00  0.00     0.064 C 
BRANCH   9  10
ATOM     10  C   UNL d   1      53.336  31.567  53.641  0.00  0.00     0.016 A 
ATOM     11  C   UNL d   1      53.552  31.239  52.917  0.00  0.00     0.001 A 
ATOM     12  C   UNL d   1      53.556  30.422  52.840  0.00  0.00     0.000 A 
ATOM     13  C   UNL d   1      53.348  29.933  53.470  0.00  0.00     0.000 A 
ATOM     14  C   UNL d   1      53.133  30.272  54.190  0.00  0.00     0.000 A 
ATOM     15  C   UNL d   1      53.125  31.095  54.283  0.00  0.00     0.001 A 
ENDBRANCH   9  10
BRANCH   9  16
ATOM     16  C   UNL d   1      53.943  32.769  54.134  0.00  0.00     0.016 A 
ATOM     17  C   UNL d   1      53.884  32.903  54.939  0.00  0.00     0.001 A 
ATOM     18  C   UNL d   1      54.496  33.276  55.348  0.00  0.00     0.000 A 
ATOM     19  C   UNL d   1      55.176  33.516  54.934  0.00  0.00     0.000 A 
ATOM     20  C   UNL d   1      55.234  33.379  54.117  0.00  0.00     0.000 A 
ATOM     21  C   UNL d   1      54.617  33.007  53.723  0.00  0.00     0.001 A 
ENDBRANCH   9  16
ENDBRANCH   2   9
BRANCH   3  22
ATOM     22  C   UNL d   1      50.175  34.353  52.959  0.00  0.00     0.061 C 
BRANCH  22  23
ATOM     23  C   UNL d   1      49.627  34.909  52.710  0.00  0.00     0.011 C 
BRANCH  23  24
ATOM     24  C   UNL d   1      48.966  35.068  53.166  0.00  0.00     0.070 C 
BRANCH  24  25
ATOM     25  C   UNL d   1      48.508  35.728  53.009  0.00  0.00     0.211 C 
ATOM     26  O   UNL d   1      47.995  35.730  52.379  0.00  0.00    -0.644 OA
ATOM     27  O   UNL d   1      48.571  36.395  53.496  0.00  0.00    -0.644 OA
ENDBRANCH  24  25
ENDBRANCH  23  24
ENDBRANCH  22  23
ENDBRANCH   3  22
TORSDOF 7
ENDMDL
MODEL 3
REMARK VINA RESULT:      -7.4      2.725      5.166
REMARK  7 active torsions:
REMARK  status: ('A' for Active; 'I' for Inactive)
REMARK       I    between atoms: C_3  and  N_1 
REMARK    1  A    between atoms: C_4  and  N_2 
REMARK    2  A    between atoms: C_15  and  C_3 
REMARK    3  A    between atoms: C_12  and  C_4 
REMARK    4  A    between atoms: C_13  and  C_4 
REMARK    5  A    between atoms: C_5  and  C_17 
REMARK    6  A    between atoms: C_16  and  C_15 
REMARK    7  A    between atoms: C_17  and  C_16 
ROOT
ATOM      1  N   UNL d   1      53.109  31.592  53.242  0.00  0.00    -0.269 N 
ATOM      2  N   UNL d   1      52.474  33.133  53.223  0.00  0.00    -0.301 N 
ATOM      3  C   UNL d   1      53.416  30.827  53.255  0.00  0.00     0.265 C 
ATOM      4  C   UNL d   1      52.365  31.743  53.589  0.00  0.00     0.102 A 
ATOM      5  C   UNL d   1      53.529  32.219  52.887  0.00  0.00     0.102 A 
ATOM      6  C   UNL d   1      53.210  32.986  52.879  0.00  0.00     0.100 A 
ATOM      7  C   UNL d   1      52.042  32.521  53.580  0.00  0.00     0.100 A 
ATOM      8  O   UNL d   1      54.148  30.689  52.912  0.00  0.00    -0.267 OA
ENDROOT
BRANCH   2   9
ATOM      9  C   UNL d   1      52.157  33.895  53.215  0.00  0.00     0.064 C 
BRANCH   9  10
ATOM     10  C   UNL d   1      51.471  34.062  52.770  0.00  0.00     0.016 A 
ATOM     11  C   UNL d   1      50.739  34.087  53.148  0.00  0.00     0.001 A 
ATOM     12  C   UNL d   1      50.071  34.252  52.701  0.00  0.00     0.000 A 
ATOM     13  C   UNL d   1      50.124  34.391  51.889  0.00  0.00     0.000 A 
ATOM     14  C   UNL d   1      50.861  34.364  51.523  0.00  0.00     0.000 A 
ATOM     15  C   UNL d   1      51.545  34.198  51.961  0.00  0.00     0.001 A 
ENDBRANCH   9  10
BRANCH   9  16
ATOM     16  C   UNL d   1      52.520  34.494  53.647  0.00  0.00     0.016 A 
ATOM     17  C   UNL d   1      53.042  35.006  53.280  0.00  0.00     0.001 A 
ATOM     18  C   UNL d   1      53.410  35.610  53.707  0.00  0.00     0.000 A 
ATOM     19  C   UNL d   1      53.244  35.694  54.517  0.00  0.00     0.000 A 
ATOM     20  C   UNL d   1      52.713  35.173  54.888  0.00  0.00     0.000 A 
ATOM     21  C   UNL d   1      52.355  34.578  54.451  0.00  0.00     0.001 A 
ENDBRANCH   9  16
ENDBRANCH   2   9
BRANCH   3  22
ATOM     22  C   UNL d   1      52.999  30.219  53.605  0.00  0.00     0.061 C 
BRANCH  22  23
ATOM     23  C   UNL d   1      53.402  29.607  53.969  0.00  0.00     0.011 C 
BRANCH  23  24
ATOM     24  C   UNL d   1      52.987  28.994  54.321  0.00  0.00     0.070 C 
BRANCH  24  25
ATOM     25  C   UNL d   1      53.355  28.513  54.872  0.00  0.00     0.211 C 
ATOM     26  O   UNL d   1      53.821  27.894  54.628  0.00  0.00    -0.644 OA
ATOM     27  O   UNL d   1      53.249  28.661  55.680  0.00  0.00    -0.644 OA
ENDBRANCH  24  25
ENDBRANCH  23  24
ENDBRANCH  22  23
ENDBRANCH   3  22
TORSDOF 7
ENDMDL
MODEL 4
REMARK VINA RESULT:      -7.4      2.726      4.848
REMARK  7 active torsions:
REMARK  status: ('A' for Active; 'I' for Inactive)
REMARK       I    between atoms: C_3  and  N_1 
REMARK    1  A    between atoms: C_4  and  N_2 
REMARK    2  A    between atoms: C_15  and  C_3 
REMARK    3  A    between atoms: C_12  and  C_4 
REMARK    4  A    between atoms: C_13  and  C_4 
REMARK    5  A    between atoms: C_5  and  C_17 
REMARK    6  A    between atoms: C_16  and  C_15 
REMARK    7  A    between atoms: C_17  and  C_16 
ROOT
ATOM      1  N   UNL d   1      53.109  31.593  53.242  0.00  0.00    -0.269 N 
ATOM      2  N   UNL d   1      52.480  33.137  53.227  0.00  0.00    -0.301 N 
ATOM      3  C   UNL d   1      53.414  30.826  53.253  0.00  0.00     0.265 C 
ATOM      4  C   UNL d   1      52.371  31.748  53.598  0.00  0.00     0.102 A 
ATOM      5  C   UNL d   1      53.527  32.217  52.879  0.00  0.00     0.102 A 
ATOM      6  C   UNL d   1      53.211  32.986  52.873  0.00  0.00     0.100 A 
ATOM      7  C   UNL d   1      52.051  32.527  53.592  0.00  0.00     0.100 A 
ATOM      8  O   UNL d   1      54.140  30.685  52.900  0.00  0.00    -0.267 OA
ENDROOT
BRANCH   2   9
ATOM      9  C   UNL d   1      52.167  33.900  53.221  0.00  0.00     0.064 C 
BRANCH   9  10
ATOM     10  C   UNL d   1      52.529  34.508  53.662  0.00  0.00     0.016 A 
ATOM     11  C   UNL d   1      52.356  34.587  54.464  0.00  0.00     0.001 A 
ATOM     12  C   UNL d   1      52.718  35.189  54.888  0.00  0.00     0.000 A 
ATOM     13  C   UNL d   1      53.246  35.708  54.525  0.00  0.00     0.000 A 
ATOM     14  C   UNL d   1      53.412  35.620  53.723  0.00  0.00     0.000 A 
ATOM     15  C   UNL d   1      53.054  35.017  53.282  0.00  0.00     0.001 A 
ENDBRANCH   9  10
BRANCH   9  16
ATOM     16  C   UNL d   1      51.493  34.063  52.777  0.00  0.00     0.016 A 
ATOM     17  C   UNL d   1      51.555  34.200  51.973  0.00  0.00     0.001 A 
ATOM     18  C   UNL d   1      50.883  34.364  51.521  0.00  0.00     0.000 A 
ATOM     19  C   UNL d   1      50.140  34.388  51.892  0.00  0.00     0.000 A 
ATOM     20  C   UNL d   1      50.078  34.248  52.709  0.00  0.00     0.000 A 
ATOM     21  C   UNL d   1      50.755  34.087  53.145  0.00  0.00     0.001 A 
ENDBRANCH   9  16
ENDBRANCH   2   9
BRANCH   3  22
ATOM     22  C   UNL d   1      52.998  30.221  53.610  0.00  0.00     0.061 C 
BRANCH  22  23
ATOM     23  C   UNL d   1      53.404  29.607  53.968  0.00  0.00     0.011 C 
BRANCH  23  24
ATOM     24  C   UNL d   1      52.992  28.987  54.309  0.00  0.00     0.070 C 
BRANCH  24  25
ATOM     25  C   UNL d   1      53.354  28.512  54.869  0.00  0.00     0.211 C 
ATOM     26  O   UNL d   1      53.813  27.883  54.637  0.00  0.00    -0.644 OA
ATOM     27  O   UNL d   1      53.251  28.677  55.674  0.00  0.00    -0.644 OA
ENDBRANCH  24  25
ENDBRANCH  23  24
ENDBRANCH  22  23
ENDBRANCH   3  22
TORSDOF 7
ENDMDL
MODEL 5
REMARK VINA RESULT:      -6.6      1.591      2.169
REMARK  7 active torsions:
REMARK  status: ('A' for Active; 'I' for Inactive)
REMARK       I    between atoms: C_3  and  N_1 
REMARK    1  A    between atoms: C_4  and  N_2 
REMARK    2  A    between atoms: C_15  and  C_3 
REMARK    3  A    between atoms: C_12  and  C_4 
REMARK    4  A    between atoms: C_13  and  C_4 
REMARK    5  A    between atoms: C_5  and  C_17 
REMARK    6  A    between atoms: C_16  and  C_15 
REMARK    7  A    between atoms: C_17  and  C_16 
ROOT
ATOM      1  N   UNL d   1      49.942  34.410  51.904  0.00  0.00    -0.269 N 
ATOM      2  N   UNL d   1      51.311  33.929  52.724  0.00  0.00    -0.301 N 
ATOM      3  C   UNL d   1      49.260  34.648  51.505  0.00  0.00     0.265 C 
ATOM      4  C   UNL d   1      49.925  34.327  52.734  0.00  0.00     0.102 A 
ATOM      5  C   UNL d   1      50.649  34.250  51.491  0.00  0.00     0.102 A 
ATOM      6  C   UNL d   1      51.330  34.011  51.902  0.00  0.00     0.100 A 
ATOM      7  C   UNL d   1      50.616  34.083  53.151  0.00  0.00     0.100 A 
ATOM      8  O   UNL d   1      49.288  34.727  50.690  0.00  0.00    -0.267 OA
ENDROOT
BRANCH   2   9
ATOM      9  C   UNL d   1      51.988  33.691  53.132  0.00  0.00     0.064 C 
BRANCH   9  10
ATOM     10  C   UNL d   1      52.435  34.245  53.567  0.00  0.00     0.016 A 
ATOM     11  C   UNL d   1      52.916  34.782  53.166  0.00  0.00     0.001 A 
ATOM     12  C   UNL d   1      53.352  35.322  53.604  0.00  0.00     0.000 A 
ATOM     13  C   UNL d   1      53.314  35.334  54.428  0.00  0.00     0.000 A 
ATOM     14  C   UNL d   1      52.830  34.793  54.817  0.00  0.00     0.000 A 
ATOM     15  C   UNL d   1      52.384  34.241  54.389  0.00  0.00     0.001 A 
ENDBRANCH   9  10
BRANCH   9  16
ATOM     16  C   UNL d   1      52.223  32.902  53.112  0.00  0.00     0.016 A 
ATOM     17  C   UNL d   1      52.907  32.688  52.718  0.00  0.00     0.001 A 
ATOM     18  C   UNL d   1      53.149  31.900  52.693  0.00  0.00     0.000 A 
ATOM     19  C   UNL d   1      52.690  31.321  53.073  0.00  0.00     0.000 A 
ATOM     20  C   UNL d   1      51.995  31.539  53.473  0.00  0.00     0.000 A 
ATOM     21  C   UNL d   1      51.767  32.328  53.490  0.00  0.00     0.001 A 
ENDBRANCH   9  16
ENDBRANCH   2   9
BRANCH   3  22
ATOM     22  C   UNL d   1      48.573  34.802  51.917  0.00  0.00     0.061 C 
BRANCH  22  23
ATOM     23  C   UNL d   1      47.938  35.148  51.531  0.00  0.00     0.011 C 
BRANCH  23  24
ATOM     24  C   UNL d   1      47.257  35.332  51.947  0.00  0.00     0.070 C 
BRANCH  24  25
ATOM     25  C   UNL d   1      46.607  35.638  51.554  0.00  0.00     0.211 C 
ATOM     26  O   UNL d   1      46.459  36.437  51.567  0.00  0.00    -0.644 OA
ATOM     27  O   UNL d   1      46.100  35.127  51.144  0.00  0.00    -0.644 OA
ENDBRANCH  24  25
ENDBRANCH  23  24
ENDBRANCH  22  23
ENDBRANCH   3  22
TORSDOF 7
ENDMDL
MODEL 6
REMARK VINA RESULT:      -6.6      1.565      2.840
REMARK  7 active torsions:
REMARK  status: ('A' for Active; 'I' for Inactive)
REMARK       I    between atoms: C_3  and  N_1 
REMARK    1  A    between atoms: C_4  and  N_2 
REMARK    2  A    between atoms: C_15  and  C_3 
REMARK    3  A    between atoms: C_12  and  C_4 
REMARK    4  A    between atoms: C_13  and  C_4 
REMARK    5  A    between atoms: C_5  and  C_17 
REMARK    6  A    between atoms: C_16  and  C_15 
REMARK    7  A    between atoms: C_17  and  C_16 
ROOT
ATOM      1  N   UNL d   1      49.994  34.401  51.902  0.00  0.00    -0.269 N 
ATOM      2  N   UNL d   1      51.354  33.917  52.737  0.00  0.00    -0.301 N 
ATOM      3  C   UNL d   1      49.317  34.640  51.495  0.00  0.00     0.265 C 
ATOM      4  C   UNL d   1      49.961  34.292  52.728  0.00  0.00     0.102 A 
ATOM      5  C   UNL d   1      50.712  34.266  51.500  0.00  0.00     0.102 A 
ATOM      6  C   UNL d   1      51.389  34.025  51.919  0.00  0.00     0.100 A 
ATOM      7  C   UNL d   1      50.647  34.047  53.153  0.00  0.00     0.100 A 
ATOM      8  O   UNL d   1      49.361  34.744  50.683  0.00  0.00    -0.267 OA
ENDROOT
BRANCH   2   9
ATOM      9  C   UNL d   1      52.025  33.678  53.153  0.00  0.00     0.064 C 
BRANCH   9  10
ATOM     10  C   UNL d   1      52.279  32.884  53.123  0.00  0.00     0.016 A 
ATOM     11  C   UNL d   1      53.005  32.702  52.778  0.00  0.00     0.001 A 
ATOM     12  C   UNL d   1      53.244  31.918  52.755  0.00  0.00     0.000 A 
ATOM     13  C   UNL d   1      52.772  31.318  53.069  0.00  0.00     0.000 A 
ATOM     14  C   UNL d   1      52.048  31.512  53.412  0.00  0.00     0.000 A 
ATOM     15  C   UNL d   1      51.793  32.300  53.443  0.00  0.00     0.001 A 
ENDBRANCH   9  10
BRANCH   9  16
ATOM     16  C   UNL d   1      52.447  34.226  53.599  0.00  0.00     0.016 A 
ATOM     17  C   UNL d   1      52.414  34.201  54.416  0.00  0.00     0.001 A 
ATOM     18  C   UNL d   1      52.834  34.747  54.871  0.00  0.00     0.000 A 
ATOM     19  C   UNL d   1      53.294  35.325  54.490  0.00  0.00     0.000 A 
ATOM     20  C   UNL d   1      53.327  35.349  53.660  0.00  0.00     0.000 A 
ATOM     21  C   UNL d   1      52.903  34.800  53.221  0.00  0.00     0.001 A 
ENDBRANCH   9  16
ENDBRANCH   2   9
BRANCH   3  22
ATOM     22  C   UNL d   1      48.618  34.770  51.896  0.00  0.00     0.061 C 
BRANCH  22  23
ATOM     23  C   UNL d   1      47.986  35.114  51.507  0.00  0.00     0.011 C 
BRANCH  23  24
ATOM     24  C   UNL d   1      47.333  35.370  51.931  0.00  0.00     0.070 C 
BRANCH  24  25
ATOM     25  C   UNL d   1      46.672  35.649  51.537  0.00  0.00     0.211 C 
ATOM     26  O   UNL d   1      46.182  35.133  51.144  0.00  0.00    -0.644 OA
ATOM     27  O   UNL d   1      46.505  36.460  51.542  0.00  0.00    -0.644 OA
ENDBRANCH  24  25
ENDBRANCH  23  24
ENDBRANCH  22  23
ENDBRANCH   3  22
TORSDOF 7
ENDMDL
