MODEL 1
REMARK VINA RESULT:       0.3      0.000      0.000
REMARK  2 active torsions:
REMARK  status: ('A' for Active; 'I' for Inactive)
REMARK    1  A    between atoms: C_6  and  C_4 
REMARK    2  A    between atoms: C_7  and  C_6 
ROOT
ATOM      1  N   UNL d   1      45.278 -14.730  44.572  0.00  0.00    -0.163 NA
ATOM      2  C   UNL d   1      45.837 -14.212  44.263  0.00  0.00     0.288 A 
ATOM      3  C   UNL d   1      44.570 -14.316  44.662  0.00  0.00     0.313 A 
ATOM      4  C   UNL d   1      45.477 -13.476  44.162  0.00  0.00     0.098 A 
ATOM      5  S   UNL d   1      44.691 -13.542  44.409  0.00  0.00    -0.020 SA
ATOM      6  O   UNL d   1      46.617 -14.389  44.085  0.00  0.00    -0.265 OA
ATOM      7  O   UNL d   1      43.864 -14.626  44.955  0.00  0.00    -0.258 OA
ENDROOT
BRANCH   4   8
ATOM      8  C   UNL d   1      45.476 -12.679  43.938  0.00  0.00     0.075 C 
ATOM      9  C   UNL d   1      45.741 -12.099  44.460  0.00  0.00     0.007 C 
BRANCH   8  10
ATOM     10  C   UNL d   1      45.209 -12.460  43.188  0.00  0.00     0.211 C 
ATOM     11  O   UNL d   1      45.681 -12.605  42.527  0.00  0.00    -0.644 OA
ATOM     12  O   UNL d   1      44.478 -12.098  43.095  0.00  0.00    -0.644 OA
ENDBRANCH   8  10
ENDBRANCH   4   8
TORSDOF 2
ENDMDL
MODEL 2
REMARK VINA RESULT:       2.2      7.027      7.755
REMARK  2 active torsions:
REMARK  status: ('A' for Active; 'I' for Inactive)
REMARK    1  A    between atoms: C_6  and  C_4 
REMARK    2  A    between atoms: C_7  and  C_6 
ROOT
ATOM      1  N   UNL d   1      45.669 -14.401  37.168  0.00  0.00    -0.163 NA
ATOM      2  C   UNL d   1      44.870 -14.490  37.339  0.00  0.00     0.288 A 
ATOM      3  C   UNL d   1      45.891 -15.014  36.663  0.00  0.00     0.313 A 
ATOM      4  C   UNL d   1      44.595 -15.159  36.939  0.00  0.00     0.098 A 
ATOM      5  S   UNL d   1      45.230 -15.483  36.520  0.00  0.00    -0.020 SA
ATOM      6  O   UNL d   1      44.418 -14.005  37.820  0.00  0.00    -0.265 OA
ATOM      7  O   UNL d   1      46.647 -15.134  36.354  0.00  0.00    -0.258 OA
ENDROOT
BRANCH   4   8
ATOM      8  C   UNL d   1      44.007 -15.701  36.723  0.00  0.00     0.075 C 
ATOM      9  C   UNL d   1      44.205 -16.397  36.330  0.00  0.00     0.007 C 
BRANCH   8  10
ATOM     10  C   UNL d   1      43.216 -15.546  36.900  0.00  0.00     0.211 C 
ATOM     11  O   UNL d   1      43.016 -15.232  37.637  0.00  0.00    -0.644 OA
ATOM     12  O   UNL d   1      42.627 -15.700  36.349  0.00  0.00    -0.644 OA
ENDBRANCH   8  10
ENDBRANCH   4   8
TORSDOF 2
ENDMDL
