MODEL 1
REMARK VINA RESULT:      65.6      0.000      0.000
REMARK  3 active torsions:
REMARK  status: ('A' for Active; 'I' for Inactive)
REMARK    1  A    between atoms: C_11  and  C_2 
REMARK    2  A    between atoms: C_12  and  C_3 
REMARK    3  A    between atoms: N_7  and  C_6 
ROOT
ATOM      1  C   UNL d   1      45.914 -16.674  43.604  0.00  0.00     0.078 A 
ATOM      2  C   UNL d   1      45.871 -15.272  43.332  0.00  0.00     0.029 A 
ATOM      3  C   UNL d   1      45.868 -15.119  44.147  0.00  0.00     0.102 A 
ATOM      4  C   UNL d   1      45.910 -16.518  44.418  0.00  0.00     0.187 A 
ATOM      5  O   UNL d   1      45.888 -15.742  44.680  0.00  0.00    -0.289 OA
ATOM      6  C   UNL d   1      45.937 -17.460  43.335  0.00  0.00     0.153 A 
ATOM      7  N   UNL d   1      45.930 -17.143  44.954  0.00  0.00    -0.200 NA
ATOM      8  N   UNL d   1      45.956 -18.076  43.879  0.00  0.00    -0.206 NA
ATOM      9  C   UNL d   1      45.953 -17.923  44.695  0.00  0.00     0.202 A 
ENDROOT
BRANCH   2  10
ATOM     10  C   UNL d   1      45.851 -14.646  42.796  0.00  0.00     0.002 A 
ATOM     11  C   UNL d   1      46.442 -14.567  42.240  0.00  0.00     0.000 A 
ATOM     12  C   UNL d   1      46.418 -13.938  41.704  0.00  0.00     0.000 A 
ATOM     13  C   UNL d   1      45.797 -13.390  41.730  0.00  0.00     0.000 A 
ATOM     14  C   UNL d   1      45.201 -13.475  42.295  0.00  0.00     0.000 A 
ATOM     15  C   UNL d   1      45.223 -14.104  42.832  0.00  0.00     0.000 A 
ENDBRANCH   2  10
BRANCH   3  16
ATOM     16  C   UNL d   1      45.845 -14.343  44.418  0.00  0.00     0.023 A 
ATOM     17  C   UNL d   1      46.535 -13.990  44.680  0.00  0.00     0.002 A 
ATOM     18  C   UNL d   1      46.513 -13.214  44.951  0.00  0.00     0.000 A 
ATOM     19  C   UNL d   1      45.799 -12.802  44.954  0.00  0.00     0.000 A 
ATOM     20  C   UNL d   1      45.109 -13.168  44.687  0.00  0.00     0.000 A 
ATOM     21  C   UNL d   1      45.141 -13.937  44.421  0.00  0.00     0.002 A 
ENDBRANCH   3  16
BRANCH   6  22
ATOM     22  N   UNL d   1      45.940 -17.616  42.525  0.00  0.00    -0.285 N 
ATOM     23  C   UNL d   1      46.641 -17.797  42.137  0.00  0.00     0.108 A 
ATOM     24  C   UNL d   1      46.644 -17.954  41.323  0.00  0.00     0.142 A 
ATOM     25  O   UNL d   1      45.945 -17.928  40.897  0.00  0.00    -0.300 OA
ATOM     26  C   UNL d   1      45.231 -17.743  41.292  0.00  0.00     0.142 A 
ATOM     27  C   UNL d   1      45.228 -17.588  42.098  0.00  0.00     0.108 A 
ENDBRANCH   6  22
TORSDOF 3
ENDMDL
