MODEL 1
REMARK VINA RESULT:      13.9      0.000      0.000
REMARK  3 active torsions:
REMARK  status: ('A' for Active; 'I' for Inactive)
REMARK    1  A    between atoms: C_2  and  C_1 
REMARK    2  A    between atoms: N_3  and  C_1 
REMARK    3  A    between atoms: C_13  and  N_3 
ROOT
ATOM      1  C   UNL d   1      46.161 -17.671  43.741  0.00  0.00     0.030 A 
ATOM      2  C   UNL d   1      46.403 -18.360  42.505  0.00  0.00     0.119 A 
ATOM      3  C   UNL d   1      46.258 -17.660  42.914  0.00  0.00     0.029 A 
ATOM      4  C   UNL d   1      46.449 -19.072  42.925  0.00  0.00     0.119 A 
ATOM      5  O   UNL d   1      46.525 -18.526  41.674  0.00  0.00    -0.300 OA
ATOM      6  O   UNL d   1      46.602 -19.683  42.343  0.00  0.00    -0.300 OA
ATOM      7  C   UNL d   1      46.640 -19.330  41.626  0.00  0.00     0.304 A 
ATOM      8  C   UNL d   1      46.209 -18.383  44.152  0.00  0.00     0.004 A 
ATOM      9  C   UNL d   1      46.353 -19.083  43.744  0.00  0.00     0.026 A 
ENDROOT
BRANCH   1  10
ATOM     10  C   UNL d   1      46.016 -16.971  44.149  0.00  0.00     0.136 C 
ATOM     11  S   UNL d   1      46.226 -16.906  44.945  0.00  0.00    -0.057 SA
BRANCH  10  12
ATOM     12  N   UNL d   1      45.658 -16.329  43.754  0.00  0.00    -0.235 NA
BRANCH  12  13
ATOM     13  C   UNL d   1      45.550 -15.611  44.150  0.00  0.00     0.082 A 
ATOM     14  C   UNL d   1      46.140 -15.042  44.131  0.00  0.00     0.019 A 
ATOM     15  C   UNL d   1      46.032 -14.324  44.526  0.00  0.00     0.002 A 
ATOM     16  C   UNL d   1      45.332 -14.182  44.938  0.00  0.00     0.000 A 
ATOM     17  C   UNL d   1      44.738 -14.759  44.955  0.00  0.00     0.002 A 
ATOM     18  C   UNL d   1      44.848 -15.473  44.560  0.00  0.00     0.019 A 
ENDBRANCH  12  13
ENDBRANCH  10  12
ENDBRANCH   1  10
TORSDOF 3
ENDMDL
MODEL 2
REMARK VINA RESULT:      14.0      0.512      1.219
REMARK  3 active torsions:
REMARK  status: ('A' for Active; 'I' for Inactive)
REMARK    1  A    between atoms: C_2  and  C_1 
REMARK    2  A    between atoms: N_3  and  C_1 
REMARK    3  A    between atoms: C_13  and  N_3 
ROOT
ATOM      1  C   UNL d   1      46.119 -17.692  43.702  0.00  0.00     0.030 A 
ATOM      2  C   UNL d   1      46.382 -19.102  43.625  0.00  0.00     0.119 A 
ATOM      3  C   UNL d   1      46.249 -18.425  44.076  0.00  0.00     0.029 A 
ATOM      4  C   UNL d   1      46.384 -19.044  42.800  0.00  0.00     0.119 A 
ATOM      5  O   UNL d   1      46.530 -19.916  43.841  0.00  0.00    -0.300 OA
ATOM      6  O   UNL d   1      46.535 -19.835  42.505  0.00  0.00    -0.300 OA
ATOM      7  C   UNL d   1      46.615 -20.317  43.139  0.00  0.00     0.304 A 
ATOM      8  C   UNL d   1      46.122 -17.643  42.880  0.00  0.00     0.004 A 
ATOM      9  C   UNL d   1      46.254 -18.319  42.429  0.00  0.00     0.026 A 
ENDROOT
BRANCH   1  10
ATOM     10  C   UNL d   1      45.986 -17.017  44.152  0.00  0.00     0.136 C 
ATOM     11  S   UNL d   1      45.798 -17.085  44.954  0.00  0.00    -0.057 SA
BRANCH  10  12
ATOM     12  N   UNL d   1      46.043 -16.264  43.796  0.00  0.00    -0.235 NA
BRANCH  12  13
ATOM     13  C   UNL d   1      45.738 -15.601  44.184  0.00  0.00     0.082 A 
ATOM     14  C   UNL d   1      45.014 -15.648  44.565  0.00  0.00     0.019 A 
ATOM     15  C   UNL d   1      44.708 -14.984  44.953  0.00  0.00     0.002 A 
ATOM     16  C   UNL d   1      45.133 -14.277  44.954  0.00  0.00     0.000 A 
ATOM     17  C   UNL d   1      45.864 -14.233  44.568  0.00  0.00     0.002 A 
ATOM     18  C   UNL d   1      46.165 -14.895  44.183  0.00  0.00     0.019 A 
ENDBRANCH  12  13
ENDBRANCH  10  12
ENDBRANCH   1  10
TORSDOF 3
ENDMDL
