MODEL 1
REMARK VINA RESULT:      64.4      0.000      0.000
REMARK  4 active torsions:
REMARK  status: ('A' for Active; 'I' for Inactive)
REMARK    1  A    between atoms: C_7  and  C_1 
REMARK       I    between atoms: C_6  and  N_8 
REMARK    2  A    between atoms: C_14  and  C_6 
REMARK    3  A    between atoms: N_8  and  C_15 
REMARK    4  A    between atoms: C_20  and  C_14 
ROOT
ATOM      1  C   UNL d   1      13.683  15.159  -4.808  0.00  0.00     0.024 A 
ATOM      2  C   UNL d   1      13.001  15.049  -4.371  0.00  0.00     0.004 A 
ATOM      3  C   UNL d   1      14.157  14.513  -5.036  0.00  0.00     0.004 A 
ATOM      4  C   UNL d   1      13.236  13.634  -4.367  0.00  0.00     0.085 A 
ATOM      5  C   UNL d   1      12.770  14.277  -4.144  0.00  0.00     0.019 A 
ATOM      6  C   UNL d   1      13.920  13.746  -4.806  0.00  0.00     0.019 A 
ENDROOT
BRANCH   1   7
ATOM      7  C   UNL d   1      13.896  15.917  -5.022  0.00  0.00     0.111 A 
ATOM      8  N   UNL d   1      14.568  16.292  -4.772  0.00  0.00    -0.239 NA
ATOM      9  C   UNL d   1      14.604  17.045  -5.095  0.00  0.00     0.088 A 
ATOM     10  C   UNL d   1      15.143  17.656  -5.036  0.00  0.00     0.020 A 
ATOM     11  C   UNL d   1      13.920  17.135  -5.567  0.00  0.00     0.049 A 
ATOM     12  C   UNL d   1      15.006  18.344  -5.438  0.00  0.00     0.002 A 
ATOM     13  C   UNL d   1      14.323  18.434  -5.910  0.00  0.00     0.001 A 
ATOM     14  C   UNL d   1      13.783  17.838  -5.976  0.00  0.00     0.008 A 
ATOM     15  C   UNL d   1      14.204  19.146  -6.312  0.00  0.00     0.000 C 
ATOM     16  S   UNL d   1      13.487  16.442  -5.521  0.00  0.00    -0.066 SA
ENDBRANCH   1   7
BRANCH   4  17
ATOM     17  N   UNL d   1      13.024  12.885  -4.155  0.00  0.00    -0.208 NA
ATOM     18  C   UNL d   1      13.264  12.587  -3.493  0.00  0.00     0.279 C 
ATOM     19  O   UNL d   1      13.039  11.780  -3.257  0.00  0.00    -0.265 OA
BRANCH  18  20
ATOM     20  C   UNL d   1      13.734  13.101  -3.063  0.00  0.00     0.062 C 
BRANCH  20  21
ATOM     21  C   UNL d   1      14.076  12.851  -2.371  0.00  0.00     0.005 A 
ATOM     22  C   UNL d   1      14.255  12.057  -2.282  0.00  0.00     0.000 A 
ATOM     23  C   UNL d   1      14.608  11.779  -1.578  0.00  0.00     0.000 A 
ATOM     24  C   UNL d   1      14.775  12.317  -0.972  0.00  0.00     0.000 A 
ATOM     25  C   UNL d   1      14.591  13.118  -1.073  0.00  0.00     0.000 A 
ATOM     26  C   UNL d   1      14.245  13.391  -1.762  0.00  0.00     0.000 A 
ENDBRANCH  20  21
ENDBRANCH  18  20
ENDBRANCH   4  17
TORSDOF 4
ENDMDL
