MODEL 1
REMARK VINA RESULT:      -7.6      0.000      0.000
REMARK  2 active torsions:
REMARK  status: ('A' for Active; 'I' for Inactive)
REMARK    1  A    between atoms: C_6  and  C_1 
REMARK    2  A    between atoms: C_7  and  C_4 
ROOT
ATOM      1  C   UNL d   1     -45.942  13.139  22.553  0.00  0.00     0.169 A 
ATOM      2  C   UNL d   1     -46.604  13.048  22.069  0.00  0.00     0.048 A 
ATOM      3  N   UNL d   1     -46.710  12.769  23.688  0.00  0.00    -0.148 NA
ATOM      4  C   UNL d   1     -47.375  12.677  23.208  0.00  0.00     0.105 A 
ATOM      5  N   UNL d   1     -45.986  13.001  23.364  0.00  0.00    -0.142 NA
ENDROOT
BRANCH   4   6
ATOM      6  C   UNL d   1     -48.163  12.460  23.330  0.00  0.00     0.019 A 
ATOM      7  C   UNL d   1     -48.341  11.693  23.571  0.00  0.00     0.002 A 
ATOM      8  C   UNL d   1     -49.120  11.473  23.693  0.00  0.00     0.000 A 
ATOM      9  C   UNL d   1     -47.731  11.146  23.689  0.00  0.00     0.000 C 
ATOM     10  C   UNL d   1     -49.731  12.020  23.575  0.00  0.00     0.000 A 
ATOM     11  C   UNL d   1     -49.549  12.791  23.333  0.00  0.00     0.000 A 
ATOM     12  C   UNL d   1     -50.515  11.799  23.697  0.00  0.00     0.000 C 
ATOM     13  C   UNL d   1     -48.770  13.011  23.211  0.00  0.00     0.002 A 
ENDBRANCH   4   6
BRANCH   1  14
ATOM     14  C   UNL d   1     -45.222  13.372  22.220  0.00  0.00     0.231 C 
ATOM     15  O   UNL d   1     -44.715  12.806  21.899  0.00  0.00    -0.643 OA
ATOM     16  O   UNL d   1     -45.011  14.168  22.207  0.00  0.00    -0.643 OA
ENDBRANCH   1  14
TORSDOF 2
ENDMDL
MODEL 2
REMARK VINA RESULT:      -7.6      1.664      2.164
REMARK  2 active torsions:
REMARK  status: ('A' for Active; 'I' for Inactive)
REMARK    1  A    between atoms: C_6  and  C_1 
REMARK    2  A    between atoms: C_7  and  C_4 
ROOT
ATOM      1  C   UNL d   1     -46.390  13.344  22.613  0.00  0.00     0.169 A 
ATOM      2  C   UNL d   1     -46.611  13.909  23.172  0.00  0.00     0.048 A 
ATOM      3  N   UNL d   1     -47.706  13.346  22.079  0.00  0.00    -0.148 NA
ATOM      4  C   UNL d   1     -47.931  13.911  22.636  0.00  0.00     0.105 A 
ATOM      5  N   UNL d   1     -46.931  13.056  22.062  0.00  0.00    -0.142 NA
ENDROOT
BRANCH   4   6
ATOM      6  C   UNL d   1     -48.629  14.314  22.814  0.00  0.00     0.019 A 
ATOM      7  C   UNL d   1     -49.258  13.908  23.157  0.00  0.00     0.002 A 
ATOM      8  C   UNL d   1     -49.952  14.303  23.337  0.00  0.00     0.000 A 
ATOM      9  C   UNL d   1     -49.186  13.100  23.321  0.00  0.00     0.000 C 
ATOM     10  C   UNL d   1     -50.025  15.112  23.173  0.00  0.00     0.000 A 
ATOM     11  C   UNL d   1     -49.392  15.519  22.828  0.00  0.00     0.000 A 
ATOM     12  C   UNL d   1     -50.724  15.511  23.354  0.00  0.00     0.000 C 
ATOM     13  C   UNL d   1     -48.697  15.124  22.649  0.00  0.00     0.002 A 
ENDBRANCH   4   6
BRANCH   1  14
ATOM     14  C   UNL d   1     -45.613  13.061  22.605  0.00  0.00     0.231 C 
ATOM     15  O   UNL d   1     -45.398  12.436  23.100  0.00  0.00    -0.643 OA
ATOM     16  O   UNL d   1     -45.055  13.401  22.104  0.00  0.00    -0.643 OA
ENDBRANCH   1  14
TORSDOF 2
ENDMDL
MODEL 3
REMARK VINA RESULT:      -7.5      1.778      2.455
REMARK  2 active torsions:
REMARK  status: ('A' for Active; 'I' for Inactive)
REMARK    1  A    between atoms: C_6  and  C_1 
REMARK    2  A    between atoms: C_7  and  C_4 
ROOT
ATOM      1  C   UNL d   1     -46.496  13.292  22.692  0.00  0.00     0.169 A 
ATOM      2  C   UNL d   1     -46.732  13.811  23.288  0.00  0.00     0.048 A 
ATOM      3  N   UNL d   1     -47.793  13.348  22.117  0.00  0.00    -0.148 NA
ATOM      4  C   UNL d   1     -48.034  13.867  22.711  0.00  0.00     0.105 A 
ATOM      5  N   UNL d   1     -47.019  13.055  22.102  0.00  0.00    -0.142 NA
ENDROOT
BRANCH   4   6
ATOM      6  C   UNL d   1     -48.736  14.259  22.899  0.00  0.00     0.019 A 
ATOM      7  C   UNL d   1     -48.839  15.042  22.665  0.00  0.00     0.002 A 
ATOM      8  C   UNL d   1     -49.533  15.436  22.850  0.00  0.00     0.000 A 
ATOM      9  C   UNL d   1     -48.241  15.429  22.244  0.00  0.00     0.000 C 
ATOM     10  C   UNL d   1     -50.132  15.049  23.271  0.00  0.00     0.000 A 
ATOM     11  C   UNL d   1     -50.026  14.262  23.505  0.00  0.00     0.000 A 
ATOM     12  C   UNL d   1     -50.831  15.445  23.457  0.00  0.00     0.000 C 
ATOM     13  C   UNL d   1     -49.332  13.868  23.321  0.00  0.00     0.002 A 
ENDBRANCH   4   6
BRANCH   1  14
ATOM     14  C   UNL d   1     -45.720  13.004  22.686  0.00  0.00     0.231 C 
ATOM     15  O   UNL d   1     -45.161  13.342  22.183  0.00  0.00    -0.643 OA
ATOM     16  O   UNL d   1     -45.507  12.382  23.181  0.00  0.00    -0.643 OA
ENDBRANCH   1  14
TORSDOF 2
ENDMDL
MODEL 4
REMARK VINA RESULT:      -7.4      2.665      3.667
REMARK  2 active torsions:
REMARK  status: ('A' for Active; 'I' for Inactive)
REMARK    1  A    between atoms: C_6  and  C_1 
REMARK    2  A    between atoms: C_7  and  C_4 
ROOT
ATOM      1  C   UNL d   1     -49.674  14.716  22.892  0.00  0.00     0.169 A 
ATOM      2  C   UNL d   1     -49.535  14.257  23.564  0.00  0.00     0.048 A 
ATOM      3  N   UNL d   1     -48.599  14.077  22.221  0.00  0.00    -0.148 NA
ATOM      4  C   UNL d   1     -48.456  13.615  22.890  0.00  0.00     0.105 A 
ATOM      5  N   UNL d   1     -49.211  14.633  22.217  0.00  0.00    -0.142 NA
ENDROOT
BRANCH   4   6
ATOM      6  C   UNL d   1     -47.915  13.025  23.093  0.00  0.00     0.019 A 
ATOM      7  C   UNL d   1     -47.112  13.203  23.123  0.00  0.00     0.002 A 
ATOM      8  C   UNL d   1     -46.571  12.621  23.323  0.00  0.00     0.000 A 
ATOM      9  C   UNL d   1     -46.852  13.970  22.950  0.00  0.00     0.000 C 
ATOM     10  C   UNL d   1     -46.830  11.854  23.496  0.00  0.00     0.000 A 
ATOM     11  C   UNL d   1     -47.638  11.677  23.465  0.00  0.00     0.000 A 
ATOM     12  C   UNL d   1     -46.285  11.268  23.698  0.00  0.00     0.000 C 
ATOM     13  C   UNL d   1     -48.179  12.258  23.265  0.00  0.00     0.002 A 
ENDBRANCH   4   6
BRANCH   1  14
ATOM     14  C   UNL d   1     -50.289  15.270  22.897  0.00  0.00     0.231 C 
ATOM     15  O   UNL d   1     -50.384  15.773  23.544  0.00  0.00    -0.643 OA
ATOM     16  O   UNL d   1     -50.806  15.318  22.258  0.00  0.00    -0.643 OA
ENDBRANCH   1  14
TORSDOF 2
ENDMDL
MODEL 5
REMARK VINA RESULT:      -6.0      7.699      9.972
REMARK  2 active torsions:
REMARK  status: ('A' for Active; 'I' for Inactive)
REMARK    1  A    between atoms: C_6  and  C_1 
REMARK    2  A    between atoms: C_7  and  C_4 
ROOT
ATOM      1  C   UNL d   1     -40.569  14.470  19.652  0.00  0.00     0.169 A 
ATOM      2  C   UNL d   1     -39.784  14.660  19.485  0.00  0.00     0.048 A 
ATOM      3  N   UNL d   1     -40.715  13.902  18.359  0.00  0.00    -0.148 NA
ATOM      4  C   UNL d   1     -39.930  14.090  18.187  0.00  0.00     0.105 A 
ATOM      5  N   UNL d   1     -41.042  14.091  19.094  0.00  0.00    -0.142 NA
ENDROOT
BRANCH   4   6
ATOM      6  C   UNL d   1     -39.430  13.992  17.537  0.00  0.00     0.019 A 
ATOM      7  C   UNL d   1     -39.447  14.542  16.925  0.00  0.00     0.002 A 
ATOM      8  C   UNL d   1     -38.953  14.449  16.278  0.00  0.00     0.000 A 
ATOM      9  C   UNL d   1     -39.963  15.188  16.965  0.00  0.00     0.000 C 
ATOM     10  C   UNL d   1     -38.437  13.803  16.238  0.00  0.00     0.000 A 
ATOM     11  C   UNL d   1     -38.422  13.251  16.854  0.00  0.00     0.000 A 
ATOM     12  C   UNL d   1     -37.940  13.709  15.586  0.00  0.00     0.000 C 
ATOM     13  C   UNL d   1     -38.915  13.343  17.501  0.00  0.00     0.002 A 
ENDBRANCH   4   6
BRANCH   1  14
ATOM     14  C   UNL d   1     -40.887  14.663  20.390  0.00  0.00     0.231 C 
ATOM     15  O   UNL d   1     -41.102  15.443  20.554  0.00  0.00    -0.643 OA
ATOM     16  O   UNL d   1     -40.990  14.079  20.961  0.00  0.00    -0.643 OA
ENDBRANCH   1  14
TORSDOF 2
ENDMDL
MODEL 6
REMARK VINA RESULT:      -5.5      8.289      9.319
REMARK  2 active torsions:
REMARK  status: ('A' for Active; 'I' for Inactive)
REMARK    1  A    between atoms: C_6  and  C_1 
REMARK    2  A    between atoms: C_7  and  C_4 
ROOT
ATOM      1  C   UNL d   1     -38.948  13.759  17.334  0.00  0.00     0.169 A 
ATOM      2  C   UNL d   1     -38.631  14.211  17.948  0.00  0.00     0.048 A 
ATOM      3  N   UNL d   1     -40.250  13.916  17.879  0.00  0.00    -0.148 NA
ATOM      4  C   UNL d   1     -39.938  14.369  18.494  0.00  0.00     0.105 A 
ATOM      5  N   UNL d   1     -39.756  13.606  17.292  0.00  0.00    -0.142 NA
ENDROOT
BRANCH   4   6
ATOM      6  C   UNL d   1     -40.247  14.756  19.155  0.00  0.00     0.019 A 
ATOM      7  C   UNL d   1     -40.725  15.418  19.052  0.00  0.00     0.002 A 
ATOM      8  C   UNL d   1     -41.034  15.805  19.704  0.00  0.00     0.000 A 
ATOM      9  C   UNL d   1     -40.891  15.692  18.289  0.00  0.00     0.000 C 
ATOM     10  C   UNL d   1     -40.868  15.532  20.468  0.00  0.00     0.000 A 
ATOM     11  C   UNL d   1     -40.387  14.866  20.570  0.00  0.00     0.000 A 
ATOM     12  C   UNL d   1     -41.179  15.922  21.125  0.00  0.00     0.000 C 
ATOM     13  C   UNL d   1     -40.078  14.478  19.918  0.00  0.00     0.002 A 
ENDBRANCH   4   6
BRANCH   1  14
ATOM     14  C   UNL d   1     -38.446  13.453  16.752  0.00  0.00     0.231 C 
ATOM     15  O   UNL d   1     -38.127  12.698  16.840  0.00  0.00    -0.643 OA
ATOM     16  O   UNL d   1     -38.266  13.902  16.086  0.00  0.00    -0.643 OA
ENDBRANCH   1  14
TORSDOF 2
ENDMDL
