MODEL 1
REMARK VINA RESULT:      69.8      0.000      0.000
REMARK  6 active torsions:
REMARK  status: ('A' for Active; 'I' for Inactive)
REMARK    1  A    between atoms: C_10  and  C_3 
REMARK    2  A    between atoms: S_9  and  C_4 
REMARK       I    between atoms: N_6  and  C_7 
REMARK    3  A    between atoms: C_8  and  N_6 
REMARK    4  A    between atoms: C_7  and  C_14 
REMARK    5  A    between atoms: C_14  and  S_9 
REMARK    6  A    between atoms: O_15  and  C_12 
ROOT
ATOM      1  S   UNL d   1      60.303  49.278  50.140  0.00  0.00    -0.036 SA
ENDROOT
BRANCH   1   2
ATOM      2  C   UNL d   1      60.778  48.845  50.693  0.00  0.00     0.236 A 
ATOM      3  O   UNL d   1      61.126  49.227  51.334  0.00  0.00    -0.263 OA
ATOM      4  C   UNL d   1      61.543  48.683  51.763  0.00  0.00     0.205 A 
ATOM      5  N   UNL d   1      61.458  47.951  51.389  0.00  0.00    -0.120 NA
ATOM      6  N   UNL d   1      60.992  48.050  50.737  0.00  0.00    -0.114 NA
BRANCH   4   7
ATOM      7  C   UNL d   1      61.982  48.795  52.448  0.00  0.00     0.046 A 
ATOM      8  C   UNL d   1      62.087  48.178  52.972  0.00  0.00     0.024 A 
ATOM      9  C   UNL d   1      62.537  48.297  53.671  0.00  0.00     0.099 A 
ATOM     10  N   UNL d   1      62.867  49.036  53.820  0.00  0.00    -0.242 NA
ATOM     11  C   UNL d   1      62.755  49.675  53.273  0.00  0.00     0.099 A 
ATOM     12  C   UNL d   1      62.315  49.546  52.596  0.00  0.00     0.024 A 
ENDBRANCH   4   7
ENDBRANCH   1   2
BRANCH   1  13
ATOM     13  C   UNL d   1      59.657  49.705  50.428  0.00  0.00     0.101 C 
BRANCH  13  14
ATOM     14  C   UNL d   1      58.946  49.644  50.020  0.00  0.00     0.286 C 
ATOM     15  N   UNL d   1      58.235  49.583  50.445  0.00  0.00    -0.206 NA
ATOM     16  O   UNL d   1      58.912  49.642  49.197  0.00  0.00    -0.265 OA
BRANCH  15  17
ATOM     17  C   UNL d   1      57.515  49.522  50.051  0.00  0.00     0.107 A 
ATOM     18  C   UNL d   1      56.812  49.273  50.452  0.00  0.00     0.112 A 
ATOM     19  C   UNL d   1      56.114  49.218  50.053  0.00  0.00     0.026 A 
ATOM     20  C   UNL d   1      56.053  49.398  49.251  0.00  0.00     0.002 A 
ATOM     21  C   UNL d   1      56.718  49.644  48.829  0.00  0.00     0.002 A 
ATOM     22  C   UNL d   1      57.445  49.706  49.227  0.00  0.00     0.021 A 
BRANCH  18  23
ATOM     23  O   UNL d   1      56.881  49.089  51.276  0.00  0.00    -0.327 OA
ATOM     24  C   UNL d   1      56.239  49.316  51.779  0.00  0.00     0.181 C 
ENDBRANCH  18  23
ENDBRANCH  15  17
ENDBRANCH  13  14
ENDBRANCH   1  13
TORSDOF 6
ENDMDL
