MODEL 1
REMARK VINA RESULT:      -4.1      0.000      0.000
REMARK  2 active torsions:
REMARK  status: ('A' for Active; 'I' for Inactive)
REMARK    1  A    between atoms: N_2  and  C_1 
REMARK    2  A    between atoms: C_4  and  C_1 
ROOT
ATOM      1  C   UNL d   1     -41.470-122.139 -51.456  0.00  0.00     0.120 C 
ATOM      2  S   UNL d   1     -41.162-121.377 -51.374  0.00  0.00    -0.059 SA
ENDROOT
BRANCH   1   3
ATOM      3  N   UNL d   1     -41.474-122.506 -52.202  0.00  0.00    -0.293 N 
ATOM      4  C   UNL d   1     -41.833-122.128 -52.843  0.00  0.00     0.100 A 
ATOM      5  C   UNL d   1     -41.838-122.489 -53.584  0.00  0.00     0.100 A 
ATOM      6  N   UNL d   1     -41.485-123.227 -53.684  0.00  0.00    -0.299 N 
ATOM      7  C   UNL d   1     -41.126-123.604 -53.043  0.00  0.00     0.100 A 
ATOM      8  C   UNL d   1     -41.490-123.590 -54.428  0.00  0.00     0.100 C 
ATOM      9  C   UNL d   1     -41.123-123.237 -52.297  0.00  0.00     0.100 A 
ENDBRANCH   1   3
BRANCH   1  10
ATOM     10  C   UNL d   1     -41.776-122.542 -50.800  0.00  0.00     0.027 A 
ATOM     11  C   UNL d   1     -41.297-123.060 -50.361  0.00  0.00     0.003 A 
ATOM     12  C   UNL d   1     -41.608-123.457 -49.710  0.00  0.00     0.007 A 
ATOM     13  C   UNL d   1     -42.395-123.341 -49.494  0.00  0.00     0.035 A 
ATOM     14  C   UNL d   1     -42.874-122.824 -49.934  0.00  0.00     0.007 A 
ATOM     15 BR   UNL d   1     -42.709-123.739 -48.841  0.00  0.00    -0.049 Br
ATOM     16  C   UNL d   1     -42.563-122.427 -50.584  0.00  0.00     0.003 A 
ENDBRANCH   1  10
TORSDOF 2
ENDMDL
MODEL 2
REMARK VINA RESULT:      -2.4      2.362      4.099
REMARK  2 active torsions:
REMARK  status: ('A' for Active; 'I' for Inactive)
REMARK    1  A    between atoms: N_2  and  C_1 
REMARK    2  A    between atoms: C_4  and  C_1 
ROOT
ATOM      1  C   UNL d   1     -42.791-123.001 -49.490  0.00  0.00     0.120 C 
ATOM      2  S   UNL d   1     -43.617-123.012 -49.489  0.00  0.00    -0.059 SA
ENDROOT
BRANCH   1   3
ATOM      3  N   UNL d   1     -42.375-123.172 -48.792  0.00  0.00    -0.293 N 
ATOM      4  C   UNL d   1     -41.692-123.637 -48.824  0.00  0.00     0.100 A 
ATOM      5  C   UNL d   1     -41.276-123.809 -48.133  0.00  0.00     0.100 A 
ATOM      6  N   UNL d   1     -41.543-123.516 -47.410  0.00  0.00    -0.299 N 
ATOM      7  C   UNL d   1     -42.225-123.052 -47.378  0.00  0.00     0.100 A 
ATOM      8  C   UNL d   1     -41.127-123.688 -46.716  0.00  0.00     0.100 C 
ATOM      9  C   UNL d   1     -42.642-122.881 -48.077  0.00  0.00     0.100 A 
ENDBRANCH   1   3
BRANCH   1  10
ATOM     10  C   UNL d   1     -42.374-122.820 -50.182  0.00  0.00     0.027 A 
ATOM     11  C   UNL d   1     -42.237-122.030 -50.399  0.00  0.00     0.003 A 
ATOM     12  C   UNL d   1     -41.821-121.858 -51.089  0.00  0.00     0.007 A 
ATOM     13  C   UNL d   1     -41.540-122.470 -51.564  0.00  0.00     0.035 A 
ATOM     14  C   UNL d   1     -41.677-123.260 -51.347  0.00  0.00     0.007 A 
ATOM     15 BR   UNL d   1     -41.123-122.299 -52.257  0.00  0.00    -0.049 Br
ATOM     16  C   UNL d   1     -42.093-123.432 -50.658  0.00  0.00     0.003 A 
ENDBRANCH   1  10
TORSDOF 2
ENDMDL
MODEL 3
REMARK VINA RESULT:      -1.8      1.645      2.333
REMARK  2 active torsions:
REMARK  status: ('A' for Active; 'I' for Inactive)
REMARK    1  A    between atoms: N_2  and  C_1 
REMARK    2  A    between atoms: C_4  and  C_1 
ROOT
ATOM      1  C   UNL d   1     -41.447-123.038 -53.286  0.00  0.00     0.120 C 
ATOM      2  S   UNL d   1     -41.175-123.817 -53.314  0.00  0.00    -0.059 SA
ENDROOT
BRANCH   1   3
ATOM      3  N   UNL d   1     -41.714-122.669 -53.981  0.00  0.00    -0.293 N 
ATOM      4  C   UNL d   1     -42.522-122.539 -54.093  0.00  0.00     0.100 A 
ATOM      5  C   UNL d   1     -42.790-122.173 -54.782  0.00  0.00     0.100 A 
ATOM      6  N   UNL d   1     -42.250-121.937 -55.358  0.00  0.00    -0.299 N 
ATOM      7  C   UNL d   1     -41.442-122.066 -55.246  0.00  0.00     0.100 A 
ATOM      8  C   UNL d   1     -42.517-121.569 -56.050  0.00  0.00     0.100 C 
ATOM      9  C   UNL d   1     -41.175-122.436 -54.550  0.00  0.00     0.100 A 
ENDBRANCH   1   3
BRANCH   1  10
ATOM     10  C   UNL d   1     -41.457-122.620 -52.571  0.00  0.00     0.027 A 
ATOM     11  C   UNL d   1     -41.794-122.956 -51.890  0.00  0.00     0.003 A 
ATOM     12  C   UNL d   1     -41.800-122.534 -51.182  0.00  0.00     0.007 A 
ATOM     13  C   UNL d   1     -41.471-121.780 -51.150  0.00  0.00     0.035 A 
ATOM     14  C   UNL d   1     -41.134-121.444 -51.831  0.00  0.00     0.007 A 
ATOM     15 BR   UNL d   1     -41.476-121.355 -50.440  0.00  0.00    -0.049 Br
ATOM     16  C   UNL d   1     -41.128-121.865 -52.539  0.00  0.00     0.003 A 
ENDBRANCH   1  10
TORSDOF 2
ENDMDL
