MODEL 1
REMARK VINA RESULT:      43.3      0.000      0.000
REMARK  3 active torsions:
REMARK  status: ('A' for Active; 'I' for Inactive)
REMARK    1  A    between atoms: S_15  and  C_4 
REMARK    2  A    between atoms: C_9  and  C_16 
REMARK    3  A    between atoms: C_16  and  S_15 
ROOT
ATOM      1  C   UNL d   1     -57.956 -98.756 -44.155  0.00  0.00     0.141 A 
ATOM      2  C   UNL d   1     -58.781 -98.756 -44.191  0.00  0.00     0.110 A 
ATOM      3  O   UNL d   1     -57.735 -98.757 -43.361  0.00  0.00    -0.303 OA
ATOM      4  C   UNL d   1     -57.512 -98.757 -44.851  0.00  0.00     0.137 A 
ATOM      5  N   UNL d   1     -57.893 -98.756 -45.583  0.00  0.00    -0.218 NA
ATOM      6  C   UNL d   1     -59.070 -98.756 -43.418  0.00  0.00     0.043 A 
ATOM      7  N   UNL d   1     -59.160 -98.756 -44.923  0.00  0.00    -0.225 NA
ATOM      8  C   UNL d   1     -58.424 -98.756 -42.905  0.00  0.00     0.102 A 
ATOM      9  C   UNL d   1     -58.718 -98.756 -45.618  0.00  0.00     0.163 A 
ATOM     10  C   UNL d   1     -59.837 -98.756 -43.116  0.00  0.00     0.004 A 
ATOM     11  C   UNL d   1     -58.547 -98.757 -42.089  0.00  0.00     0.025 A 
ATOM     12  C   UNL d   1     -59.098 -98.755 -46.350  0.00  0.00     0.042 C 
ATOM     13  C   UNL d   1     -59.960 -98.756 -42.300  0.00  0.00     0.000 A 
ATOM     14  C   UNL d   1     -59.314 -98.756 -41.787  0.00  0.00     0.002 A 
ENDROOT
BRANCH   4  15
ATOM     15  S   UNL d   1     -56.688 -98.757 -44.815  0.00  0.00    -0.062 SA
BRANCH  15  16
ATOM     16  C   UNL d   1     -56.258 -99.331 -45.225  0.00  0.00     0.076 C 
BRANCH  16  17
ATOM     17  C   UNL d   1     -55.900 -99.949 -44.812  0.00  0.00     0.169 A 
ATOM     18  N   UNL d   1     -55.706-100.690 -45.122  0.00  0.00    -0.225 NA
ATOM     19  C   UNL d   1     -55.359-101.133 -44.520  0.00  0.00     0.101 A 
ATOM     20  C   UNL d   1     -55.059-101.902 -44.503  0.00  0.00     0.021 A 
ATOM     21  C   UNL d   1     -55.336-100.668 -43.838  0.00  0.00     0.101 A 
ATOM     22  C   UNL d   1     -54.737-102.205 -43.807  0.00  0.00     0.002 A 
ATOM     23  C   UNL d   1     -54.715-101.740 -43.126  0.00  0.00     0.002 A 
ATOM     24  C   UNL d   1     -55.015-100.971 -43.141  0.00  0.00     0.021 A 
ATOM     25  N   UNL d   1     -55.671 -99.936 -44.020  0.00  0.00    -0.225 NA
ENDBRANCH  16  17
ENDBRANCH  15  16
ENDBRANCH   4  15
TORSDOF 3
ENDMDL
