MODEL 1
REMARK VINA RESULT:     102.9      0.000      0.000
REMARK  3 active torsions:
REMARK  status: ('A' for Active; 'I' for Inactive)
REMARK    1  A    between atoms: N_6  and  C_2 
REMARK    2  A    between atoms: C_8  and  C_5 
REMARK    3  A    between atoms: C_9  and  N_7 
ROOT
ATOM      1  N   UNL d   1      61.748  45.064  50.213  0.00  0.00    -0.281 N 
ATOM      2  N   UNL d   1      61.277  46.604  50.521  0.00  0.00    -0.301 N 
ATOM      3  C   UNL d   1      61.280  45.222  50.874  0.00  0.00     0.101 A 
ATOM      4  C   UNL d   1      61.980  45.680  49.705  0.00  0.00     0.101 A 
ATOM      5  C   UNL d   1      61.740  46.441  49.868  0.00  0.00     0.100 A 
ATOM      6  C   UNL d   1      61.048  45.988  51.024  0.00  0.00     0.100 A 
ENDROOT
BRANCH   1   7
ATOM      7  C   UNL d   1      61.985  44.287  50.059  0.00  0.00     0.183 A 
ATOM      8  N   UNL d   1      61.933  43.893  49.342  0.00  0.00    -0.183 NA
ATOM      9  C   UNL d   1      62.233  43.129  49.442  0.00  0.00     0.287 A 
ATOM     10  C   UNL d   1      62.472  43.058  50.232  0.00  0.00     0.090 A 
ATOM     11  O   UNL d   1      62.285  42.552  48.866  0.00  0.00    -0.265 OA
ATOM     12  S   UNL d   1      62.321  43.768  50.616  0.00  0.00    -0.045 SA
BRANCH  10  13
ATOM     13  C   UNL d   1      62.804  42.383  50.569  0.00  0.00     0.011 C 
ATOM     14  C   UNL d   1      63.158  42.415  51.316  0.00  0.00     0.001 C 
ATOM     15  C   UNL d   1      62.784  41.667  50.159  0.00  0.00     0.001 C 
ENDBRANCH  10  13
ENDBRANCH   1   7
BRANCH   2  16
ATOM     16  C   UNL d   1      61.038  47.381  50.678  0.00  0.00     0.064 A 
ATOM     17  C   UNL d   1      61.266  47.987  50.167  0.00  0.00     0.018 A 
ATOM     18  C   UNL d   1      61.026  48.763  50.327  0.00  0.00     0.002 A 
ATOM     19  C   UNL d   1      60.564  48.929  50.987  0.00  0.00     0.000 A 
ATOM     20  C   UNL d   1      60.339  48.313  51.495  0.00  0.00     0.002 A 
ATOM     21  C   UNL d   1      60.324  49.703  51.145  0.00  0.00     0.000 C 
ATOM     22  C   UNL d   1      60.577  47.536  51.339  0.00  0.00     0.018 A 
ENDBRANCH   2  16
TORSDOF 3
ENDMDL
MODEL 2
REMARK VINA RESULT:     103.5      2.732      5.533
REMARK  3 active torsions:
REMARK  status: ('A' for Active; 'I' for Inactive)
REMARK    1  A    between atoms: N_6  and  C_2 
REMARK    2  A    between atoms: C_8  and  C_5 
REMARK    3  A    between atoms: C_9  and  N_7 
ROOT
ATOM      1  N   UNL d   1      60.073  47.728  50.816  0.00  0.00    -0.281 N 
ATOM      2  N   UNL d   1      61.087  46.621  50.158  0.00  0.00    -0.301 N 
ATOM      3  C   UNL d   1      60.821  47.964  50.558  0.00  0.00     0.101 A 
ATOM      4  C   UNL d   1      59.834  46.936  50.744  0.00  0.00     0.101 A 
ATOM      5  C   UNL d   1      60.346  46.395  50.416  0.00  0.00     0.100 A 
ATOM      6  C   UNL d   1      61.322  47.411  50.231  0.00  0.00     0.100 A 
ENDROOT
BRANCH   1   7
ATOM      7  C   UNL d   1      59.563  48.288  51.148  0.00  0.00     0.183 A 
ATOM      8  N   UNL d   1      59.677  48.699  51.848  0.00  0.00    -0.183 NA
ATOM      9  C   UNL d   1      59.029  49.200  51.966  0.00  0.00     0.287 A 
ATOM     10  C   UNL d   1      58.514  49.091  51.327  0.00  0.00     0.090 A 
ATOM     11  O   UNL d   1      58.920  49.707  52.596  0.00  0.00    -0.265 OA
ATOM     12  S   UNL d   1      58.837  48.531  50.821  0.00  0.00    -0.045 SA
BRANCH  10  13
ATOM     13  C   UNL d   1      57.796  49.484  51.223  0.00  0.00     0.011 C 
ATOM     14  C   UNL d   1      57.338  49.705  51.874  0.00  0.00     0.001 C 
ATOM     15  C   UNL d   1      57.531  49.658  50.461  0.00  0.00     0.001 C 
ENDBRANCH  10  13
ENDBRANCH   1   7
BRANCH   2  16
ATOM     16  C   UNL d   1      61.601  46.063  49.825  0.00  0.00     0.064 A 
ATOM     17  C   UNL d   1      62.232  46.319  49.360  0.00  0.00     0.018 A 
ATOM     18  C   UNL d   1      62.744  45.759  49.029  0.00  0.00     0.002 A 
ATOM     19  C   UNL d   1      62.625  44.956  49.161  0.00  0.00     0.000 A 
ATOM     20  C   UNL d   1      61.988  44.708  49.630  0.00  0.00     0.002 A 
ATOM     21  C   UNL d   1      63.136  44.399  48.831  0.00  0.00     0.000 C 
ATOM     22  C   UNL d   1      61.474  45.265  49.963  0.00  0.00     0.018 A 
ENDBRANCH   2  16
TORSDOF 3
ENDMDL
