MODEL 1
REMARK VINA RESULT:      60.2      0.000      0.000
REMARK  3 active torsions:
REMARK  status: ('A' for Active; 'I' for Inactive)
REMARK    1  A    between atoms: C_5  and  C_1 
REMARK    2  A    between atoms: C_8  and  N_2 
REMARK    3  A    between atoms: C_10  and  C_8 
ROOT
ATOM      1  C   UNL d   1     -47.563  31.608  34.633  0.00  0.00     0.166 A 
ATOM      2  N   UNL d   1     -47.418  30.221  35.517  0.00  0.00    -0.302 N 
ATOM      3  C   UNL d   1     -47.718  30.876  34.284  0.00  0.00     0.058 A 
ATOM      4  C   UNL d   1     -47.336  31.646  35.425  0.00  0.00     0.058 A 
ATOM      5  C   UNL d   1     -47.263  30.953  35.867  0.00  0.00     0.083 A 
ATOM      6  C   UNL d   1     -47.645  30.183  34.726  0.00  0.00     0.083 A 
ATOM      7  O   UNL d   1     -47.389  32.364  35.048  0.00  0.00    -0.290 OA
ENDROOT
BRANCH   1   8
ATOM      8  C   UNL d   1     -47.636  32.300  34.192  0.00  0.00     0.036 A 
ATOM      9  C   UNL d   1     -48.389  32.652  34.090  0.00  0.00     0.003 A 
ATOM     10  C   UNL d   1     -48.449  33.342  33.648  0.00  0.00     0.000 A 
ATOM     11  C   UNL d   1     -47.777  33.688  33.306  0.00  0.00     0.000 A 
ATOM     12  C   UNL d   1     -47.042  33.346  33.404  0.00  0.00     0.000 A 
ATOM     13  C   UNL d   1     -46.964  32.646  33.849  0.00  0.00     0.003 A 
ENDBRANCH   1   8
BRANCH   2  14
ATOM     14  C   UNL d   1     -47.345  29.529  35.959  0.00  0.00     0.080 C 
BRANCH  14  15
ATOM     15  C   UNL d   1     -47.958  28.976  35.963  0.00  0.00     0.018 A 
ATOM     16  C   UNL d   1     -48.425  28.883  36.636  0.00  0.00     0.002 A 
ATOM     17  C   UNL d   1     -49.037  28.330  36.639  0.00  0.00     0.000 A 
ATOM     18  C   UNL d   1     -49.184  27.870  35.974  0.00  0.00     0.000 A 
ATOM     19  C   UNL d   1     -48.717  27.963  35.301  0.00  0.00     0.000 A 
ATOM     20  C   UNL d   1     -48.102  28.516  35.293  0.00  0.00     0.002 A 
ENDBRANCH  14  15
ENDBRANCH   2  14
TORSDOF 3
ENDMDL
MODEL 2
REMARK VINA RESULT:      62.7      2.982      5.382
REMARK  3 active torsions:
REMARK  status: ('A' for Active; 'I' for Inactive)
REMARK    1  A    between atoms: C_5  and  C_1 
REMARK    2  A    between atoms: C_8  and  N_2 
REMARK    3  A    between atoms: C_10  and  C_8 
ROOT
ATOM      1  C   UNL d   1     -50.186  26.886  33.728  0.00  0.00     0.166 A 
ATOM      2  N   UNL d   1     -48.865  27.836  34.004  0.00  0.00    -0.302 N 
ATOM      3  C   UNL d   1     -50.155  27.651  33.421  0.00  0.00     0.058 A 
ATOM      4  C   UNL d   1     -49.557  26.596  34.174  0.00  0.00     0.058 A 
ATOM      5  C   UNL d   1     -48.895  27.070  34.313  0.00  0.00     0.083 A 
ATOM      6  C   UNL d   1     -49.494  28.126  33.559  0.00  0.00     0.083 A 
ATOM      7  O   UNL d   1     -50.176  26.078  34.076  0.00  0.00    -0.290 OA
ENDROOT
BRANCH   1   8
ATOM      8  C   UNL d   1     -50.847  26.413  33.590  0.00  0.00     0.036 A 
ATOM      9  C   UNL d   1     -51.612  26.752  33.597  0.00  0.00     0.003 A 
ATOM     10  C   UNL d   1     -52.262  26.271  33.459  0.00  0.00     0.000 A 
ATOM     11  C   UNL d   1     -52.168  25.459  33.313  0.00  0.00     0.000 A 
ATOM     12  C   UNL d   1     -51.422  25.126  33.306  0.00  0.00     0.000 A 
ATOM     13  C   UNL d   1     -50.752  25.601  33.445  0.00  0.00     0.003 A 
ENDBRANCH   1   8
BRANCH   2  14
ATOM     14  C   UNL d   1     -48.203  28.309  34.143  0.00  0.00     0.080 C 
BRANCH  14  15
ATOM     15  C   UNL d   1     -48.141  28.732  34.849  0.00  0.00     0.018 A 
ATOM     16  C   UNL d   1     -48.338  28.373  35.564  0.00  0.00     0.002 A 
ATOM     17  C   UNL d   1     -48.275  28.797  36.269  0.00  0.00     0.000 A 
ATOM     18  C   UNL d   1     -48.016  29.577  36.264  0.00  0.00     0.000 A 
ATOM     19  C   UNL d   1     -47.818  29.937  35.548  0.00  0.00     0.000 A 
ATOM     20  C   UNL d   1     -47.880  29.516  34.839  0.00  0.00     0.002 A 
ENDBRANCH  14  15
ENDBRANCH   2  14
TORSDOF 3
ENDMDL
