MODEL 1
REMARK VINA RESULT:       6.6      0.000      0.000
REMARK  5 active torsions:
REMARK  status: ('A' for Active; 'I' for Inactive)
REMARK    1  A    between atoms: C_3  and  N_1 
REMARK    2  A    between atoms: C_4  and  N_1 
REMARK    3  A    between atoms: N_7  and  C_3 
REMARK    4  A    between atoms: C_10  and  N_7 
REMARK    5  A    between atoms: C_8  and  C_10 
ROOT
ATOM      1  N   UNL d   1      14.154  12.432  -2.389  0.00  0.00    -0.198 NA
ENDROOT
BRANCH   1   2
ATOM      2  C   UNL d   1      13.491  11.998  -2.639  0.00  0.00     0.222 C 
ATOM      3  S   UNL d   1      12.934  11.792  -2.121  0.00  0.00    -0.037 SA
BRANCH   2   4
ATOM      4  N   UNL d   1      13.422  11.791  -3.407  0.00  0.00    -0.216 NA
BRANCH   4   5
ATOM      5  C   UNL d   1      12.891  12.187  -3.893  0.00  0.00     0.101 C 
BRANCH   5   6
ATOM      6  C   UNL d   1      13.114  12.396  -4.671  0.00  0.00     0.019 C 
ATOM      7  C   UNL d   1      13.584  13.061  -4.802  0.00  0.00     0.002 C 
ATOM      8  C   UNL d   1      12.862  11.935  -5.307  0.00  0.00     0.002 C 
ENDBRANCH   5   6
ENDBRANCH   4   5
ENDBRANCH   2   4
ENDBRANCH   1   2
BRANCH   1   9
ATOM      9  C   UNL d   1      14.385  12.407  -1.598  0.00  0.00     0.167 A 
ATOM     10  N   UNL d   1      14.909  12.971  -1.300  0.00  0.00    -0.206 NA
ATOM     11  C   UNL d   1      15.140  12.946  -0.509  0.00  0.00     0.185 A 
ATOM     12  N   UNL d   1      15.662  13.512  -0.225  0.00  0.00    -0.127 N 
ATOM     13  C   UNL d   1      14.847  12.357  -0.015  0.00  0.00     0.041 A 
ATOM     14  C   UNL d   1      14.318  11.786  -0.309  0.00  0.00     0.006 A 
ATOM     15  C   UNL d   1      14.089  11.816  -1.106  0.00  0.00     0.039 A 
ENDBRANCH   1   9
TORSDOF 5
ENDMDL
MODEL 2
REMARK VINA RESULT:       7.8      0.976      3.944
REMARK  5 active torsions:
REMARK  status: ('A' for Active; 'I' for Inactive)
REMARK    1  A    between atoms: C_3  and  N_1 
REMARK    2  A    between atoms: C_4  and  N_1 
REMARK    3  A    between atoms: N_7  and  C_3 
REMARK    4  A    between atoms: C_10  and  N_7 
REMARK    5  A    between atoms: C_8  and  C_10 
ROOT
ATOM      1  N   UNL d   1      14.018  11.791  -3.312  0.00  0.00    -0.198 NA
ENDROOT
BRANCH   1   2
ATOM      2  C   UNL d   1      13.734  11.824  -2.531  0.00  0.00     0.222 C 
ATOM      3  S   UNL d   1      12.963  11.899  -2.393  0.00  0.00    -0.037 SA
BRANCH   2   4
ATOM      4  N   UNL d   1      14.249  11.779  -1.923  0.00  0.00    -0.216 NA
BRANCH   4   5
ATOM      5  C   UNL d   1      14.045  12.085  -1.188  0.00  0.00     0.101 C 
BRANCH   5   6
ATOM      6  C   UNL d   1      14.642  12.331  -0.657  0.00  0.00     0.019 C 
ATOM      7  C   UNL d   1      14.973  13.084  -0.729  0.00  0.00     0.002 C 
ATOM      8  C   UNL d   1      14.899  11.820  -0.063  0.00  0.00     0.002 C 
ENDBRANCH   5   6
ENDBRANCH   4   5
ENDBRANCH   2   4
ENDBRANCH   1   2
BRANCH   1   9
ATOM      9  C   UNL d   1      13.606  12.175  -3.913  0.00  0.00     0.167 A 
ATOM     10  N   UNL d   1      13.482  11.799  -4.638  0.00  0.00    -0.206 NA
ATOM     11  C   UNL d   1      13.069  12.184  -5.239  0.00  0.00     0.185 A 
ATOM     12  N   UNL d   1      12.953  11.799  -5.955  0.00  0.00    -0.127 N 
ATOM     13  C   UNL d   1      12.781  12.944  -5.116  0.00  0.00     0.041 A 
ATOM     14  C   UNL d   1      12.902  13.328  -4.389  0.00  0.00     0.006 A 
ATOM     15  C   UNL d   1      13.318  12.937  -3.787  0.00  0.00     0.039 A 
ENDBRANCH   1   9
TORSDOF 5
ENDMDL
MODEL 3
REMARK VINA RESULT:       9.1      9.091     10.456
REMARK  5 active torsions:
REMARK  status: ('A' for Active; 'I' for Inactive)
REMARK    1  A    between atoms: C_3  and  N_1 
REMARK    2  A    between atoms: C_4  and  N_1 
REMARK    3  A    between atoms: N_7  and  C_3 
REMARK    4  A    between atoms: C_10  and  N_7 
REMARK    5  A    between atoms: C_8  and  C_10 
ROOT
ATOM      1  N   UNL d   1      24.624  11.785  -1.264  0.00  0.00    -0.198 NA
ENDROOT
BRANCH   1   2
ATOM      2  C   UNL d   1      24.302  12.122  -0.575  0.00  0.00     0.222 C 
ATOM      3  S   UNL d   1      24.768  12.496  -0.063  0.00  0.00    -0.037 SA
BRANCH   2   4
ATOM      4  N   UNL d   1      23.518  12.063  -0.437  0.00  0.00    -0.216 NA
BRANCH   4   5
ATOM      5  C   UNL d   1      23.129  12.652  -0.017  0.00  0.00     0.101 C 
BRANCH   5   6
ATOM      6  C   UNL d   1      22.298  12.728  -0.076  0.00  0.00     0.019 C 
ATOM      7  C   UNL d   1      21.818  12.059  -0.026  0.00  0.00     0.002 C 
ATOM      8  C   UNL d   1      21.962  13.473  -0.184  0.00  0.00     0.002 C 
ENDBRANCH   5   6
ENDBRANCH   4   5
ENDBRANCH   2   4
ENDBRANCH   1   2
BRANCH   1   9
ATOM      9  C   UNL d   1      24.564  12.187  -1.982  0.00  0.00     0.167 A 
ATOM     10  N   UNL d   1      24.695  11.789  -2.693  0.00  0.00    -0.206 NA
ATOM     11  C   UNL d   1      24.635  12.190  -3.410  0.00  0.00     0.185 A 
ATOM     12  N   UNL d   1      24.767  11.782  -4.110  0.00  0.00    -0.127 N 
ATOM     13  C   UNL d   1      24.444  12.990  -3.417  0.00  0.00     0.041 A 
ATOM     14  C   UNL d   1      24.312  13.397  -2.704  0.00  0.00     0.006 A 
ATOM     15  C   UNL d   1      24.373  12.988  -1.985  0.00  0.00     0.039 A 
ENDBRANCH   1   9
TORSDOF 5
ENDMDL
