MODEL 1
REMARK VINA RESULT:      29.4      0.000      0.000
REMARK  3 active torsions:
REMARK  status: ('A' for Active; 'I' for Inactive)
REMARK    1  A    between atoms: C_4  and  S_13 
REMARK    2  A    between atoms: C_16  and  C_6 
REMARK    3  A    between atoms: S_13  and  C_16 
ROOT
ATOM      1  C   UNL d   1      13.713  11.903  -1.889  0.00  0.00     0.059 C 
ENDROOT
BRANCH   1   2
ATOM      2  S   UNL d   1      13.075  12.283  -2.212  0.00  0.00    -0.046 SA
BRANCH   2   3
ATOM      3  C   UNL d   1      13.060  12.416  -3.026  0.00  0.00     0.194 A 
ATOM      4  N   UNL d   1      12.796  13.043  -3.491  0.00  0.00    -0.220 NA
ATOM      5  C   UNL d   1      12.928  12.854  -4.275  0.00  0.00     0.101 A 
ATOM      6  C   UNL d   1      12.776  13.267  -4.964  0.00  0.00     0.021 A 
ATOM      7  C   UNL d   1      13.264  12.131  -4.302  0.00  0.00     0.101 A 
ATOM      8  C   UNL d   1      12.961  12.956  -5.693  0.00  0.00     0.002 A 
ATOM      9  C   UNL d   1      13.313  12.201  -5.746  0.00  0.00     0.002 A 
ATOM     10  C   UNL d   1      13.468  11.780  -5.028  0.00  0.00     0.021 A 
ATOM     11  N   UNL d   1      13.362  11.826  -3.531  0.00  0.00    -0.220 NA
ENDBRANCH   2   3
ENDBRANCH   1   2
BRANCH   1  12
ATOM     12  C   UNL d   1      14.258  12.328  -1.456  0.00  0.00     0.107 A 
ATOM     13  C   UNL d   1      14.183  13.095  -1.193  0.00  0.00     0.101 A 
ATOM     14  N   UNL d   1      14.851  13.328  -0.776  0.00  0.00    -0.289 N 
ATOM     15  C   UNL d   1      15.368  12.679  -0.778  0.00  0.00     0.148 A 
ATOM     16  C   UNL d   1      15.080  14.033  -0.389  0.00  0.00     0.066 A 
ATOM     17  N   UNL d   1      15.009  12.055  -1.198  0.00  0.00    -0.226 NA
ATOM     18  C   UNL d   1      16.100  12.731  -0.401  0.00  0.00     0.037 A 
ATOM     19  C   UNL d   1      16.321  13.440  -0.017  0.00  0.00     0.005 A 
ATOM     20  C   UNL d   1      15.805  14.088  -0.014  0.00  0.00     0.018 A 
ATOM     21  C   UNL d   1      14.557  14.684  -0.389  0.00  0.00     0.019 C 
ENDBRANCH   1  12
TORSDOF 3
ENDMDL
