MODEL 1
REMARK VINA RESULT:      21.0      0.000      0.000
REMARK  4 active torsions:
REMARK  status: ('A' for Active; 'I' for Inactive)
REMARK    1  A    between atoms: O_2  and  P_1 
REMARK    2  A    between atoms: C_6  and  P_1 
REMARK    3  A    between atoms: C_3  and  O_2 
REMARK    4  A    between atoms: C_10  and  C_4 
ROOT
ATOM      1  C   UNL d   1      23.639  12.805  -1.596  0.00  0.00     0.103 A 
ATOM      2  C   UNL d   1      23.527  12.851  -0.778  0.00  0.00     0.023 A 
ATOM      3  C   UNL d   1      22.815  13.051  -0.459  0.00  0.00     0.002 A 
ATOM      4  C   UNL d   1      22.997  12.970  -2.088  0.00  0.00     0.025 A 
ATOM      5  C   UNL d   1      22.173  13.216  -0.957  0.00  0.00     0.000 A 
ATOM      6  C   UNL d   1      22.283  13.170  -1.771  0.00  0.00     0.002 A 
ATOM      7  C   UNL d   1      21.652  13.331  -2.288  0.00  0.00     0.000 C 
ENDROOT
BRANCH   1   8
ATOM      8  O   UNL d   1      24.373  12.599  -1.917  0.00  0.00    -0.269 OA
BRANCH   8   9
ATOM      9  P   UNL d   1      24.472  12.592  -2.729  0.00  0.00     0.370 P 
ATOM     10  O   UNL d   1      24.707  13.376  -2.710  0.00  0.00    -0.257 OA
ATOM     11  N   UNL d   1      24.227  11.782  -2.734  0.00  0.00    -0.091 N 
BRANCH   9  12
ATOM     12  C   UNL d   1      24.566  12.565  -3.550  0.00  0.00     0.077 A 
ATOM     13  C   UNL d   1      24.559  11.828  -3.922  0.00  0.00     0.007 A 
ATOM     14  C   UNL d   1      24.654  11.800  -4.748  0.00  0.00     0.000 A 
ATOM     15  C   UNL d   1      24.753  12.494  -5.189  0.00  0.00     0.000 A 
ATOM     16  C   UNL d   1      24.757  13.212  -4.802  0.00  0.00     0.000 A 
ATOM     17  C   UNL d   1      24.665  13.258  -3.991  0.00  0.00     0.007 A 
ENDBRANCH   9  12
ENDBRANCH   8   9
ENDBRANCH   1   8
BRANCH   2  18
ATOM     18  C   UNL d   1      24.153  12.691  -0.274  0.00  0.00     0.002 C 
ATOM     19  C   UNL d   1      24.651  13.292  -0.028  0.00  0.00     0.000 C 
ATOM     20  C   UNL d   1      24.279  11.919  -0.016  0.00  0.00     0.000 C 
ENDBRANCH   2  18
TORSDOF 4
ENDMDL
MODEL 2
REMARK VINA RESULT:      23.0      9.493     10.773
REMARK  4 active torsions:
REMARK  status: ('A' for Active; 'I' for Inactive)
REMARK    1  A    between atoms: O_2  and  P_1 
REMARK    2  A    between atoms: C_6  and  P_1 
REMARK    3  A    between atoms: C_3  and  O_2 
REMARK    4  A    between atoms: C_10  and  C_4 
ROOT
ATOM      1  C   UNL d   1      13.551  12.766  -3.752  0.00  0.00     0.103 A 
ATOM      2  C   UNL d   1      13.434  12.823  -4.569  0.00  0.00     0.023 A 
ATOM      3  C   UNL d   1      13.295  13.532  -4.926  0.00  0.00     0.002 A 
ATOM      4  C   UNL d   1      13.521  13.457  -3.303  0.00  0.00     0.025 A 
ATOM      5  C   UNL d   1      13.266  14.224  -4.472  0.00  0.00     0.000 A 
ATOM      6  C   UNL d   1      13.382  14.167  -3.659  0.00  0.00     0.002 A 
ATOM      7  C   UNL d   1      13.358  14.849  -3.185  0.00  0.00     0.000 C 
ENDROOT
BRANCH   1   8
ATOM      8  O   UNL d   1      13.693  12.035  -3.391  0.00  0.00    -0.269 OA
BRANCH   8   9
ATOM      9  P   UNL d   1      13.843  12.003  -2.588  0.00  0.00     0.370 P 
ATOM     10  O   UNL d   1      14.647  12.040  -2.734  0.00  0.00    -0.257 OA
ATOM     11  N   UNL d   1      13.009  11.966  -2.451  0.00  0.00    -0.091 N 
BRANCH   9  12
ATOM     12  C   UNL d   1      13.975  11.970  -1.772  0.00  0.00     0.077 A 
ATOM     13  C   UNL d   1      14.742  12.092  -1.493  0.00  0.00     0.007 A 
ATOM     14  C   UNL d   1      14.876  12.059  -0.673  0.00  0.00     0.000 A 
ATOM     15  C   UNL d   1      14.255  11.907  -0.146  0.00  0.00     0.000 A 
ATOM     16  C   UNL d   1      13.504  11.790  -0.442  0.00  0.00     0.000 A 
ATOM     17  C   UNL d   1      13.355  11.819  -1.245  0.00  0.00     0.007 A 
ENDBRANCH   9  12
ENDBRANCH   8   9
ENDBRANCH   1   8
BRANCH   2  18
ATOM     18  C   UNL d   1      13.460  12.147  -5.031  0.00  0.00     0.002 C 
ATOM     19  C   UNL d   1      12.769  11.814  -5.316  0.00  0.00     0.000 C 
ATOM     20  C   UNL d   1      14.187  11.803  -5.207  0.00  0.00     0.000 C 
ENDBRANCH   2  18
TORSDOF 4
ENDMDL
