MODEL 1
REMARK VINA RESULT:      -4.8      0.000      0.000
REMARK  7 active torsions:
REMARK  status: ('A' for Active; 'I' for Inactive)
REMARK    1  A    between atoms: C_7  and  C_3 
REMARK    2  A    between atoms: C_8  and  C_7 
REMARK       I    between atoms: N_12  and  C_8 
REMARK    3  A    between atoms: C_15  and  N_12 
REMARK    4  A    between atoms: C_13  and  C_15 
REMARK    5  A    between atoms: C_16  and  C_13 
REMARK    6  A    between atoms: O_14  and  C_16 
REMARK    7  A    between atoms: C_17  and  O_14 
ROOT
ATOM      1  C   UNL d   1     -41.243-123.265 -50.477  0.00  0.00     0.082 C 
ENDROOT
BRANCH   1   2
ATOM      2  C   UNL d   1     -41.846-123.270 -49.908  0.00  0.00     0.096 A 
ATOM      3  C   UNL d   1     -41.692-123.003 -49.140  0.00  0.00     0.082 A 
ATOM      4  C   UNL d   1     -42.289-123.004 -48.561  0.00  0.00     0.285 A 
ATOM      5  N   UNL d   1     -43.040-123.278 -48.774  0.00  0.00    -0.152 NA
ATOM      6  O   UNL d   1     -42.136-122.739 -47.802  0.00  0.00    -0.265 OA
ATOM      7  C   UNL d   1     -43.194-123.545 -49.541  0.00  0.00     0.371 A 
ATOM      8  N   UNL d   1     -42.598-123.540 -50.104  0.00  0.00    -0.191 NA
ATOM      9  O   UNL d   1     -43.951-123.817 -49.741  0.00  0.00    -0.242 OA
ENDBRANCH   1   2
BRANCH   1  10
ATOM     10  C   UNL d   1     -41.246-122.696 -51.075  0.00  0.00     0.281 C 
ATOM     11  O   UNL d   1     -41.239-121.892 -50.882  0.00  0.00    -0.265 OA
ATOM     12  N   UNL d   1     -41.256-122.933 -51.865  0.00  0.00    -0.206 NA
BRANCH  12  13
ATOM     13  C   UNL d   1     -41.259-122.364 -52.463  0.00  0.00     0.104 C 
BRANCH  13  14
ATOM     14  C   UNL d   1     -41.156-122.594 -53.249  0.00  0.00     0.048 C 
BRANCH  14  15
ATOM     15  C   UNL d   1     -41.681-122.327 -53.827  0.00  0.00     0.124 C 
BRANCH  15  16
ATOM     16  O   UNL d   1     -41.437-122.306 -54.619  0.00  0.00    -0.303 OA
BRANCH  16  17
ATOM     17  C   UNL d   1     -42.001-122.374 -55.218  0.00  0.00     0.123 C 
ATOM     18  C   UNL d   1     -42.111-121.753 -55.750  0.00  0.00     0.029 C 
ENDBRANCH  16  17
ENDBRANCH  15  16
ENDBRANCH  14  15
ENDBRANCH  13  14
ENDBRANCH  12  13
ENDBRANCH   1  10
TORSDOF 7
ENDMDL
MODEL 2
REMARK VINA RESULT:      -4.1      0.848      1.274
REMARK  7 active torsions:
REMARK  status: ('A' for Active; 'I' for Inactive)
REMARK    1  A    between atoms: C_7  and  C_3 
REMARK    2  A    between atoms: C_8  and  C_7 
REMARK       I    between atoms: N_12  and  C_8 
REMARK    3  A    between atoms: C_15  and  N_12 
REMARK    4  A    between atoms: C_13  and  C_15 
REMARK    5  A    between atoms: C_16  and  C_13 
REMARK    6  A    between atoms: O_14  and  C_16 
REMARK    7  A    between atoms: C_17  and  O_14 
ROOT
ATOM      1  C   UNL d   1     -41.124-122.635 -50.630  0.00  0.00     0.082 C 
ENDROOT
BRANCH   1   2
ATOM      2  C   UNL d   1     -41.586-122.872 -49.984  0.00  0.00     0.096 A 
ATOM      3  C   UNL d   1     -42.407-122.777 -50.005  0.00  0.00     0.082 A 
ATOM      4  C   UNL d   1     -42.880-123.011 -49.363  0.00  0.00     0.285 A 
ATOM      5  N   UNL d   1     -42.506-123.342 -48.702  0.00  0.00    -0.152 NA
ATOM      6  O   UNL d   1     -43.692-122.917 -49.384  0.00  0.00    -0.265 OA
ATOM      7  C   UNL d   1     -41.685-123.438 -48.681  0.00  0.00     0.371 A 
ATOM      8  N   UNL d   1     -41.229-123.203 -49.320  0.00  0.00    -0.191 NA
ATOM      9  O   UNL d   1     -41.324-123.771 -48.013  0.00  0.00    -0.242 OA
ENDBRANCH   1   2
BRANCH   1  10
ATOM     10  C   UNL d   1     -41.254-122.969 -51.373  0.00  0.00     0.281 C 
ATOM     11  O   UNL d   1     -41.460-123.767 -51.439  0.00  0.00    -0.265 OA
ATOM     12  N   UNL d   1     -41.176-122.505 -52.051  0.00  0.00    -0.206 NA
BRANCH  12  13
ATOM     13  C   UNL d   1     -41.306-122.839 -52.794  0.00  0.00     0.104 C 
BRANCH  13  14
ATOM     14  C   UNL d   1     -41.129-122.407 -53.475  0.00  0.00     0.048 C 
BRANCH  14  15
ATOM     15  C   UNL d   1     -41.486-122.607 -54.192  0.00  0.00     0.124 C 
BRANCH  15  16
ATOM     16  O   UNL d   1     -41.652-122.009 -54.743  0.00  0.00    -0.303 OA
BRANCH  16  17
ATOM     17  C   UNL d   1     -41.906-122.218 -55.500  0.00  0.00     0.123 C 
ATOM     18  C   UNL d   1     -42.625-121.930 -55.785  0.00  0.00     0.029 C 
ENDBRANCH  16  17
ENDBRANCH  15  16
ENDBRANCH  14  15
ENDBRANCH  13  14
ENDBRANCH  12  13
ENDBRANCH   1  10
TORSDOF 7
ENDMDL
