MODEL 1
REMARK VINA RESULT:      76.0      0.000      0.000
REMARK  5 active torsions:
REMARK  status: ('A' for Active; 'I' for Inactive)
REMARK    1  A    between atoms: O_8  and  C_2 
REMARK    2  A    between atoms: C_9  and  C_5 
REMARK    3  A    between atoms: C_14  and  O_8 
REMARK    4  A    between atoms: N_11  and  C_9 
REMARK    5  A    between atoms: O_20  and  C_17 
ROOT
ATOM      1  C   UNL d   1      58.248  49.700  50.370  0.00  0.00     0.108 A 
ATOM      2  C   UNL d   1      59.895  49.703  50.613  0.00  0.00     0.161 A 
ATOM      3  C   UNL d   1      58.770  49.702  49.713  0.00  0.00     0.064 A 
ATOM      4  C   UNL d   1      59.591  49.703  49.838  0.00  0.00     0.222 A 
ATOM      5  C   UNL d   1      57.440  49.698  50.251  0.00  0.00     0.079 A 
ATOM      6  O   UNL d   1      58.555  49.700  51.143  0.00  0.00    -0.305 OA
ATOM      7  C   UNL d   1      59.378  49.702  51.264  0.00  0.00     0.126 A 
ATOM      8  C   UNL d   1      58.453  49.701  48.954  0.00  0.00     0.009 A 
ATOM      9  C   UNL d   1      57.129  49.698  49.491  0.00  0.00     0.199 A 
ATOM     10  O   UNL d   1      60.105  49.705  49.190  0.00  0.00    -0.284 OA
ATOM     11  C   UNL d   1      57.640  49.700  48.841  0.00  0.00     0.042 A 
ATOM     12  O   UNL d   1      56.312  49.697  49.375  0.00  0.00    -0.286 OA
ATOM     13  C   UNL d   1      59.679  49.702  52.036  0.00  0.00     0.029 C 
ENDROOT
BRANCH   2  14
ATOM     14  O   UNL d   1      60.712  49.705  50.729  0.00  0.00    -0.302 OA
BRANCH  14  15
ATOM     15  C   UNL d   1      61.159  49.026  50.585  0.00  0.00     0.102 A 
ATOM     16  C   UNL d   1      60.854  48.289  50.773  0.00  0.00     0.049 A 
ATOM     17  C   UNL d   1      61.304  47.611  50.628  0.00  0.00     0.096 A 
ATOM     18  C   UNL d   1      62.060  47.675  50.294  0.00  0.00     0.024 A 
ATOM     19  C   UNL d   1      62.361  48.424  50.106  0.00  0.00     0.004 A 
ATOM     20  C   UNL d   1      61.910  49.096  50.252  0.00  0.00     0.025 A 
BRANCH  17  21
ATOM     21  O   UNL d   1      60.999  46.874  50.816  0.00  0.00    -0.328 OA
ATOM     22  C   UNL d   1      61.335  46.426  51.425  0.00  0.00     0.181 C 
ENDBRANCH  17  21
ENDBRANCH  14  15
ENDBRANCH   2  14
BRANCH   5  23
ATOM     23  C   UNL d   1      56.937  49.697  50.891  0.00  0.00     0.085 C 
BRANCH  23  24
ATOM     24  N   UNL d   1      56.639  49.040  51.271  0.00  0.00    -0.302 N 
ATOM     25  C   UNL d   1      56.283  49.029  52.003  0.00  0.00     0.080 A 
ATOM     26  C   UNL d   1      56.074  48.270  52.165  0.00  0.00     0.021 A 
ATOM     27  C   UNL d   1      56.291  47.812  51.551  0.00  0.00     0.021 A 
ATOM     28  C   UNL d   1      56.647  48.290  50.986  0.00  0.00     0.080 A 
ENDBRANCH  23  24
ENDBRANCH   5  23
TORSDOF 5
ENDMDL
