MODEL 1
REMARK VINA RESULT:      48.9      0.000      0.000
REMARK  4 active torsions:
REMARK  status: ('A' for Active; 'I' for Inactive)
REMARK    1  A    between atoms: C_2  and  S_1 
REMARK    2  A    between atoms: N_5  and  S_1 
REMARK    3  A    between atoms: C_11  and  C_4 
REMARK    4  A    between atoms: C_9  and  N_5 
ROOT
ATOM      1  S   UNL d   1     -51.072  25.264  33.736  0.00  0.00     0.287 S 
ATOM      2  O   UNL d   1     -50.473  24.873  34.158  0.00  0.00    -0.198 OA
ATOM      3  O   UNL d   1     -51.670  25.670  33.309  0.00  0.00    -0.198 OA
ENDROOT
BRANCH   1   4
ATOM      4  C   UNL d   1     -51.558  24.592  33.751  0.00  0.00     0.125 A 
ATOM      5  C   UNL d   1     -52.366  24.674  33.598  0.00  0.00     0.121 A 
ATOM      6  N   UNL d   1     -52.839  25.323  33.419  0.00  0.00    -0.190 NA
ATOM      7  C   UNL d   1     -52.855  24.001  33.614  0.00  0.00     0.110 A 
ATOM      8  S   UNL d   1     -53.608  25.066  33.324  0.00  0.00     0.117 SA
ATOM      9  N   UNL d   1     -53.617  24.250  33.444  0.00  0.00    -0.190 NA
ATOM     10  C   UNL d   1     -52.538  23.265  33.779  0.00  0.00     0.021 A 
ATOM     11  C   UNL d   1     -51.725  23.189  33.932  0.00  0.00     0.002 A 
ATOM     12  C   UNL d   1     -51.240  23.856  33.917  0.00  0.00     0.015 A 
ENDBRANCH   1   4
BRANCH   1  13
ATOM     13  N   UNL d   1     -50.585  25.933  33.722  0.00  0.00    -0.158 NA
BRANCH  13  14
ATOM     14  C   UNL d   1     -50.598  26.513  33.661  0.00  0.00     0.100 A 
ATOM     15  C   UNL d   1     -49.912  27.035  33.804  0.00  0.00     0.083 A 
ATOM     16  C   UNL d   1     -50.077  27.826  33.679  0.00  0.00     0.014 A 
ATOM     17  C   UNL d   1     -50.824  28.126  33.437  0.00  0.00     0.035 A 
ATOM     18  C   UNL d   1     -51.445  27.600  33.313  0.00  0.00     0.008 A 
ATOM     19 BR   UNL d   1     -50.930  28.949  33.326  0.00  0.00    -0.049 Br
ATOM     20  C   UNL d   1     -51.314  26.763  33.432  0.00  0.00     0.021 A 
BRANCH  15  21
ATOM     21  C   UNL d   1     -49.182  26.753  34.040  0.00  0.00     0.212 C 
ATOM     22  O   UNL d   1     -48.771  26.182  33.564  0.00  0.00    -0.644 OA
ATOM     23  O   UNL d   1     -48.846  27.024  34.741  0.00  0.00    -0.644 OA
ENDBRANCH  15  21
ENDBRANCH  13  14
ENDBRANCH   1  13
TORSDOF 4
ENDMDL
MODEL 2
REMARK VINA RESULT:      49.8      1.270      1.752
REMARK  4 active torsions:
REMARK  status: ('A' for Active; 'I' for Inactive)
REMARK    1  A    between atoms: C_2  and  S_1 
REMARK    2  A    between atoms: N_5  and  S_1 
REMARK    3  A    between atoms: C_11  and  C_4 
REMARK    4  A    between atoms: C_9  and  N_5 
ROOT
ATOM      1  S   UNL d   1     -51.740  25.763  33.310  0.00  0.00     0.287 S 
ATOM      2  O   UNL d   1     -52.099  26.513  33.309  0.00  0.00    -0.198 OA
ATOM      3  O   UNL d   1     -51.366  25.012  33.310  0.00  0.00    -0.198 OA
ENDROOT
BRANCH   1   4
ATOM      4  C   UNL d   1     -52.477  25.381  33.310  0.00  0.00     0.125 A 
ATOM      5  C   UNL d   1     -52.503  24.555  33.313  0.00  0.00     0.121 A 
ATOM      6  N   UNL d   1     -51.919  23.977  33.315  0.00  0.00    -0.190 NA
ATOM      7  C   UNL d   1     -53.241  24.171  33.314  0.00  0.00     0.110 A 
ATOM      8  S   UNL d   1     -52.278  23.244  33.317  0.00  0.00     0.117 SA
ATOM      9  N   UNL d   1     -53.095  23.364  33.316  0.00  0.00    -0.190 NA
ATOM     10  C   UNL d   1     -53.933  24.607  33.311  0.00  0.00     0.021 A 
ATOM     11  C   UNL d   1     -53.900  25.437  33.309  0.00  0.00     0.002 A 
ATOM     12  C   UNL d   1     -53.168  25.818  33.308  0.00  0.00     0.015 A 
ENDBRANCH   1   4
BRANCH   1  13
ATOM     13  N   UNL d   1     -51.007  26.147  33.309  0.00  0.00    -0.158 NA
BRANCH  13  14
ATOM     14  C   UNL d   1     -50.621  26.408  33.660  0.00  0.00     0.100 A 
ATOM     15  C   UNL d   1     -49.893  26.026  33.955  0.00  0.00     0.083 A 
ATOM     16  C   UNL d   1     -49.447  26.512  34.439  0.00  0.00     0.014 A 
ATOM     17  C   UNL d   1     -49.653  27.300  34.644  0.00  0.00     0.035 A 
ATOM     18  C   UNL d   1     -50.349  27.623  34.345  0.00  0.00     0.008 A 
ATOM     19 BR   UNL d   1     -49.153  27.748  35.146  0.00  0.00    -0.049 Br
ATOM     20  C   UNL d   1     -50.844  27.148  33.834  0.00  0.00     0.021 A 
BRANCH  15  21
ATOM     21  C   UNL d   1     -49.684  25.259  33.761  0.00  0.00     0.212 C 
ATOM     22  O   UNL d   1     -48.984  25.109  33.306  0.00  0.00    -0.644 OA
ATOM     23  O   UNL d   1     -50.157  24.633  34.010  0.00  0.00    -0.644 OA
ENDBRANCH  15  21
ENDBRANCH  13  14
ENDBRANCH   1  13
TORSDOF 4
ENDMDL
