MODEL 1
REMARK VINA RESULT:       5.8      0.000      0.000
REMARK  4 active torsions:
REMARK  status: ('A' for Active; 'I' for Inactive)
REMARK    1  A    between atoms: C_4  and  N_1 
REMARK    2  A    between atoms: C_8  and  C_2 
REMARK    3  A    between atoms: C_13  and  C_6 
REMARK    4  A    between atoms: C_7  and  C_8 
ROOT
ATOM      1  N   UNL d   1      32.736  20.963 -21.085  0.00  0.00    -0.255 N 
ATOM      2  C   UNL d   1      32.802  20.416 -22.298  0.00  0.00     0.101 A 
ATOM      3  C   UNL d   1      32.979  20.171 -20.996  0.00  0.00     0.305 A 
ATOM      4  C   UNL d   1      33.020  19.831 -21.751  0.00  0.00     0.256 A 
ATOM      5  C   UNL d   1      32.631  21.101 -21.887  0.00  0.00     0.075 A 
ATOM      6  O   UNL d   1      33.149  19.790 -20.284  0.00  0.00    -0.263 OA
ATOM      7  O   UNL d   1      33.238  19.056 -21.914  0.00  0.00    -0.281 OA
ENDROOT
BRANCH   2   8
ATOM      8  C   UNL d   1      32.769  20.307 -23.117  0.00  0.00     0.223 C 
ATOM      9  O   UNL d   1      33.076  20.886 -23.619  0.00  0.00    -0.284 OA
BRANCH   8  10
ATOM     10  C   UNL d   1      32.438  19.633 -23.438  0.00  0.00     0.139 A 
ATOM     11  O   UNL d   1      31.633  19.500 -23.565  0.00  0.00    -0.304 OA
ATOM     12  C   UNL d   1      31.545  18.750 -23.897  0.00  0.00     0.100 A 
ATOM     13  C   UNL d   1      30.887  18.325 -24.138  0.00  0.00     0.025 A 
ATOM     14  C   UNL d   1      32.299  18.420 -23.975  0.00  0.00     0.025 A 
ATOM     15  C   UNL d   1      30.970  17.581 -24.453  0.00  0.00     0.002 A 
ATOM     16  C   UNL d   1      31.721  17.246 -24.533  0.00  0.00     0.000 A 
ATOM     17  C   UNL d   1      32.386  17.668 -24.293  0.00  0.00     0.002 A 
ATOM     18  C   UNL d   1      32.847  18.965 -23.692  0.00  0.00     0.030 A 
ENDBRANCH   8  10
ENDBRANCH   2   8
BRANCH   5  19
ATOM     19  C   UNL d   1      32.391  21.817 -22.228  0.00  0.00     0.017 A 
ATOM     20  C   UNL d   1      32.931  22.275 -22.629  0.00  0.00     0.013 A 
ATOM     21  C   UNL d   1      32.695  22.992 -22.972  0.00  0.00     0.058 A 
ATOM     22 CL   UNL d   1      33.241  23.459 -23.380  0.00  0.00    -0.082 Cl
ATOM     23  C   UNL d   1      31.910  23.238 -22.904  0.00  0.00     0.011 A 
ATOM     24  C   UNL d   1      31.364  22.772 -22.496  0.00  0.00     0.001 A 
ATOM     25  C   UNL d   1      31.611  22.060 -22.159  0.00  0.00     0.002 A 
ENDBRANCH   5  19
BRANCH   1  26
ATOM     26  C   UNL d   1      32.626  21.497 -20.475  0.00  0.00     0.179 A 
ATOM     27  N   UNL d   1      31.893  21.718 -20.156  0.00  0.00    -0.108 NA
ATOM     28  O   UNL d   1      32.033  22.263 -19.558  0.00  0.00    -0.210 OA
ATOM     29  C   UNL d   1      32.852  22.380 -19.506  0.00  0.00     0.128 A 
ATOM     30  C   UNL d   1      33.215  21.905 -20.074  0.00  0.00     0.067 A 
ATOM     31  C   UNL d   1      33.237  22.884 -18.977  0.00  0.00     0.029 C 
ENDBRANCH   1  26
TORSDOF 4
ENDMDL
MODEL 2
REMARK VINA RESULT:       6.4      2.632      5.670
REMARK  4 active torsions:
REMARK  status: ('A' for Active; 'I' for Inactive)
REMARK    1  A    between atoms: C_4  and  N_1 
REMARK    2  A    between atoms: C_8  and  C_2 
REMARK    3  A    between atoms: C_13  and  C_6 
REMARK    4  A    between atoms: C_7  and  C_8 
ROOT
ATOM      1  N   UNL d   1      30.379  17.362 -24.271  0.00  0.00    -0.255 N 
ATOM      2  C   UNL d   1      31.426  18.185 -24.228  0.00  0.00     0.101 A 
ATOM      3  C   UNL d   1      30.117  18.122 -24.489  0.00  0.00     0.305 A 
ATOM      4  C   UNL d   1      30.768  18.634 -24.462  0.00  0.00     0.256 A 
ATOM      5  C   UNL d   1      31.183  17.413 -24.114  0.00  0.00     0.075 A 
ATOM      6  O   UNL d   1      29.345  18.330 -24.695  0.00  0.00    -0.263 OA
ATOM      7  O   UNL d   1      30.751  19.436 -24.636  0.00  0.00    -0.281 OA
ENDROOT
BRANCH   2   8
ATOM      8  C   UNL d   1      32.190  18.485 -24.132  0.00  0.00     0.223 C 
ATOM      9  O   UNL d   1      32.814  18.158 -24.563  0.00  0.00    -0.284 OA
BRANCH   8  10
ATOM     10  C   UNL d   1      32.338  19.100 -23.615  0.00  0.00     0.139 A 
ATOM     11  O   UNL d   1      32.840  19.075 -22.960  0.00  0.00    -0.304 OA
ATOM     12  C   UNL d   1      32.825  19.816 -22.597  0.00  0.00     0.100 A 
ATOM     13  C   UNL d   1      33.205  20.115 -21.935  0.00  0.00     0.025 A 
ATOM     14  C   UNL d   1      32.311  20.298 -23.029  0.00  0.00     0.025 A 
ATOM     15  C   UNL d   1      33.081  20.883 -21.701  0.00  0.00     0.002 A 
ATOM     16  C   UNL d   1      32.569  21.369 -22.130  0.00  0.00     0.000 A 
ATOM     17  C   UNL d   1      32.184  21.074 -22.795  0.00  0.00     0.002 A 
ATOM     18  C   UNL d   1      32.013  19.856 -23.656  0.00  0.00     0.030 A 
ENDBRANCH   8  10
ENDBRANCH   2   8
BRANCH   5  19
ATOM     19  C   UNL d   1      31.672  16.787 -23.878  0.00  0.00     0.017 A 
ATOM     20  C   UNL d   1      32.206  16.471 -24.404  0.00  0.00     0.013 A 
ATOM     21  C   UNL d   1      32.697  15.844 -24.173  0.00  0.00     0.058 A 
ATOM     22 CL   UNL d   1      33.240  15.521 -24.705  0.00  0.00    -0.082 Cl
ATOM     23  C   UNL d   1      32.641  15.544 -23.406  0.00  0.00     0.011 A 
ATOM     24  C   UNL d   1      32.099  15.866 -22.874  0.00  0.00     0.001 A 
ATOM     25  C   UNL d   1      31.615  16.490 -23.116  0.00  0.00     0.002 A 
ENDBRANCH   5  19
BRANCH   1  26
ATOM     26  C   UNL d   1      29.911  16.692 -24.227  0.00  0.00     0.179 A 
ATOM     27  N   UNL d   1      30.060  16.032 -23.748  0.00  0.00    -0.108 NA
ATOM     28  O   UNL d   1      29.457  15.489 -23.871  0.00  0.00    -0.210 OA
ATOM     29  C   UNL d   1      28.932  15.813 -24.426  0.00  0.00     0.128 A 
ATOM     30  C   UNL d   1      29.217  16.556 -24.643  0.00  0.00     0.067 A 
ATOM     31  C   UNL d   1      28.245  15.454 -24.711  0.00  0.00     0.029 C 
ENDBRANCH   1  26
TORSDOF 4
ENDMDL
