MODEL 1
REMARK VINA RESULT:      -3.2      0.000      0.000
REMARK  5 active torsions:
REMARK  status: ('A' for Active; 'I' for Inactive)
REMARK    1  A    between atoms: C_2  and  S_1 
REMARK    2  A    between atoms: N_4  and  S_1 
REMARK    3  A    between atoms: C_10  and  C_9 
REMARK       I    between atoms: N_15  and  C_10 
REMARK    4  A    between atoms: C_24  and  N_15 
REMARK    5  A    between atoms: C_16  and  C_24 
ROOT
ATOM      1  N   UNL d   1      31.714  18.064 -24.507  0.00  0.00    -0.229 N 
ATOM      2  C   UNL d   1      32.647  18.633 -23.593  0.00  0.00     0.076 A 
ATOM      3  C   UNL d   1      31.908  18.339 -23.749  0.00  0.00     0.096 A 
ATOM      4  C   UNL d   1      32.275  18.092 -25.097  0.00  0.00     0.092 A 
ATOM      5  C   UNL d   1      33.231  18.661 -24.211  0.00  0.00     0.008 A 
ATOM      6  C   UNL d   1      33.024  18.384 -24.960  0.00  0.00     0.020 A 
ENDROOT
BRANCH   1   7
ATOM      7  S   UNL d   1      30.951  17.765 -24.653  0.00  0.00     0.273 S 
ATOM      8  O   UNL d   1      30.196  17.465 -24.797  0.00  0.00    -0.200 OA
ATOM      9  O   UNL d   1      30.673  18.528 -24.809  0.00  0.00    -0.200 OA
BRANCH   7  10
ATOM     10  C   UNL d   1      31.223  16.996 -24.497  0.00  0.00     0.125 A 
ATOM     11  C   UNL d   1      30.875  16.536 -23.914  0.00  0.00     0.142 A 
ATOM     12  C   UNL d   1      31.153  15.770 -23.764  0.00  0.00     0.131 A 
ATOM     13  N   UNL d   1      30.249  16.695 -23.399  0.00  0.00    -0.101 NA
ATOM     14  N   UNL d   1      30.695  15.455 -23.154  0.00  0.00    -0.102 NA
ATOM     15  C   UNL d   1      31.771  15.468 -24.194  0.00  0.00     0.023 A 
ATOM     16  O   UNL d   1      30.143  16.020 -22.931  0.00  0.00    -0.106 OA
ATOM     17  C   UNL d   1      32.131  15.919 -24.783  0.00  0.00     0.002 A 
ATOM     18  C   UNL d   1      31.853  16.688 -24.934  0.00  0.00     0.015 A 
ENDBRANCH   7  10
ENDBRANCH   1   7
BRANCH   2  19
ATOM     19  C   UNL d   1      32.853  18.909 -22.848  0.00  0.00     0.281 C 
ATOM     20  N   UNL d   1      32.795  19.707 -22.662  0.00  0.00    -0.204 NA
ATOM     21  O   UNL d   1      33.123  18.366 -22.283  0.00  0.00    -0.265 OA
BRANCH  20  22
ATOM     22  C   UNL d   1      33.011  19.978 -21.888  0.00  0.00     0.127 C 
BRANCH  22  23
ATOM     23  C   UNL d   1      32.781  20.755 -21.638  0.00  0.00     0.119 A 
ATOM     24  O   UNL d   1      32.878  21.449 -22.072  0.00  0.00    -0.304 OA
ATOM     25  C   UNL d   1      32.579  22.076 -21.624  0.00  0.00     0.123 A 
ATOM     26  C   UNL d   1      32.298  21.767 -20.914  0.00  0.00     0.029 A 
ATOM     27  C   UNL d   1      32.425  20.948 -20.925  0.00  0.00     0.028 A 
ENDBRANCH  22  23
ENDBRANCH  20  22
ENDBRANCH   2  19
TORSDOF 5
ENDMDL
MODEL 2
REMARK VINA RESULT:      -2.6      1.410      2.120
REMARK  5 active torsions:
REMARK  status: ('A' for Active; 'I' for Inactive)
REMARK    1  A    between atoms: C_2  and  S_1 
REMARK    2  A    between atoms: N_4  and  S_1 
REMARK    3  A    between atoms: C_10  and  C_9 
REMARK       I    between atoms: N_15  and  C_10 
REMARK    4  A    between atoms: C_24  and  N_15 
REMARK    5  A    between atoms: C_16  and  C_24 
ROOT
ATOM      1  N   UNL d   1      31.594  16.160 -23.948  0.00  0.00    -0.229 N 
ATOM      2  C   UNL d   1      32.466  17.190 -23.493  0.00  0.00     0.076 A 
ATOM      3  C   UNL d   1      31.951  16.901 -24.048  0.00  0.00     0.096 A 
ATOM      4  C   UNL d   1      31.765  15.722 -23.282  0.00  0.00     0.092 A 
ATOM      5  C   UNL d   1      32.643  16.731 -22.800  0.00  0.00     0.008 A 
ATOM      6  C   UNL d   1      32.280  15.995 -22.712  0.00  0.00     0.020 A 
ENDROOT
BRANCH   1   7
ATOM      7  S   UNL d   1      31.067  15.875 -24.526  0.00  0.00     0.273 S 
ATOM      8  O   UNL d   1      30.543  15.593 -25.097  0.00  0.00    -0.200 OA
ATOM      9  O   UNL d   1      31.693  15.775 -25.057  0.00  0.00    -0.200 OA
BRANCH   7  10
ATOM     10  C   UNL d   1      30.435  15.973 -23.997  0.00  0.00     0.125 A 
ATOM     11  C   UNL d   1      29.817  16.485 -24.169  0.00  0.00     0.142 A 
ATOM     12  C   UNL d   1      29.190  16.577 -23.636  0.00  0.00     0.131 A 
ATOM     13  N   UNL d   1      29.682  16.970 -24.823  0.00  0.00    -0.101 NA
ATOM     14  N   UNL d   1      28.664  17.122 -23.964  0.00  0.00    -0.102 NA
ATOM     15  C   UNL d   1      29.180  16.161 -22.940  0.00  0.00     0.023 A 
ATOM     16  O   UNL d   1      28.965  17.363 -24.688  0.00  0.00    -0.106 OA
ATOM     17  C   UNL d   1      29.794  15.642 -22.754  0.00  0.00     0.002 A 
ATOM     18  C   UNL d   1      30.425  15.549 -23.287  0.00  0.00     0.015 A 
ENDBRANCH   7  10
ENDBRANCH   1   7
BRANCH   2  19
ATOM     19  C   UNL d   1      32.827  17.922 -23.580  0.00  0.00     0.281 C 
ATOM     20  N   UNL d   1      32.786  18.487 -22.985  0.00  0.00    -0.204 NA
ATOM     21  O   UNL d   1      33.237  18.083 -24.282  0.00  0.00    -0.265 OA
BRANCH  20  22
ATOM     22  C   UNL d   1      33.163  19.240 -23.088  0.00  0.00     0.127 C 
BRANCH  22  23
ATOM     23  C   UNL d   1      33.062  19.842 -22.501  0.00  0.00     0.119 A 
ATOM     24  O   UNL d   1      32.764  19.728 -21.740  0.00  0.00    -0.304 OA
ATOM     25  C   UNL d   1      32.759  20.459 -21.354  0.00  0.00     0.123 A 
ATOM     26  C   UNL d   1      33.054  21.022 -21.877  0.00  0.00     0.029 A 
ATOM     27  C   UNL d   1      33.241  20.637 -22.588  0.00  0.00     0.028 A 
ENDBRANCH  22  23
ENDBRANCH  20  22
ENDBRANCH   2  19
TORSDOF 5
ENDMDL
MODEL 3
REMARK VINA RESULT:      -2.3      1.951      3.409
REMARK  5 active torsions:
REMARK  status: ('A' for Active; 'I' for Inactive)
REMARK    1  A    between atoms: C_2  and  S_1 
REMARK    2  A    between atoms: N_4  and  S_1 
REMARK    3  A    between atoms: C_10  and  C_9 
REMARK       I    between atoms: N_15  and  C_10 
REMARK    4  A    between atoms: C_24  and  N_15 
REMARK    5  A    between atoms: C_16  and  C_24 
ROOT
ATOM      1  N   UNL d   1      29.728  15.887 -23.906  0.00  0.00    -0.229 N 
ATOM      2  C   UNL d   1      31.064  16.100 -23.456  0.00  0.00     0.076 A 
ATOM      3  C   UNL d   1      30.497  16.171 -24.032  0.00  0.00     0.096 A 
ATOM      4  C   UNL d   1      29.546  15.533 -23.194  0.00  0.00     0.092 A 
ATOM      5  C   UNL d   1      30.871  15.731 -22.715  0.00  0.00     0.008 A 
ATOM      6  C   UNL d   1      30.102  15.453 -22.603  0.00  0.00     0.020 A 
ENDROOT
BRANCH   1   7
ATOM      7  S   UNL d   1      29.156  15.966 -24.505  0.00  0.00     0.273 S 
ATOM      8  O   UNL d   1      28.588  16.046 -25.097  0.00  0.00    -0.200 OA
ATOM      9  O   UNL d   1      29.585  15.453 -24.992  0.00  0.00    -0.200 OA
BRANCH   7  10
ATOM     10  C   UNL d   1      28.721  16.482 -24.021  0.00  0.00     0.125 A 
ATOM     11  C   UNL d   1      28.681  17.284 -24.189  0.00  0.00     0.142 A 
ATOM     12  C   UNL d   1      28.245  17.791 -23.701  0.00  0.00     0.131 A 
ATOM     13  N   UNL d   1      29.018  17.727 -24.799  0.00  0.00    -0.101 NA
ATOM     14  N   UNL d   1      28.313  18.553 -24.013  0.00  0.00    -0.102 NA
ATOM     15  C   UNL d   1      27.853  17.500 -23.053  0.00  0.00     0.023 A 
ATOM     16  O   UNL d   1      28.784  18.513 -24.683  0.00  0.00    -0.106 OA
ATOM     17  C   UNL d   1      27.884  16.696 -22.873  0.00  0.00     0.002 A 
ATOM     18  C   UNL d   1      28.322  16.185 -23.361  0.00  0.00     0.015 A 
ENDBRANCH   7  10
ENDBRANCH   1   7
BRANCH   2  19
ATOM     19  C   UNL d   1      31.827  16.377 -23.568  0.00  0.00     0.281 C 
ATOM     20  N   UNL d   1      31.978  17.181 -23.651  0.00  0.00    -0.204 NA
ATOM     21  O   UNL d   1      32.450  15.830 -23.597  0.00  0.00    -0.265 OA
BRANCH  20  22
ATOM     22  C   UNL d   1      32.773  17.454 -23.766  0.00  0.00     0.127 C 
BRANCH  22  23
ATOM     23  C   UNL d   1      32.925  18.285 -23.825  0.00  0.00     0.119 A 
ATOM     24  O   UNL d   1      32.923  18.726 -24.521  0.00  0.00    -0.304 OA
ATOM     25  C   UNL d   1      33.098  19.511 -24.328  0.00  0.00     0.123 A 
ATOM     26  C   UNL d   1      33.208  19.552 -23.513  0.00  0.00     0.029 A 
ATOM     27  C   UNL d   1      33.100  18.790 -23.203  0.00  0.00     0.028 A 
ENDBRANCH  22  23
ENDBRANCH  20  22
ENDBRANCH   2  19
TORSDOF 5
ENDMDL
