MODEL 1
REMARK VINA RESULT:      24.9      0.000      0.000
REMARK  5 active torsions:
REMARK  status: ('A' for Active; 'I' for Inactive)
REMARK    1  A    between atoms: C_2  and  S_1 
REMARK    2  A    between atoms: N_5  and  S_1 
REMARK    3  A    between atoms: C_12  and  N_5 
REMARK    4  A    between atoms: O_16  and  C_8 
REMARK    5  A    between atoms: C_13  and  C_12 
ROOT
ATOM      1  S   UNL d   1      13.535  12.117  -2.813  0.00  0.00     0.286 S 
ATOM      2  O   UNL d   1      14.295  12.438  -2.803  0.00  0.00    -0.198 OA
ATOM      3  O   UNL d   1      12.775  11.796  -2.822  0.00  0.00    -0.198 OA
ENDROOT
BRANCH   1   4
ATOM      4  C   UNL d   1      13.415  12.425  -3.568  0.00  0.00     0.117 A 
ATOM      5  C   UNL d   1      13.536  11.950  -4.232  0.00  0.00     0.027 A 
ATOM      6  C   UNL d   1      13.415  12.258  -4.987  0.00  0.00     0.081 A 
ATOM      7 CL   UNL d   1      13.538  11.779  -5.652  0.00  0.00    -0.080 Cl
ATOM      8  C   UNL d   1      13.173  13.042  -5.079  0.00  0.00     0.105 A 
ATOM      9  C   UNL d   1      13.052  13.517  -4.416  0.00  0.00     0.037 A 
ATOM     10  C   UNL d   1      13.173  13.208  -3.660  0.00  0.00     0.072 A 
ATOM     11 CL   UNL d   1      13.054  13.675  -3.001  0.00  0.00    -0.082 Cl
BRANCH   8  12
ATOM     12  O   UNL d   1      13.052  13.351  -5.835  0.00  0.00    -0.327 OA
ATOM     13  C   UNL d   1      13.402  14.066  -6.049  0.00  0.00     0.181 C 
ENDBRANCH   8  12
ENDBRANCH   1   4
BRANCH   1  14
ATOM     14  N   UNL d   1      13.656  11.809  -2.057  0.00  0.00    -0.155 NA
BRANCH  14  15
ATOM     15  C   UNL d   1      14.418  11.779  -1.740  0.00  0.00     0.131 C 
BRANCH  15  16
ATOM     16  C   UNL d   1      14.648  12.327  -1.167  0.00  0.00     0.101 A 
ATOM     17  N   UNL d   1      15.437  12.564  -1.118  0.00  0.00    -0.242 NA
ATOM     18  C   UNL d   1      15.667  13.112  -0.545  0.00  0.00     0.099 A 
ATOM     19  C   UNL d   1      15.108  13.421  -0.022  0.00  0.00     0.021 A 
ATOM     20  C   UNL d   1      14.315  13.183  -0.071  0.00  0.00     0.003 A 
ATOM     21  C   UNL d   1      14.085  12.636  -0.643  0.00  0.00     0.021 A 
ENDBRANCH  15  16
ENDBRANCH  14  15
ENDBRANCH   1  14
TORSDOF 5
ENDMDL
MODEL 2
REMARK VINA RESULT:      25.7      1.279      1.613
REMARK  5 active torsions:
REMARK  status: ('A' for Active; 'I' for Inactive)
REMARK    1  A    between atoms: C_2  and  S_1 
REMARK    2  A    between atoms: N_5  and  S_1 
REMARK    3  A    between atoms: C_12  and  N_5 
REMARK    4  A    between atoms: O_16  and  C_8 
REMARK    5  A    between atoms: C_13  and  C_12 
ROOT
ATOM      1  S   UNL d   1      14.560  12.011  -1.741  0.00  0.00     0.286 S 
ATOM      2  O   UNL d   1      15.232  12.225  -2.169  0.00  0.00    -0.198 OA
ATOM      3  O   UNL d   1      13.888  11.797  -1.313  0.00  0.00    -0.198 OA
ENDROOT
BRANCH   1   4
ATOM      4  C   UNL d   1      14.112  12.033  -2.433  0.00  0.00     0.117 A 
ATOM      5  C   UNL d   1      14.482  12.169  -3.159  0.00  0.00     0.027 A 
ATOM      6  C   UNL d   1      14.034  12.191  -3.851  0.00  0.00     0.081 A 
ATOM      7 CL   UNL d   1      14.406  12.327  -4.579  0.00  0.00    -0.080 Cl
ATOM      8  C   UNL d   1      13.217  12.077  -3.818  0.00  0.00     0.105 A 
ATOM      9  C   UNL d   1      12.849  11.941  -3.093  0.00  0.00     0.037 A 
ATOM     10  C   UNL d   1      13.296  11.919  -2.400  0.00  0.00     0.072 A 
ATOM     11 CL   UNL d   1      12.935  11.785  -1.680  0.00  0.00    -0.082 Cl
BRANCH   8  12
ATOM     12  O   UNL d   1      12.769  12.099  -4.511  0.00  0.00    -0.327 OA
ATOM     13  C   UNL d   1      13.135  11.994  -5.242  0.00  0.00     0.181 C 
ENDBRANCH   8  12
ENDBRANCH   1   4
BRANCH   1  14
ATOM     14  N   UNL d   1      15.008  11.989  -1.048  0.00  0.00    -0.155 NA
BRANCH  14  15
ATOM     15  C   UNL d   1      14.794  12.458  -0.403  0.00  0.00     0.131 C 
BRANCH  15  16
ATOM     16  C   UNL d   1      15.048  13.242  -0.361  0.00  0.00     0.101 A 
ATOM     17  N   UNL d   1      15.811  13.442  -0.605  0.00  0.00    -0.242 NA
ATOM     18  C   UNL d   1      16.065  14.226  -0.563  0.00  0.00     0.099 A 
ATOM     19  C   UNL d   1      15.556  14.810  -0.277  0.00  0.00     0.021 A 
ATOM     20  C   UNL d   1      14.789  14.610  -0.032  0.00  0.00     0.003 A 
ATOM     21  C   UNL d   1      14.535  13.827  -0.074  0.00  0.00     0.021 A 
ENDBRANCH  15  16
ENDBRANCH  14  15
ENDBRANCH   1  14
TORSDOF 5
ENDMDL
