MODEL 1
REMARK VINA RESULT:      50.9      0.000      0.000
REMARK  2 active torsions:
REMARK  status: ('A' for Active; 'I' for Inactive)
REMARK    1  A    between atoms: C_8  and  N_1 
REMARK    2  A    between atoms: N_5  and  C_9 
ROOT
ATOM      1  N   UNL d   1      59.736  49.225  51.087  0.00  0.00    -0.192 N 
ATOM      2  C   UNL d   1      59.933  49.444  51.861  0.00  0.00     0.281 A 
ATOM      3  N   UNL d   1      60.306  48.976  50.586  0.00  0.00    -0.120 NA
ATOM      4  C   UNL d   1      61.095  48.934  50.830  0.00  0.00     0.296 A 
ATOM      5  C   UNL d   1      60.715  49.407  52.122  0.00  0.00     0.063 A 
ATOM      6  C   UNL d   1      61.328  49.139  51.581  0.00  0.00     0.064 A 
ATOM      7  O   UNL d   1      59.351  49.703  52.391  0.00  0.00    -0.265 OA
ATOM      8  O   UNL d   1      61.664  48.681  50.314  0.00  0.00    -0.264 OA
ATOM      9  C   UNL d   1      60.924  49.621  52.886  0.00  0.00     0.005 A 
ATOM     10  C   UNL d   1      62.092  49.110  51.853  0.00  0.00     0.005 A 
ATOM     11  C   UNL d   1      61.720  49.577  53.131  0.00  0.00     0.000 A 
ATOM     12  C   UNL d   1      62.296  49.328  52.632  0.00  0.00     0.000 A 
ENDROOT
BRANCH   1  13
ATOM     13  C   UNL d   1      58.974  49.258  50.827  0.00  0.00     0.086 A 
ATOM     14  C   UNL d   1      58.371  48.890  51.254  0.00  0.00     0.021 A 
ATOM     15  C   UNL d   1      57.582  48.937  50.965  0.00  0.00     0.025 A 
ATOM     16  C   UNL d   1      57.426  49.354  50.256  0.00  0.00     0.127 A 
ATOM     17  C   UNL d   1      58.044  49.701  49.869  0.00  0.00     0.025 A 
ATOM     18  C   UNL d   1      58.812  49.672  50.122  0.00  0.00     0.021 A 
BRANCH  16  19
ATOM     19  N   UNL d   1      56.639  49.398  49.973  0.00  0.00    -0.114 N 
ATOM     20  O   UNL d   1      56.035  49.270  50.500  0.00  0.00    -0.532 OA
ATOM     21  O   UNL d   1      56.440  49.565  49.184  0.00  0.00    -0.532 OA
ENDBRANCH  16  19
ENDBRANCH   1  13
TORSDOF 2
ENDMDL
