MODEL 1
REMARK VINA RESULT:      -5.2      0.000      0.000
REMARK  9 active torsions:
REMARK  status: ('A' for Active; 'I' for Inactive)
REMARK    1  A    between atoms: C_2  and  N_1 
REMARK    2  A    between atoms: C_6  and  C_2 
REMARK    3  A    between atoms: C_8  and  C_2 
REMARK    4  A    between atoms: C_10  and  N_3 
REMARK       I    between atoms: C_4  and  N_7 
REMARK    5  A    between atoms: C_5  and  C_4 
REMARK       I    between atoms: N_9  and  C_5 
REMARK    6  A    between atoms: N_7  and  C_8 
REMARK    7  A    between atoms: C_24  and  N_9 
REMARK    8  A    between atoms: C_26  and  C_24 
REMARK    9  A    between atoms: O_29  and  C_25 
ROOT
ATOM      1  C   UNL d   1     -45.658  12.440  22.353  0.00  0.00     0.106 C 
ENDROOT
BRANCH   1   2
ATOM      2  N   UNL d   1     -46.310  12.942  22.484  0.00  0.00    -0.298 N 
ATOM      3  C   UNL d   1     -46.247  13.570  23.004  0.00  0.00     0.100 A 
ATOM      4  C   UNL d   1     -46.899  14.071  23.134  0.00  0.00     0.100 A 
ATOM      5  N   UNL d   1     -47.608  13.930  22.736  0.00  0.00    -0.301 N 
ATOM      6  C   UNL d   1     -47.660  13.289  22.211  0.00  0.00     0.100 A 
ATOM      7  C   UNL d   1     -47.019  12.801  22.086  0.00  0.00     0.100 A 
BRANCH   5   8
ATOM      8  C   UNL d   1     -48.245  14.411  22.857  0.00  0.00     0.064 A 
ATOM      9  C   UNL d   1     -48.312  15.130  22.444  0.00  0.00     0.020 A 
ATOM     10  C   UNL d   1     -48.958  15.626  22.561  0.00  0.00     0.026 A 
ATOM     11  C   UNL d   1     -49.549  15.409  23.094  0.00  0.00     0.094 A 
ATOM     12  C   UNL d   1     -49.487  14.689  23.509  0.00  0.00     0.026 A 
ATOM     13  C   UNL d   1     -48.837  14.194  23.389  0.00  0.00     0.020 A 
BRANCH  11  14
ATOM     14  O   UNL d   1     -50.202  15.907  23.213  0.00  0.00    -0.328 OA
ATOM     15  C   UNL d   1     -50.917  15.750  22.832  0.00  0.00     0.181 C 
ENDBRANCH  11  14
ENDBRANCH   5   8
ENDBRANCH   1   2
BRANCH   1  16
ATOM     16  C   UNL d   1     -45.546  11.779  22.857  0.00  0.00     0.118 A 
ATOM     17  O   UNL d   1     -44.900  11.528  23.311  0.00  0.00    -0.304 OA
ATOM     18  C   UNL d   1     -45.127  10.827  23.694  0.00  0.00     0.123 A 
ATOM     19  C   UNL d   1     -45.894  10.650  23.482  0.00  0.00     0.029 A 
ATOM     20  C   UNL d   1     -46.157  11.240  22.961  0.00  0.00     0.028 A 
ENDBRANCH   1  16
BRANCH   1  21
ATOM     21  C   UNL d   1     -45.124  12.580  21.743  0.00  0.00     0.122 C 
BRANCH  21  22
ATOM     22  N   UNL d   1     -44.326  12.763  21.925  0.00  0.00    -0.201 NA
ATOM     23  C   UNL d   1     -43.763  12.808  21.326  0.00  0.00     0.337 C 
ATOM     24  O   UNL d   1     -43.976  12.676  20.551  0.00  0.00    -0.260 OA
BRANCH  23  25
ATOM     25  C   UNL d   1     -42.987  12.987  21.522  0.00  0.00     0.337 C 
ATOM     26  N   UNL d   1     -42.619  13.636  21.167  0.00  0.00    -0.200 NA
ATOM     27  O   UNL d   1     -42.573  12.533  22.061  0.00  0.00    -0.260 OA
BRANCH  26  28
ATOM     28  C   UNL d   1     -41.839  13.824  21.358  0.00  0.00     0.127 C 
BRANCH  28  29
ATOM     29  C   UNL d   1     -41.472  14.471  21.002  0.00  0.00     0.119 A 
ATOM     30  O   UNL d   1     -41.638  15.279  21.022  0.00  0.00    -0.304 OA
ATOM     31  C   UNL d   1     -41.072  15.660  20.552  0.00  0.00     0.123 A 
ATOM     32  C   UNL d   1     -40.566  15.095  20.249  0.00  0.00     0.029 A 
ATOM     33  C   UNL d   1     -40.809  14.358  20.524  0.00  0.00     0.028 A 
ENDBRANCH  28  29
ENDBRANCH  26  28
ENDBRANCH  23  25
ENDBRANCH  21  22
ENDBRANCH   1  21
TORSDOF 9
ENDMDL
MODEL 2
REMARK VINA RESULT:      -3.5      3.090      6.011
REMARK  9 active torsions:
REMARK  status: ('A' for Active; 'I' for Inactive)
REMARK    1  A    between atoms: C_2  and  N_1 
REMARK    2  A    between atoms: C_6  and  C_2 
REMARK    3  A    between atoms: C_8  and  C_2 
REMARK    4  A    between atoms: C_10  and  N_3 
REMARK       I    between atoms: C_4  and  N_7 
REMARK    5  A    between atoms: C_5  and  C_4 
REMARK       I    between atoms: N_9  and  C_5 
REMARK    6  A    between atoms: N_7  and  C_8 
REMARK    7  A    between atoms: C_24  and  N_9 
REMARK    8  A    between atoms: C_26  and  C_24 
REMARK    9  A    between atoms: O_29  and  C_25 
ROOT
ATOM      1  C   UNL d   1     -40.437  14.474  20.354  0.00  0.00     0.106 C 
ENDROOT
BRANCH   1   2
ATOM      2  N   UNL d   1     -41.142  14.146  20.652  0.00  0.00    -0.298 N 
ATOM      3  C   UNL d   1     -41.225  13.335  20.710  0.00  0.00     0.100 A 
ATOM      4  C   UNL d   1     -41.930  13.007  21.008  0.00  0.00     0.100 A 
ATOM      5  N   UNL d   1     -42.544  13.505  21.244  0.00  0.00    -0.301 N 
ATOM      6  C   UNL d   1     -42.448  14.328  21.182  0.00  0.00     0.100 A 
ATOM      7  C   UNL d   1     -41.756  14.644  20.889  0.00  0.00     0.100 A 
BRANCH   5   8
ATOM      8  C   UNL d   1     -43.231  13.196  21.534  0.00  0.00     0.064 A 
ATOM      9  C   UNL d   1     -43.241  12.435  21.867  0.00  0.00     0.020 A 
ATOM     10  C   UNL d   1     -43.937  12.112  22.165  0.00  0.00     0.026 A 
ATOM     11  C   UNL d   1     -44.636  12.550  22.134  0.00  0.00     0.094 A 
ATOM     12  C   UNL d   1     -44.631  13.314  21.801  0.00  0.00     0.026 A 
ATOM     13  C   UNL d   1     -43.930  13.633  21.503  0.00  0.00     0.020 A 
BRANCH  11  14
ATOM     14  O   UNL d   1     -45.339  12.227  22.434  0.00  0.00    -0.328 OA
ATOM     15  C   UNL d   1     -45.892  12.713  22.807  0.00  0.00     0.181 C 
ENDBRANCH  11  14
ENDBRANCH   5   8
ENDBRANCH   1   2
BRANCH   1  16
ATOM     16  C   UNL d   1     -39.794  14.601  20.878  0.00  0.00     0.118 A 
ATOM     17  O   UNL d   1     -39.258  14.083  21.239  0.00  0.00    -0.304 OA
ATOM     18  C   UNL d   1     -38.745  14.544  21.701  0.00  0.00     0.123 A 
ATOM     19  C   UNL d   1     -38.959  15.327  21.628  0.00  0.00     0.029 A 
ATOM     20  C   UNL d   1     -39.611  15.366  21.117  0.00  0.00     0.028 A 
ENDBRANCH   1  16
BRANCH   1  21
ATOM     21  C   UNL d   1     -40.359  14.673  19.560  0.00  0.00     0.122 C 
BRANCH  21  22
ATOM     22  N   UNL d   1     -39.881  14.199  19.059  0.00  0.00    -0.201 NA
ATOM     23  C   UNL d   1     -39.854  14.346  18.250  0.00  0.00     0.337 C 
ATOM     24  O   UNL d   1     -40.291  14.955  17.928  0.00  0.00    -0.260 OA
BRANCH  23  25
ATOM     25  C   UNL d   1     -39.382  13.874  17.774  0.00  0.00     0.337 C 
ATOM     26  N   UNL d   1     -38.985  14.211  17.134  0.00  0.00    -0.200 NA
ATOM     27  O   UNL d   1     -39.300  13.074  17.926  0.00  0.00    -0.260 OA
BRANCH  26  28
ATOM     28  C   UNL d   1     -38.508  13.742  16.651  0.00  0.00     0.127 C 
BRANCH  28  29
ATOM     29  C   UNL d   1     -38.286  14.014  15.904  0.00  0.00     0.119 A 
ATOM     30  O   UNL d   1     -38.149  14.772  15.610  0.00  0.00    -0.304 OA
ATOM     31  C   UNL d   1     -37.940  14.696  14.813  0.00  0.00     0.123 A 
ATOM     32  C   UNL d   1     -37.948  13.903  14.619  0.00  0.00     0.029 A 
ATOM     33  C   UNL d   1     -38.161  13.476  15.290  0.00  0.00     0.028 A 
ENDBRANCH  28  29
ENDBRANCH  26  28
ENDBRANCH  23  25
ENDBRANCH  21  22
ENDBRANCH   1  21
TORSDOF 9
ENDMDL
