MODEL 1
REMARK VINA RESULT:      -8.0      0.000      0.000
REMARK  5 active torsions:
REMARK  status: ('A' for Active; 'I' for Inactive)
REMARK    1  A    between atoms: S_2  and  C_1 
REMARK    2  A    between atoms: N_8  and  S_2 
REMARK    3  A    between atoms: C_11  and  C_16 
REMARK    4  A    between atoms: O_22  and  C_11 
REMARK    5  A    between atoms: C_23  and  O_22 
ROOT
ATOM      1  S   UNL d   1      51.776  33.799  53.072  0.00  0.00     0.277 S 
ATOM      2  O   UNL d   1      52.224  34.289  52.576  0.00  0.00    -0.199 OA
ATOM      3  O   UNL d   1      51.321  33.317  53.557  0.00  0.00    -0.199 OA
ENDROOT
BRANCH   1   4
ATOM      4  C   UNL d   1      52.459  33.556  53.461  0.00  0.00     0.178 A 
ATOM      5  C   UNL d   1      52.819  32.847  53.239  0.00  0.00     0.282 A 
ATOM      6  N   UNL d   1      53.500  32.606  53.628  0.00  0.00    -0.224 N 
ATOM      7  O   UNL d   1      52.504  32.397  52.647  0.00  0.00    -0.266 OA
ATOM      8  C   UNL d   1      53.855  31.897  53.403  0.00  0.00     0.107 C 
ATOM      9  C   UNL d   1      53.820  33.063  54.230  0.00  0.00     0.342 A 
ATOM     10  N   UNL d   1      53.462  33.763  54.446  0.00  0.00    -0.255 N 
ATOM     11  O   UNL d   1      54.505  32.822  54.622  0.00  0.00    -0.245 OA
ATOM     12  C   UNL d   1      52.780  34.013  54.063  0.00  0.00     0.102 A 
ATOM     13  C   UNL d   1      53.781  34.217  55.045  0.00  0.00     0.104 C 
ENDBRANCH   1   4
BRANCH   1  14
ATOM     14  N   UNL d   1      51.084  34.037  52.688  0.00  0.00    -0.229 N 
ATOM     15  C   UNL d   1      51.078  34.132  51.847  0.00  0.00     0.092 A 
ATOM     16  C   UNL d   1      50.369  34.373  51.475  0.00  0.00     0.025 A 
ATOM     17  C   UNL d   1      49.676  34.517  51.923  0.00  0.00     0.067 A 
ATOM     18  C   UNL d   1      49.682  34.424  52.750  0.00  0.00     0.025 A 
ATOM     19  C   UNL d   1      50.391  34.181  53.136  0.00  0.00     0.092 A 
BRANCH  17  20
ATOM     20  C   UNL d   1      48.994  34.751  51.548  0.00  0.00     0.300 C 
ATOM     21  O   UNL d   1      48.833  34.484  50.816  0.00  0.00    -0.259 OA
BRANCH  20  22
ATOM     22  O   UNL d   1      48.487  35.254  51.929  0.00  0.00    -0.271 OA
BRANCH  22  23
ATOM     23  C   UNL d   1      47.819  35.492  51.587  0.00  0.00     0.126 C 
ATOM     24  C   UNL d   1      47.356  36.042  51.946  0.00  0.00     0.029 C 
ENDBRANCH  22  23
ENDBRANCH  20  22
ENDBRANCH  17  20
ENDBRANCH   1  14
TORSDOF 5
ENDMDL
MODEL 2
REMARK VINA RESULT:      -7.2      1.220      4.983
REMARK  5 active torsions:
REMARK  status: ('A' for Active; 'I' for Inactive)
REMARK    1  A    between atoms: S_2  and  C_1 
REMARK    2  A    between atoms: N_8  and  S_2 
REMARK    3  A    between atoms: C_11  and  C_16 
REMARK    4  A    between atoms: O_22  and  C_11 
REMARK    5  A    between atoms: C_23  and  O_22 
ROOT
ATOM      1  S   UNL d   1      50.772  34.211  52.706  0.00  0.00     0.277 S 
ATOM      2  O   UNL d   1      50.381  33.705  53.233  0.00  0.00    -0.199 OA
ATOM      3  O   UNL d   1      51.171  34.709  52.188  0.00  0.00    -0.199 OA
ENDROOT
BRANCH   1   4
ATOM      4  C   UNL d   1      50.050  34.491  52.428  0.00  0.00     0.178 A 
ATOM      5  C   UNL d   1      49.600  34.992  52.907  0.00  0.00     0.282 A 
ATOM      6  N   UNL d   1      48.881  35.270  52.628  0.00  0.00    -0.224 N 
ATOM      7  O   UNL d   1      49.866  35.203  53.640  0.00  0.00    -0.266 OA
ATOM      8  C   UNL d   1      48.435  35.769  53.110  0.00  0.00     0.107 C 
ATOM      9  C   UNL d   1      48.610  35.055  51.883  0.00  0.00     0.342 A 
ATOM     10  N   UNL d   1      49.058  34.561  51.413  0.00  0.00    -0.255 N 
ATOM     11  O   UNL d   1      47.887  35.334  51.601  0.00  0.00    -0.245 OA
ATOM     12  C   UNL d   1      49.779  34.277  51.683  0.00  0.00     0.102 A 
ATOM     13  C   UNL d   1      48.788  34.347  50.672  0.00  0.00     0.104 C 
ENDBRANCH   1   4
BRANCH   1  14
ATOM     14  N   UNL d   1      51.502  33.937  52.978  0.00  0.00    -0.229 N 
ATOM     15  C   UNL d   1      51.594  33.124  53.196  0.00  0.00     0.092 A 
ATOM     16  C   UNL d   1      52.340  32.863  53.469  0.00  0.00     0.025 A 
ATOM     17  C   UNL d   1      52.986  33.393  53.527  0.00  0.00     0.067 A 
ATOM     18  C   UNL d   1      52.895  34.193  53.313  0.00  0.00     0.025 A 
ATOM     19  C   UNL d   1      52.148  34.467  53.036  0.00  0.00     0.092 A 
BRANCH  17  20
ATOM     20  C   UNL d   1      53.706  33.126  53.794  0.00  0.00     0.300 C 
ATOM     21  O   UNL d   1      54.028  32.471  53.476  0.00  0.00    -0.259 OA
BRANCH  20  22
ATOM     22  O   UNL d   1      54.084  33.534  54.381  0.00  0.00    -0.271 OA
BRANCH  22  23
ATOM     23  C   UNL d   1      54.752  33.262  54.700  0.00  0.00     0.126 C 
ATOM     24  C   UNL d   1      55.141  33.694  55.253  0.00  0.00     0.029 C 
ENDBRANCH  22  23
ENDBRANCH  20  22
ENDBRANCH  17  20
ENDBRANCH   1  14
TORSDOF 5
ENDMDL
