MODEL 1
REMARK VINA RESULT:     -10.8      0.000      0.000
REMARK  6 active torsions:
REMARK  status: ('A' for Active; 'I' for Inactive)
REMARK    1  A    between atoms: C_21  and  C_3 
REMARK    2  A    between atoms: S_17  and  C_5 
REMARK    3  A    between atoms: C_11  and  C_16 
REMARK       I    between atoms: N_14  and  C_11 
REMARK    4  A    between atoms: C_19  and  N_14 
REMARK    5  A    between atoms: C_16  and  C_20 
REMARK    6  A    between atoms: C_20  and  S_17 
ROOT
ATOM      1  C   UNL d   1      52.795  34.027  53.672  0.00  0.00     0.092 A 
ATOM      2  C   UNL d   1      53.269  32.679  53.700  0.00  0.00     0.057 A 
ATOM      3  C   UNL d   1      53.347  33.465  53.926  0.00  0.00     0.016 A 
ATOM      4  N   UNL d   1      52.091  33.003  52.968  0.00  0.00    -0.239 NA
ATOM      5  C   UNL d   1      52.167  33.796  53.193  0.00  0.00     0.120 A 
ATOM      6  C   UNL d   1      52.641  32.448  53.221  0.00  0.00     0.081 A 
ATOM      7  C   UNL d   1      53.819  32.124  53.955  0.00  0.00     0.193 A 
ATOM      8  C   UNL d   1      52.882  34.821  53.905  0.00  0.00     0.103 C 
ATOM      9  N   UNL d   1      52.963  35.617  54.135  0.00  0.00    -0.191 NA
ATOM     10  C   UNL d   1      53.114  31.103  53.250  0.00  0.00     0.042 A 
ATOM     11  C   UNL d   1      53.742  31.334  53.729  0.00  0.00     0.019 A 
ATOM     12  C   UNL d   1      52.563  31.662  52.996  0.00  0.00    -0.003 A 
ATOM     13  O   UNL d   1      54.447  32.355  54.434  0.00  0.00    -0.287 OA
ATOM     14  C   UNL d   1      52.617  30.620  52.805  0.00  0.00     0.009 C 
ATOM     15  C   UNL d   1      53.666  30.540  53.504  0.00  0.00     0.009 C 
ENDROOT
BRANCH   3  16
ATOM     16  C   UNL d   1      53.975  33.696  54.405  0.00  0.00     0.001 C 
ATOM     17  C   UNL d   1      53.904  33.662  55.223  0.00  0.00     0.000 C 
ENDBRANCH   3  16
BRANCH   5  18
ATOM     18  S   UNL d   1      51.616  34.356  52.939  0.00  0.00    -0.067 SA
BRANCH  18  19
ATOM     19  C   UNL d   1      50.822  34.141  52.866  0.00  0.00     0.042 C 
BRANCH  19  20
ATOM     20  C   UNL d   1      50.367  34.449  52.248  0.00  0.00     0.070 C 
BRANCH  20  21
ATOM     21  C   UNL d   1      49.608  34.745  52.400  0.00  0.00     0.280 C 
ATOM     22  N   UNL d   1      49.178  35.110  51.795  0.00  0.00    -0.208 NA
ATOM     23  O   UNL d   1      49.278  34.677  53.155  0.00  0.00    -0.265 OA
BRANCH  22  24
ATOM     24  C   UNL d   1      48.419  35.407  51.947  0.00  0.00     0.085 A 
ATOM     25  C   UNL d   1      48.304  35.969  52.542  0.00  0.00     0.019 A 
ATOM     26  C   UNL d   1      47.549  36.260  52.688  0.00  0.00     0.002 A 
ATOM     27  C   UNL d   1      46.901  35.997  52.246  0.00  0.00     0.000 A 
ATOM     28  C   UNL d   1      47.015  35.437  51.654  0.00  0.00     0.002 A 
ATOM     29  C   UNL d   1      46.133  36.296  52.399  0.00  0.00     0.000 C 
ATOM     30  C   UNL d   1      47.775  35.140  51.503  0.00  0.00     0.019 A 
ENDBRANCH  22  24
ENDBRANCH  20  21
ENDBRANCH  19  20
ENDBRANCH  18  19
ENDBRANCH   5  18
TORSDOF 6
ENDMDL
MODEL 2
REMARK VINA RESULT:      -8.8      0.730      2.167
REMARK  6 active torsions:
REMARK  status: ('A' for Active; 'I' for Inactive)
REMARK    1  A    between atoms: C_21  and  C_3 
REMARK    2  A    between atoms: S_17  and  C_5 
REMARK    3  A    between atoms: C_11  and  C_16 
REMARK       I    between atoms: N_14  and  C_11 
REMARK    4  A    between atoms: C_19  and  N_14 
REMARK    5  A    between atoms: C_16  and  C_20 
REMARK    6  A    between atoms: C_20  and  S_17 
ROOT
ATOM      1  C   UNL d   1      52.725  32.466  53.215  0.00  0.00     0.092 A 
ATOM      2  C   UNL d   1      53.639  33.074  54.131  0.00  0.00     0.057 A 
ATOM      3  C   UNL d   1      53.418  32.433  53.667  0.00  0.00     0.016 A 
ATOM      4  N   UNL d   1      52.483  33.787  53.700  0.00  0.00    -0.239 NA
ATOM      5  C   UNL d   1      52.257  33.143  53.231  0.00  0.00     0.120 A 
ATOM      6  C   UNL d   1      53.171  33.751  54.148  0.00  0.00     0.081 A 
ATOM      7  C   UNL d   1      54.327  33.038  54.579  0.00  0.00     0.193 A 
ATOM      8  C   UNL d   1      52.509  31.812  52.748  0.00  0.00     0.103 C 
ATOM      9  N   UNL d   1      52.288  31.161  52.279  0.00  0.00    -0.191 NA
ATOM     10  C   UNL d   1      54.083  34.358  55.062  0.00  0.00     0.042 A 
ATOM     11  C   UNL d   1      54.550  33.681  55.045  0.00  0.00     0.019 A 
ATOM     12  C   UNL d   1      53.392  34.392  54.612  0.00  0.00    -0.003 A 
ATOM     13  O   UNL d   1      54.794  32.361  54.562  0.00  0.00    -0.287 OA
ATOM     14  C   UNL d   1      53.824  35.114  55.258  0.00  0.00     0.009 C 
ATOM     15  C   UNL d   1      54.776  34.325  55.514  0.00  0.00     0.009 C 
ENDROOT
BRANCH   3  16
ATOM     16  C   UNL d   1      53.886  31.756  53.651  0.00  0.00     0.001 C 
ATOM     17  C   UNL d   1      53.695  31.112  54.124  0.00  0.00     0.000 C 
ENDBRANCH   3  16
BRANCH   5  18
ATOM     18  S   UNL d   1      51.567  33.177  52.782  0.00  0.00    -0.067 SA
BRANCH  18  19
ATOM     19  C   UNL d   1      51.043  33.807  52.887  0.00  0.00     0.042 C 
BRANCH  19  20
ATOM     20  C   UNL d   1      50.539  34.030  52.271  0.00  0.00     0.070 C 
BRANCH  20  21
ATOM     21  C   UNL d   1      49.841  34.446  52.437  0.00  0.00     0.280 C 
ATOM     22  N   UNL d   1      49.389  34.758  51.819  0.00  0.00    -0.208 NA
ATOM     23  O   UNL d   1      49.595  34.550  53.219  0.00  0.00    -0.265 OA
BRANCH  22  24
ATOM     24  C   UNL d   1      48.691  35.174  51.985  0.00  0.00     0.085 A 
ATOM     25  C   UNL d   1      48.657  35.688  52.632  0.00  0.00     0.019 A 
ATOM     26  C   UNL d   1      47.963  36.097  52.791  0.00  0.00     0.002 A 
ATOM     27  C   UNL d   1      47.295  36.002  52.312  0.00  0.00     0.000 A 
ATOM     28  C   UNL d   1      47.329  35.491  51.668  0.00  0.00     0.002 A 
ATOM     29  C   UNL d   1      46.589  36.422  52.479  0.00  0.00     0.000 C 
ATOM     30  C   UNL d   1      48.027  35.075  51.503  0.00  0.00     0.019 A 
ENDBRANCH  22  24
ENDBRANCH  20  21
ENDBRANCH  19  20
ENDBRANCH  18  19
ENDBRANCH   5  18
TORSDOF 6
ENDMDL
