MODEL 1
REMARK VINA RESULT:      -8.6      0.000      0.000
REMARK  6 active torsions:
REMARK  status: ('A' for Active; 'I' for Inactive)
REMARK    1  A    between atoms: S_10  and  C_4 
REMARK    2  A    between atoms: C_16  and  S_10 
REMARK    3  A    between atoms: C_11  and  C_14 
REMARK    4  A    between atoms: O_20  and  C_13 
REMARK    5  A    between atoms: C_14  and  C_16 
REMARK    6  A    between atoms: O_21  and  C_15 
ROOT
ATOM      1  C   UNL d   1      51.175  33.365  53.003  0.00  0.00     0.079 C 
ENDROOT
BRANCH   1   2
ATOM      2  C   UNL d   1      51.032  34.038  52.543  0.00  0.00     0.202 C 
ATOM      3  O   UNL d   1      51.624  34.310  52.016  0.00  0.00    -0.286 OA
BRANCH   2   4
ATOM      4  C   UNL d   1      50.311  34.446  52.595  0.00  0.00     0.042 A 
ATOM      5  C   UNL d   1      49.785  34.464  51.953  0.00  0.00     0.029 A 
ATOM      6  C   UNL d   1      49.064  34.877  52.014  0.00  0.00     0.116 A 
ATOM      7  C   UNL d   1      48.879  35.267  52.719  0.00  0.00     0.116 A 
ATOM      8  C   UNL d   1      49.394  35.252  53.354  0.00  0.00     0.026 A 
ATOM      9  C   UNL d   1      50.116  34.840  53.294  0.00  0.00     0.005 A 
BRANCH   6  10
ATOM     10  O   UNL d   1      48.537  34.896  51.376  0.00  0.00    -0.326 OA
ATOM     11  C   UNL d   1      48.730  34.493  50.672  0.00  0.00     0.181 C 
ENDBRANCH   6  10
BRANCH   7  12
ATOM     12  O   UNL d   1      48.157  35.683  52.787  0.00  0.00    -0.326 OA
ATOM     13  C   UNL d   1      47.958  36.044  53.511  0.00  0.00     0.181 C 
ENDBRANCH   7  12
ENDBRANCH   2   4
ENDBRANCH   1   2
BRANCH   1  14
ATOM     14  S   UNL d   1      51.938  33.066  53.072  0.00  0.00    -0.063 SA
BRANCH  14  15
ATOM     15  C   UNL d   1      52.559  32.550  53.288  0.00  0.00     0.132 A 
ATOM     16  N   UNL d   1      53.123  32.807  53.759  0.00  0.00    -0.050 N 
ATOM     17  C   UNL d   1      53.706  32.314  53.959  0.00  0.00     0.753 A 
ATOM     18  N   UNL d   1      53.683  33.793  54.503  0.00  0.00    -0.130 NA
ATOM     19  N   UNL d   1      54.281  32.557  54.432  0.00  0.00    -0.038 NA
ATOM     20  N   UNL d   1      53.710  31.585  53.687  0.00  0.00    -0.059 NA
ATOM     21  C   UNL d   1      54.263  33.302  54.702  0.00  0.00     0.201 A 
ATOM     22  C   UNL d   1      54.837  33.560  55.180  0.00  0.00     0.044 C 
ATOM     23  C   UNL d   1      53.140  31.333  53.214  0.00  0.00     0.102 A 
ATOM     24  C   UNL d   1      52.560  31.823  53.014  0.00  0.00     0.046 A 
ATOM     25  C   UNL d   1      53.152  30.593  52.942  0.00  0.00     0.021 C 
ENDBRANCH  14  15
ENDBRANCH   1  14
TORSDOF 6
ENDMDL
MODEL 2
REMARK VINA RESULT:      -8.1      0.545      1.670
REMARK  6 active torsions:
REMARK  status: ('A' for Active; 'I' for Inactive)
REMARK    1  A    between atoms: S_10  and  C_4 
REMARK    2  A    between atoms: C_16  and  S_10 
REMARK    3  A    between atoms: C_11  and  C_14 
REMARK    4  A    between atoms: O_20  and  C_13 
REMARK    5  A    between atoms: C_14  and  C_16 
REMARK    6  A    between atoms: O_21  and  C_15 
ROOT
ATOM      1  C   UNL d   1      51.363  33.664  53.307  0.00  0.00     0.079 C 
ENDROOT
BRANCH   1   2
ATOM      2  C   UNL d   1      51.116  34.092  52.643  0.00  0.00     0.202 C 
ATOM      3  O   UNL d   1      51.623  34.153  51.979  0.00  0.00    -0.286 OA
BRANCH   2   4
ATOM      4  C   UNL d   1      50.373  34.463  52.627  0.00  0.00     0.042 A 
ATOM      5  C   UNL d   1      49.917  34.469  51.933  0.00  0.00     0.029 A 
ATOM      6  C   UNL d   1      49.173  34.844  51.924  0.00  0.00     0.116 A 
ATOM      7  C   UNL d   1      48.895  35.207  52.613  0.00  0.00     0.116 A 
ATOM      8  C   UNL d   1      49.340  35.204  53.298  0.00  0.00     0.026 A 
ATOM      9  C   UNL d   1      50.085  34.829  53.307  0.00  0.00     0.005 A 
BRANCH   6  10
ATOM     10  O   UNL d   1      48.716  34.852  51.234  0.00  0.00    -0.326 OA
ATOM     11  C   UNL d   1      48.768  34.214  50.699  0.00  0.00     0.181 C 
ENDBRANCH   6  10
BRANCH   7  12
ATOM     12  O   UNL d   1      48.148  35.585  52.611  0.00  0.00    -0.326 OA
ATOM     13  C   UNL d   1      47.928  36.061  53.258  0.00  0.00     0.181 C 
ENDBRANCH   7  12
ENDBRANCH   2   4
ENDBRANCH   1   2
BRANCH   1  14
ATOM     14  S   UNL d   1      52.106  33.311  53.317  0.00  0.00    -0.063 SA
BRANCH  14  15
ATOM     15  C   UNL d   1      52.790  32.938  53.620  0.00  0.00     0.132 A 
ATOM     16  N   UNL d   1      52.904  32.180  53.482  0.00  0.00    -0.050 N 
ATOM     17  C   UNL d   1      53.552  31.834  53.770  0.00  0.00     0.753 A 
ATOM     18  N   UNL d   1      52.507  31.006  52.930  0.00  0.00    -0.130 NA
ATOM     19  N   UNL d   1      53.682  31.073  53.641  0.00  0.00    -0.038 NA
ATOM     20  N   UNL d   1      54.063  32.249  54.185  0.00  0.00    -0.059 NA
ATOM     21  C   UNL d   1      53.152  30.663  53.218  0.00  0.00     0.201 A 
ATOM     22  C   UNL d   1      53.270  29.894  53.080  0.00  0.00     0.044 C 
ATOM     23  C   UNL d   1      53.942  33.011  54.319  0.00  0.00     0.102 A 
ATOM     24  C   UNL d   1      53.298  33.355  54.032  0.00  0.00     0.046 A 
ATOM     25  C   UNL d   1      54.466  33.424  54.740  0.00  0.00     0.021 C 
ENDBRANCH  14  15
ENDBRANCH   1  14
TORSDOF 6
ENDMDL
MODEL 3
REMARK VINA RESULT:      -7.6      2.579      5.222
REMARK  6 active torsions:
REMARK  status: ('A' for Active; 'I' for Inactive)
REMARK    1  A    between atoms: S_10  and  C_4 
REMARK    2  A    between atoms: C_16  and  S_10 
REMARK    3  A    between atoms: C_11  and  C_14 
REMARK    4  A    between atoms: O_20  and  C_13 
REMARK    5  A    between atoms: C_14  and  C_16 
REMARK    6  A    between atoms: O_21  and  C_15 
ROOT
ATOM      1  C   UNL d   1      50.761  34.045  52.947  0.00  0.00     0.079 C 
ENDROOT
BRANCH   1   2
ATOM      2  C   UNL d   1      51.550  34.074  52.698  0.00  0.00     0.202 C 
ATOM      3  O   UNL d   1      51.742  34.470  51.984  0.00  0.00    -0.286 OA
BRANCH   2   4
ATOM      4  C   UNL d   1      52.153  33.718  53.143  0.00  0.00     0.042 A 
ATOM      5  C   UNL d   1      52.378  32.932  53.002  0.00  0.00     0.029 A 
ATOM      6  C   UNL d   1      52.985  32.582  53.453  0.00  0.00     0.116 A 
ATOM      7  C   UNL d   1      53.358  33.026  54.042  0.00  0.00     0.116 A 
ATOM      8  C   UNL d   1      53.141  33.800  54.185  0.00  0.00     0.026 A 
ATOM      9  C   UNL d   1      52.534  34.151  53.733  0.00  0.00     0.005 A 
BRANCH   6  10
ATOM     10  O   UNL d   1      53.211  31.798  53.314  0.00  0.00    -0.326 OA
ATOM     11  C   UNL d   1      52.704  31.293  52.887  0.00  0.00     0.181 C 
ENDBRANCH   6  10
BRANCH   7  12
ATOM     12  O   UNL d   1      53.968  32.681  54.499  0.00  0.00    -0.326 OA
ATOM     13  C   UNL d   1      54.484  33.171  54.931  0.00  0.00     0.181 C 
ENDBRANCH   7  12
ENDBRANCH   2   4
ENDBRANCH   1   2
BRANCH   1  14
ATOM     14  S   UNL d   1      50.193  34.506  52.574  0.00  0.00    -0.063 SA
BRANCH  14  15
ATOM     15  C   UNL d   1      49.441  34.756  52.306  0.00  0.00     0.132 A 
ATOM     16  N   UNL d   1      49.020  35.242  52.745  0.00  0.00    -0.050 N 
ATOM     17  C   UNL d   1      48.312  35.474  52.486  0.00  0.00     0.753 A 
ATOM     18  N   UNL d   1      48.866  35.986  53.869  0.00  0.00    -0.130 NA
ATOM     19  N   UNL d   1      47.877  35.962  52.915  0.00  0.00    -0.038 NA
ATOM     20  N   UNL d   1      48.045  35.217  51.801  0.00  0.00    -0.059 NA
ATOM     21  C   UNL d   1      48.162  36.216  53.610  0.00  0.00     0.201 A 
ATOM     22  C   UNL d   1      47.733  36.709  54.054  0.00  0.00     0.044 C 
ATOM     23  C   UNL d   1      48.473  34.728  51.365  0.00  0.00     0.102 A 
ATOM     24  C   UNL d   1      49.178  34.498  51.623  0.00  0.00     0.046 A 
ATOM     25  C   UNL d   1      48.195  34.473  50.673  0.00  0.00     0.021 C 
ENDBRANCH  14  15
ENDBRANCH   1  14
TORSDOF 6
ENDMDL
MODEL 4
REMARK VINA RESULT:      -6.5      2.403      5.143
REMARK  6 active torsions:
REMARK  status: ('A' for Active; 'I' for Inactive)
REMARK    1  A    between atoms: S_10  and  C_4 
REMARK    2  A    between atoms: C_16  and  S_10 
REMARK    3  A    between atoms: C_11  and  C_14 
REMARK    4  A    between atoms: O_20  and  C_13 
REMARK    5  A    between atoms: C_14  and  C_16 
REMARK    6  A    between atoms: O_21  and  C_15 
ROOT
ATOM      1  C   UNL d   1      53.323  32.422  53.534  0.00  0.00     0.079 C 
ENDROOT
BRANCH   1   2
ATOM      2  C   UNL d   1      53.205  31.770  53.037  0.00  0.00     0.202 C 
ATOM      3  O   UNL d   1      53.120  31.890  52.212  0.00  0.00    -0.286 OA
BRANCH   2   4
ATOM      4  C   UNL d   1      53.168  31.000  53.344  0.00  0.00     0.042 A 
ATOM      5  C   UNL d   1      52.469  30.555  53.295  0.00  0.00     0.029 A 
ATOM      6  C   UNL d   1      52.440  29.782  53.605  0.00  0.00     0.116 A 
ATOM      7  C   UNL d   1      53.115  29.465  53.962  0.00  0.00     0.116 A 
ATOM      8  C   UNL d   1      53.806  29.898  54.013  0.00  0.00     0.026 A 
ATOM      9  C   UNL d   1      53.835  30.672  53.703  0.00  0.00     0.005 A 
BRANCH   6  10
ATOM     10  O   UNL d   1      51.744  29.337  53.557  0.00  0.00    -0.326 OA
ATOM     11  C   UNL d   1      51.007  29.715  53.652  0.00  0.00     0.181 C 
ENDBRANCH   6  10
BRANCH   7  12
ATOM     12  O   UNL d   1      53.093  28.690  54.276  0.00  0.00    -0.326 OA
ATOM     13  C   UNL d   1      53.692  28.443  54.800  0.00  0.00     0.181 C 
ENDBRANCH   7  12
ENDBRANCH   2   4
ENDBRANCH   1   2
BRANCH   1  14
ATOM     14  S   UNL d   1      52.883  33.107  53.427  0.00  0.00    -0.063 SA
BRANCH  14  15
ATOM     15  C   UNL d   1      52.590  33.878  53.567  0.00  0.00     0.132 A 
ATOM     16  N   UNL d   1      51.868  34.059  53.338  0.00  0.00    -0.050 N 
ATOM     17  C   UNL d   1      51.597  34.788  53.473  0.00  0.00     0.753 A 
ATOM     18  N   UNL d   1      50.693  33.717  52.752  0.00  0.00    -0.130 NA
ATOM     19  N   UNL d   1      50.874  34.986  53.250  0.00  0.00    -0.038 NA
ATOM     20  N   UNL d   1      52.049  35.311  53.830  0.00  0.00    -0.059 NA
ATOM     21  C   UNL d   1      50.425  34.443  52.887  0.00  0.00     0.201 A 
ATOM     22  C   UNL d   1      49.692  34.629  52.656  0.00  0.00     0.044 C 
ATOM     23  C   UNL d   1      52.774  35.122  54.058  0.00  0.00     0.102 A 
ATOM     24  C   UNL d   1      53.044  34.397  53.923  0.00  0.00     0.046 A 
ATOM     25  C   UNL d   1      53.226  35.658  54.418  0.00  0.00     0.021 C 
ENDBRANCH  14  15
ENDBRANCH   1  14
TORSDOF 6
ENDMDL
MODEL 5
REMARK VINA RESULT:      -6.1      2.494      4.993
REMARK  6 active torsions:
REMARK  status: ('A' for Active; 'I' for Inactive)
REMARK    1  A    between atoms: S_10  and  C_4 
REMARK    2  A    between atoms: C_16  and  S_10 
REMARK    3  A    between atoms: C_11  and  C_14 
REMARK    4  A    between atoms: O_20  and  C_13 
REMARK    5  A    between atoms: C_14  and  C_16 
REMARK    6  A    between atoms: O_21  and  C_15 
ROOT
ATOM      1  C   UNL d   1      52.568  32.035  52.919  0.00  0.00     0.079 C 
ENDROOT
BRANCH   1   2
ATOM      2  C   UNL d   1      53.275  31.678  53.161  0.00  0.00     0.202 C 
ATOM      3  O   UNL d   1      54.002  32.076  53.036  0.00  0.00    -0.286 OA
BRANCH   2   4
ATOM      4  C   UNL d   1      53.274  30.933  53.526  0.00  0.00     0.042 A 
ATOM      5  C   UNL d   1      52.938  30.274  53.147  0.00  0.00     0.029 A 
ATOM      6  C   UNL d   1      52.942  29.529  53.519  0.00  0.00     0.116 A 
ATOM      7  C   UNL d   1      53.283  29.454  54.269  0.00  0.00     0.116 A 
ATOM      8  C   UNL d   1      53.615  30.098  54.646  0.00  0.00     0.026 A 
ATOM      9  C   UNL d   1      53.612  30.844  54.273  0.00  0.00     0.005 A 
BRANCH   6  10
ATOM     10  O   UNL d   1      52.608  28.872  53.144  0.00  0.00    -0.326 OA
ATOM     11  C   UNL d   1      52.296  28.952  52.375  0.00  0.00     0.181 C 
ENDBRANCH   6  10
BRANCH   7  12
ATOM     12  O   UNL d   1      53.290  28.708  54.648  0.00  0.00    -0.326 OA
ATOM     13  C   UNL d   1      53.413  28.669  55.472  0.00  0.00     0.181 C 
ENDBRANCH   7  12
ENDBRANCH   2   4
ENDBRANCH   1   2
BRANCH   1  14
ATOM     14  S   UNL d   1      52.436  32.832  53.070  0.00  0.00    -0.063 SA
BRANCH  14  15
ATOM     15  C   UNL d   1      52.030  33.562  53.118  0.00  0.00     0.132 A 
ATOM     16  N   UNL d   1      52.347  34.150  53.519  0.00  0.00    -0.050 N 
ATOM     17  C   UNL d   1      51.959  34.836  53.560  0.00  0.00     0.753 A 
ATOM     18  N   UNL d   1      53.351  34.657  54.276  0.00  0.00    -0.130 NA
ATOM     19  N   UNL d   1      52.264  35.436  53.959  0.00  0.00    -0.038 NA
ATOM     20  N   UNL d   1      51.272  34.916  53.204  0.00  0.00    -0.059 NA
ATOM     21  C   UNL d   1      52.965  35.339  54.317  0.00  0.00     0.201 A 
ATOM     22  C   UNL d   1      53.284  35.937  54.723  0.00  0.00     0.044 C 
ATOM     23  C   UNL d   1      50.959  34.321  52.803  0.00  0.00     0.102 A 
ATOM     24  C   UNL d   1      51.345  33.639  52.762  0.00  0.00     0.046 A 
ATOM     25  C   UNL d   1      50.262  34.411  52.445  0.00  0.00     0.021 C 
ENDBRANCH  14  15
ENDBRANCH   1  14
TORSDOF 6
ENDMDL
MODEL 6
REMARK VINA RESULT:      -5.6      2.453      3.689
REMARK  6 active torsions:
REMARK  status: ('A' for Active; 'I' for Inactive)
REMARK    1  A    between atoms: S_10  and  C_4 
REMARK    2  A    between atoms: C_16  and  S_10 
REMARK    3  A    between atoms: C_11  and  C_14 
REMARK    4  A    between atoms: O_20  and  C_13 
REMARK    5  A    between atoms: C_14  and  C_16 
REMARK    6  A    between atoms: O_21  and  C_15 
ROOT
ATOM      1  C   UNL d   1      53.732  32.154  54.331  0.00  0.00     0.079 C 
ENDROOT
BRANCH   1   2
ATOM      2  C   UNL d   1      54.044  32.828  53.965  0.00  0.00     0.202 C 
ATOM      3  O   UNL d   1      54.725  32.757  53.482  0.00  0.00    -0.286 OA
BRANCH   2   4
ATOM      4  C   UNL d   1      53.692  33.573  54.068  0.00  0.00     0.042 A 
ATOM      5  C   UNL d   1      53.145  33.865  53.517  0.00  0.00     0.029 A 
ATOM      6  C   UNL d   1      52.796  34.613  53.628  0.00  0.00     0.116 A 
ATOM      7  C   UNL d   1      53.002  35.060  54.292  0.00  0.00     0.116 A 
ATOM      8  C   UNL d   1      53.541  34.778  54.838  0.00  0.00     0.026 A 
ATOM      9  C   UNL d   1      53.890  34.028  54.727  0.00  0.00     0.005 A 
BRANCH   6  10
ATOM     10  O   UNL d   1      52.250  34.907  53.080  0.00  0.00    -0.326 OA
ATOM     11  C   UNL d   1      51.847  34.377  52.578  0.00  0.00     0.181 C 
ENDBRANCH   6  10
BRANCH   7  12
ATOM     12  O   UNL d   1      52.656  35.813  54.410  0.00  0.00    -0.326 OA
ATOM     13  C   UNL d   1      53.012  36.350  54.938  0.00  0.00     0.181 C 
ENDBRANCH   7  12
ENDBRANCH   2   4
ENDBRANCH   1   2
BRANCH   1  14
ATOM     14  S   UNL d   1      53.681  31.446  53.918  0.00  0.00    -0.063 SA
BRANCH  14  15
ATOM     15  C   UNL d   1      53.411  30.685  53.702  0.00  0.00     0.132 A 
ATOM     16  N   UNL d   1      53.383  30.122  54.240  0.00  0.00    -0.050 N 
ATOM     17  C   UNL d   1      53.127  29.406  54.029  0.00  0.00     0.753 A 
ATOM     18  N   UNL d   1      53.573  29.694  55.512  0.00  0.00    -0.130 NA
ATOM     19  N   UNL d   1      53.093  28.830  54.557  0.00  0.00    -0.038 NA
ATOM     20  N   UNL d   1      52.909  29.272  53.294  0.00  0.00    -0.059 NA
ATOM     21  C   UNL d   1      53.319  28.981  55.302  0.00  0.00     0.201 A 
ATOM     22  C   UNL d   1      53.290  28.409  55.845  0.00  0.00     0.044 C 
ATOM     23  C   UNL d   1      52.939  29.841  52.759  0.00  0.00     0.102 A 
ATOM     24  C   UNL d   1      53.194  30.554  52.968  0.00  0.00     0.046 A 
ATOM     25  C   UNL d   1      52.716  29.697  52.016  0.00  0.00     0.021 C 
ENDBRANCH  14  15
ENDBRANCH   1  14
TORSDOF 6
ENDMDL
