MODEL 1
REMARK VINA RESULT:      -9.0      0.000      0.000
REMARK  1 active torsions:
REMARK  status: ('A' for Active; 'I' for Inactive)
REMARK    1  A    between atoms: C_13  and  N_5 
ROOT
ATOM      1  C   UNL d   1     -47.481  13.276  22.870  0.00  0.00     0.170 A 
ATOM      2  C   UNL d   1     -46.695  13.189  22.982  0.00  0.00     0.093 A 
ATOM      3  C   UNL d   1     -46.385  12.475  23.158  0.00  0.00     0.172 A 
ATOM      4  N   UNL d   1     -46.869  11.843  23.221  0.00  0.00    -0.190 N 
ATOM      5  N   UNL d   1     -47.789  13.999  22.693  0.00  0.00    -0.212 N 
ATOM      6  N   UNL d   1     -47.965  12.640  22.935  0.00  0.00    -0.205 NA
ATOM      7  N   UNL d   1     -45.595  12.393  23.269  0.00  0.00    -0.206 NA
ATOM      8  N   UNL d   1     -47.293  14.629  22.631  0.00  0.00    -0.162 NA
ATOM      9  N   UNL d   1     -46.563  11.129  23.397  0.00  0.00    -0.143 NA
ATOM     10  C   UNL d   1     -47.655  11.929  23.110  0.00  0.00     0.203 A 
ATOM     11  C   UNL d   1     -46.512  14.540  22.743  0.00  0.00     0.127 A 
ATOM     12  C   UNL d   1     -45.782  11.047  23.507  0.00  0.00     0.184 A 
ATOM     13  C   UNL d   1     -45.258  10.388  23.698  0.00  0.00     0.044 C 
ENDROOT
BRANCH   5  14
ATOM     14  C   UNL d   1     -48.596  14.083  22.579  0.00  0.00     0.085 A 
ATOM     15  C   UNL d   1     -49.058  14.389  23.171  0.00  0.00     0.019 A 
ATOM     16  C   UNL d   1     -49.877  14.475  23.055  0.00  0.00     0.002 A 
ATOM     17  C   UNL d   1     -50.380  14.799  23.677  0.00  0.00     0.000 C 
ATOM     18  C   UNL d   1     -50.222  14.246  22.334  0.00  0.00     0.000 A 
ATOM     19  C   UNL d   1     -49.734  13.935  21.738  0.00  0.00     0.002 A 
ATOM     20  C   UNL d   1     -51.063  14.329  22.203  0.00  0.00     0.000 C 
ATOM     21  C   UNL d   1     -48.928  13.854  21.859  0.00  0.00     0.019 A 
ENDBRANCH   5  14
TORSDOF 1
ENDMDL
MODEL 2
REMARK VINA RESULT:      -9.0      1.058      1.386
REMARK  1 active torsions:
REMARK  status: ('A' for Active; 'I' for Inactive)
REMARK    1  A    between atoms: C_13  and  N_5 
ROOT
ATOM      1  C   UNL d   1     -47.282  12.467  23.141  0.00  0.00     0.170 A 
ATOM      2  C   UNL d   1     -46.489  12.561  23.158  0.00  0.00     0.093 A 
ATOM      3  C   UNL d   1     -46.008  11.939  23.296  0.00  0.00     0.172 A 
ATOM      4  N   UNL d   1     -46.327  11.218  23.417  0.00  0.00    -0.190 N 
ATOM      5  N   UNL d   1     -47.764  13.098  23.001  0.00  0.00    -0.212 N 
ATOM      6  N   UNL d   1     -47.600  11.741  23.262  0.00  0.00    -0.205 NA
ATOM      7  N   UNL d   1     -45.213  12.039  23.312  0.00  0.00    -0.206 NA
ATOM      8  N   UNL d   1     -47.432  13.822  22.881  0.00  0.00    -0.162 NA
ATOM      9  N   UNL d   1     -45.850  10.594  23.554  0.00  0.00    -0.143 NA
ATOM     10  C   UNL d   1     -47.119  11.123  23.399  0.00  0.00     0.203 A 
ATOM     11  C   UNL d   1     -46.643  13.912  22.898  0.00  0.00     0.127 A 
ATOM     12  C   UNL d   1     -45.063  10.692  23.571  0.00  0.00     0.184 A 
ATOM     13  C   UNL d   1     -44.385  10.172  23.698  0.00  0.00     0.044 C 
ENDROOT
BRANCH   5  14
ATOM     14  C   UNL d   1     -48.576  12.997  22.984  0.00  0.00     0.085 A 
ATOM     15  C   UNL d   1     -48.964  12.956  22.273  0.00  0.00     0.019 A 
ATOM     16  C   UNL d   1     -49.789  12.853  22.256  0.00  0.00     0.002 A 
ATOM     17  C   UNL d   1     -50.213  12.808  21.506  0.00  0.00     0.000 C 
ATOM     18  C   UNL d   1     -50.216  12.792  22.967  0.00  0.00     0.000 A 
ATOM     19  C   UNL d   1     -49.804  12.836  23.687  0.00  0.00     0.002 A 
ATOM     20  C   UNL d   1     -51.064  12.686  22.963  0.00  0.00     0.000 C 
ATOM     21  C   UNL d   1     -48.991  12.937  23.696  0.00  0.00     0.019 A 
ENDBRANCH   5  14
TORSDOF 1
ENDMDL
MODEL 3
REMARK VINA RESULT:      -7.0      1.530      2.319
REMARK  1 active torsions:
REMARK  status: ('A' for Active; 'I' for Inactive)
REMARK    1  A    between atoms: C_13  and  N_5 
ROOT
ATOM      1  C   UNL d   1     -46.314  12.759  22.666  0.00  0.00     0.170 A 
ATOM      2  C   UNL d   1     -45.700  12.280  22.837  0.00  0.00     0.093 A 
ATOM      3  C   UNL d   1     -44.986  12.394  22.498  0.00  0.00     0.172 A 
ATOM      4  N   UNL d   1     -44.890  12.996  21.982  0.00  0.00    -0.190 N 
ATOM      5  N   UNL d   1     -47.032  12.640  23.010  0.00  0.00    -0.212 N 
ATOM      6  N   UNL d   1     -46.215  13.364  22.147  0.00  0.00    -0.205 NA
ATOM      7  N   UNL d   1     -44.372  11.909  22.673  0.00  0.00    -0.206 NA
ATOM      8  N   UNL d   1     -47.119  12.030  23.529  0.00  0.00    -0.162 NA
ATOM      9  N   UNL d   1     -44.179  13.114  21.642  0.00  0.00    -0.143 NA
ATOM     10  C   UNL d   1     -45.504  13.476  21.810  0.00  0.00     0.203 A 
ATOM     11  C   UNL d   1     -46.506  11.554  23.697  0.00  0.00     0.127 A 
ATOM     12  C   UNL d   1     -43.572  12.634  21.815  0.00  0.00     0.184 A 
ATOM     13  C   UNL d   1     -42.745  12.583  21.570  0.00  0.00     0.044 C 
ENDROOT
BRANCH   5  14
ATOM     14  C   UNL d   1     -47.660  13.135  22.831  0.00  0.00     0.085 A 
ATOM     15  C   UNL d   1     -48.282  12.857  22.392  0.00  0.00     0.019 A 
ATOM     16  C   UNL d   1     -48.919  13.359  22.210  0.00  0.00     0.002 A 
ATOM     17  C   UNL d   1     -49.587  13.076  21.743  0.00  0.00     0.000 C 
ATOM     18  C   UNL d   1     -48.918  14.146  22.479  0.00  0.00     0.000 A 
ATOM     19  C   UNL d   1     -48.273  14.416  22.928  0.00  0.00     0.002 A 
ATOM     20  C   UNL d   1     -49.567  14.673  22.298  0.00  0.00     0.000 C 
ATOM     21  C   UNL d   1     -47.649  13.915  23.103  0.00  0.00     0.019 A 
ENDBRANCH   5  14
TORSDOF 1
ENDMDL
MODEL 4
REMARK VINA RESULT:      -7.0      1.247      4.221
REMARK  1 active torsions:
REMARK  status: ('A' for Active; 'I' for Inactive)
REMARK    1  A    between atoms: C_13  and  N_5 
ROOT
ATOM      1  C   UNL d   1     -48.536  13.425  22.541  0.00  0.00     0.170 A 
ATOM      2  C   UNL d   1     -49.286  13.598  22.332  0.00  0.00     0.093 A 
ATOM      3  C   UNL d   1     -49.686  14.183  22.699  0.00  0.00     0.172 A 
ATOM      4  N   UNL d   1     -49.329  14.596  23.282  0.00  0.00    -0.190 N 
ATOM      5  N   UNL d   1     -48.135  12.833  22.168  0.00  0.00    -0.212 N 
ATOM      6  N   UNL d   1     -48.179  13.841  23.127  0.00  0.00    -0.205 NA
ATOM      7  N   UNL d   1     -50.440  14.354  22.486  0.00  0.00    -0.206 NA
ATOM      8  N   UNL d   1     -48.504  12.423  21.582  0.00  0.00    -0.162 NA
ATOM      9  N   UNL d   1     -49.726  15.180  23.651  0.00  0.00    -0.143 NA
ATOM     10  C   UNL d   1     -48.579  14.423  23.492  0.00  0.00     0.203 A 
ATOM     11  C   UNL d   1     -49.251  12.598  21.376  0.00  0.00     0.127 A 
ATOM     12  C   UNL d   1     -50.471  15.349  23.439  0.00  0.00     0.184 A 
ATOM     13  C   UNL d   1     -51.064  15.922  23.698  0.00  0.00     0.044 C 
ENDROOT
BRANCH   5  14
ATOM     14  C   UNL d   1     -47.365  12.659  22.386  0.00  0.00     0.085 A 
ATOM     15  C   UNL d   1     -47.218  12.037  22.885  0.00  0.00     0.019 A 
ATOM     16  C   UNL d   1     -46.436  11.860  23.107  0.00  0.00     0.002 A 
ATOM     17  C   UNL d   1     -46.266  11.201  23.638  0.00  0.00     0.000 C 
ATOM     18  C   UNL d   1     -45.807  12.320  22.817  0.00  0.00     0.000 A 
ATOM     19  C   UNL d   1     -45.975  12.953  22.307  0.00  0.00     0.002 A 
ATOM     20  C   UNL d   1     -44.999  12.147  23.038  0.00  0.00     0.000 C 
ATOM     21  C   UNL d   1     -46.747  13.121  22.093  0.00  0.00     0.019 A 
ENDBRANCH   5  14
TORSDOF 1
ENDMDL
MODEL 5
REMARK VINA RESULT:      -6.6      8.699      9.760
REMARK  1 active torsions:
REMARK  status: ('A' for Active; 'I' for Inactive)
REMARK    1  A    between atoms: C_13  and  N_5 
ROOT
ATOM      1  C   UNL d   1     -39.940  14.784  18.761  0.00  0.00     0.170 A 
ATOM      2  C   UNL d   1     -40.031  14.550  18.004  0.00  0.00     0.093 A 
ATOM      3  C   UNL d   1     -40.548  14.921  17.521  0.00  0.00     0.172 A 
ATOM      4  N   UNL d   1     -40.976  15.532  17.803  0.00  0.00    -0.190 N 
ATOM      5  N   UNL d   1     -39.417  14.407  19.245  0.00  0.00    -0.212 N 
ATOM      6  N   UNL d   1     -40.372  15.399  19.042  0.00  0.00    -0.205 NA
ATOM      7  N   UNL d   1     -40.635  14.681  16.761  0.00  0.00    -0.206 NA
ATOM      8  N   UNL d   1     -38.990  13.791  18.950  0.00  0.00    -0.162 NA
ATOM      9  N   UNL d   1     -41.493  15.905  17.325  0.00  0.00    -0.143 NA
ATOM     10  C   UNL d   1     -40.886  15.768  18.561  0.00  0.00     0.203 A 
ATOM     11  C   UNL d   1     -39.083  13.560  18.196  0.00  0.00     0.127 A 
ATOM     12  C   UNL d   1     -41.580  15.668  16.573  0.00  0.00     0.184 A 
ATOM     13  C   UNL d   1     -42.066  15.922  15.905  0.00  0.00     0.044 C 
ENDROOT
BRANCH   5  14
ATOM     14  C   UNL d   1     -39.328  14.651  20.021  0.00  0.00     0.085 A 
ATOM     15  C   UNL d   1     -38.718  15.147  20.221  0.00  0.00     0.019 A 
ATOM     16  C   UNL d   1     -38.627  15.395  21.010  0.00  0.00     0.002 A 
ATOM     17  C   UNL d   1     -37.982  15.922  21.236  0.00  0.00     0.000 C 
ATOM     18  C   UNL d   1     -39.161  15.135  21.592  0.00  0.00     0.000 A 
ATOM     19  C   UNL d   1     -39.780  14.628  21.370  0.00  0.00     0.002 A 
ATOM     20  C   UNL d   1     -39.078  15.384  22.406  0.00  0.00     0.000 C 
ATOM     21  C   UNL d   1     -39.863  14.388  20.592  0.00  0.00     0.019 A 
ENDBRANCH   5  14
TORSDOF 1
ENDMDL
MODEL 6
REMARK VINA RESULT:      -6.5      1.267      4.123
REMARK  1 active torsions:
REMARK  status: ('A' for Active; 'I' for Inactive)
REMARK    1  A    between atoms: C_13  and  N_5 
ROOT
ATOM      1  C   UNL d   1     -47.539  13.549  22.401  0.00  0.00     0.170 A 
ATOM      2  C   UNL d   1     -48.095  14.119  22.346  0.00  0.00     0.093 A 
ATOM      3  C   UNL d   1     -48.817  13.956  22.046  0.00  0.00     0.172 A 
ATOM      4  N   UNL d   1     -48.980  13.215  21.800  0.00  0.00    -0.190 N 
ATOM      5  N   UNL d   1     -46.812  13.718  22.705  0.00  0.00    -0.212 N 
ATOM      6  N   UNL d   1     -47.706  12.804  22.154  0.00  0.00    -0.205 NA
ATOM      7  N   UNL d   1     -49.372  14.532  21.992  0.00  0.00    -0.206 NA
ATOM      8  N   UNL d   1     -46.658  14.469  22.950  0.00  0.00    -0.162 NA
ATOM      9  N   UNL d   1     -49.700  13.048  21.500  0.00  0.00    -0.143 NA
ATOM     10  C   UNL d   1     -48.425  12.644  21.855  0.00  0.00     0.203 A 
ATOM     11  C   UNL d   1     -47.213  15.034  22.893  0.00  0.00     0.127 A 
ATOM     12  C   UNL d   1     -50.249  13.618  21.447  0.00  0.00     0.184 A 
ATOM     13  C   UNL d   1     -51.064  13.656  21.164  0.00  0.00     0.044 C 
ENDROOT
BRANCH   5  14
ATOM     14  C   UNL d   1     -46.245  13.129  22.760  0.00  0.00     0.085 A 
ATOM     15  C   UNL d   1     -45.594  13.149  22.277  0.00  0.00     0.019 A 
ATOM     16  C   UNL d   1     -45.018  12.552  22.333  0.00  0.00     0.002 A 
ATOM     17  C   UNL d   1     -44.320  12.561  21.825  0.00  0.00     0.000 C 
ATOM     18  C   UNL d   1     -45.110  11.935  22.883  0.00  0.00     0.000 A 
ATOM     19  C   UNL d   1     -45.782  11.930  23.370  0.00  0.00     0.002 A 
ATOM     20  C   UNL d   1     -44.525  11.315  22.950  0.00  0.00     0.000 C 
ATOM     21  C   UNL d   1     -46.345  12.522  23.310  0.00  0.00     0.019 A 
ENDBRANCH   5  14
TORSDOF 1
ENDMDL
MODEL 7
REMARK VINA RESULT:      -6.4      8.293     10.043
REMARK  1 active torsions:
REMARK  status: ('A' for Active; 'I' for Inactive)
REMARK    1  A    between atoms: C_13  and  N_5 
ROOT
ATOM      1  C   UNL d   1     -39.784  14.596  19.115  0.00  0.00     0.170 A 
ATOM      2  C   UNL d   1     -40.242  14.667  19.764  0.00  0.00     0.093 A 
ATOM      3  C   UNL d   1     -39.949  14.984  20.436  0.00  0.00     0.172 A 
ATOM      4  N   UNL d   1     -39.191  15.232  20.454  0.00  0.00    -0.190 N 
ATOM      5  N   UNL d   1     -40.083  14.274  18.439  0.00  0.00    -0.212 N 
ATOM      6  N   UNL d   1     -39.021  14.846  19.135  0.00  0.00    -0.205 NA
ATOM      7  N   UNL d   1     -40.414  15.053  21.086  0.00  0.00    -0.206 NA
ATOM      8  N   UNL d   1     -40.849  14.028  18.431  0.00  0.00    -0.162 NA
ATOM      9  N   UNL d   1     -38.896  15.550  21.123  0.00  0.00    -0.143 NA
ATOM     10  C   UNL d   1     -38.732  15.162  19.805  0.00  0.00     0.203 A 
ATOM     11  C   UNL d   1     -41.302  14.099  19.079  0.00  0.00     0.127 A 
ATOM     12  C   UNL d   1     -39.355  15.618  21.766  0.00  0.00     0.184 A 
ATOM     13  C   UNL d   1     -39.242  15.922  22.567  0.00  0.00     0.044 C 
ENDROOT
BRANCH   5  14
ATOM     14  C   UNL d   1     -39.609  14.204  17.774  0.00  0.00     0.085 A 
ATOM     15  C   UNL d   1     -39.151  13.542  17.673  0.00  0.00     0.019 A 
ATOM     16  C   UNL d   1     -38.669  13.470  16.999  0.00  0.00     0.002 A 
ATOM     17  C   UNL d   1     -38.177  12.772  16.879  0.00  0.00     0.000 C 
ATOM     18  C   UNL d   1     -38.658  14.076  16.429  0.00  0.00     0.000 A 
ATOM     19  C   UNL d   1     -39.133  14.747  16.548  0.00  0.00     0.002 A 
ATOM     20  C   UNL d   1     -38.167  14.014  15.732  0.00  0.00     0.000 C 
ATOM     21  C   UNL d   1     -39.604  14.811  17.215  0.00  0.00     0.019 A 
ENDBRANCH   5  14
TORSDOF 1
ENDMDL
MODEL 8
REMARK VINA RESULT:      -6.4      8.376      9.909
REMARK  1 active torsions:
REMARK  status: ('A' for Active; 'I' for Inactive)
REMARK    1  A    between atoms: C_13  and  N_5 
ROOT
ATOM      1  C   UNL d   1     -39.764  15.058  18.070  0.00  0.00     0.170 A 
ATOM      2  C   UNL d   1     -39.855  15.104  17.279  0.00  0.00     0.093 A 
ATOM      3  C   UNL d   1     -39.355  14.721  16.788  0.00  0.00     0.172 A 
ATOM      4  N   UNL d   1     -38.759  14.289  17.096  0.00  0.00    -0.190 N 
ATOM      5  N   UNL d   1     -40.271  15.446  18.562  0.00  0.00    -0.212 N 
ATOM      6  N   UNL d   1     -39.163  14.623  18.378  0.00  0.00    -0.205 NA
ATOM      7  N   UNL d   1     -39.451  14.769  15.993  0.00  0.00    -0.206 NA
ATOM      8  N   UNL d   1     -40.869  15.879  18.241  0.00  0.00    -0.162 NA
ATOM      9  N   UNL d   1     -38.258  13.906  16.610  0.00  0.00    -0.143 NA
ATOM     10  C   UNL d   1     -38.667  14.243  17.888  0.00  0.00     0.203 A 
ATOM     11  C   UNL d   1     -40.958  15.922  17.453  0.00  0.00     0.127 A 
ATOM     12  C   UNL d   1     -38.353  13.954  15.824  0.00  0.00     0.184 A 
ATOM     13  C   UNL d   1     -37.940  13.630  15.137  0.00  0.00     0.044 C 
ENDROOT
BRANCH   5  14
ATOM     14  C   UNL d   1     -40.173  15.396  19.373  0.00  0.00     0.085 A 
ATOM     15  C   UNL d   1     -40.580  14.837  19.796  0.00  0.00     0.019 A 
ATOM     16  C   UNL d   1     -40.480  14.786  20.621  0.00  0.00     0.002 A 
ATOM     17  C   UNL d   1     -40.907  14.195  21.082  0.00  0.00     0.000 C 
ATOM     18  C   UNL d   1     -39.964  15.309  21.010  0.00  0.00     0.000 A 
ATOM     19  C   UNL d   1     -39.555  15.876  20.562  0.00  0.00     0.002 A 
ATOM     20  C   UNL d   1     -39.853  15.267  21.857  0.00  0.00     0.000 C 
ATOM     21  C   UNL d   1     -39.658  15.920  19.751  0.00  0.00     0.019 A 
ENDBRANCH   5  14
TORSDOF 1
ENDMDL
MODEL 9
REMARK VINA RESULT:      -6.1      8.204      9.206
REMARK  1 active torsions:
REMARK  status: ('A' for Active; 'I' for Inactive)
REMARK    1  A    between atoms: C_13  and  N_5 
ROOT
ATOM      1  C   UNL d   1     -39.768  14.817  20.362  0.00  0.00     0.170 A 
ATOM      2  C   UNL d   1     -39.825  14.932  21.149  0.00  0.00     0.093 A 
ATOM      3  C   UNL d   1     -39.384  14.502  21.657  0.00  0.00     0.172 A 
ATOM      4  N   UNL d   1     -38.882  13.951  21.370  0.00  0.00    -0.190 N 
ATOM      5  N   UNL d   1     -40.215  15.253  19.853  0.00  0.00    -0.212 N 
ATOM      6  N   UNL d   1     -39.262  14.263  20.076  0.00  0.00    -0.205 NA
ATOM      7  N   UNL d   1     -39.445  14.621  22.448  0.00  0.00    -0.206 NA
ATOM      8  N   UNL d   1     -40.717  15.806  20.152  0.00  0.00    -0.162 NA
ATOM      9  N   UNL d   1     -38.440  13.520  21.874  0.00  0.00    -0.143 NA
ATOM     10  C   UNL d   1     -38.824  13.835  20.583  0.00  0.00     0.203 A 
ATOM     11  C   UNL d   1     -40.772  15.918  20.936  0.00  0.00     0.127 A 
ATOM     12  C   UNL d   1     -38.500  13.638  22.656  0.00  0.00     0.184 A 
ATOM     13  C   UNL d   1     -38.129  13.294  23.356  0.00  0.00     0.044 C 
ENDROOT
BRANCH   5  14
ATOM     14  C   UNL d   1     -40.152  15.131  19.045  0.00  0.00     0.085 A 
ATOM     15  C   UNL d   1     -39.636  15.578  18.607  0.00  0.00     0.019 A 
ATOM     16  C   UNL d   1     -39.573  15.454  17.787  0.00  0.00     0.002 A 
ATOM     17  C   UNL d   1     -39.028  15.922  17.310  0.00  0.00     0.000 C 
ATOM     18  C   UNL d   1     -40.039  14.872  17.417  0.00  0.00     0.000 A 
ATOM     19  C   UNL d   1     -40.563  14.424  17.880  0.00  0.00     0.002 A 
ATOM     20  C   UNL d   1     -39.983  14.736  16.575  0.00  0.00     0.000 C 
ATOM     21  C   UNL d   1     -40.619  14.552  18.687  0.00  0.00     0.019 A 
ENDBRANCH   5  14
TORSDOF 1
ENDMDL
