MODEL 1
REMARK VINA RESULT:      -7.8      0.000      0.000
REMARK  4 active torsions:
REMARK  status: ('A' for Active; 'I' for Inactive)
REMARK    1  A    between atoms: C_8  and  C_1 
REMARK    2  A    between atoms: N_11  and  C_9 
REMARK    3  A    between atoms: C_15  and  N_11 
REMARK    4  A    between atoms: C_16  and  N_11 
ROOT
ATOM      1  C   UNL d   1     -46.595  13.050  22.871  0.00  0.00     0.102 A 
ATOM      2  C   UNL d   1     -47.201  12.522  23.107  0.00  0.00     0.303 A 
ATOM      3  C   UNL d   1     -46.795  13.830  22.686  0.00  0.00     0.011 A 
ATOM      4  O   UNL d   1     -47.978  12.798  23.147  0.00  0.00    -0.273 OA
ATOM      5  C   UNL d   1     -48.172  13.571  22.962  0.00  0.00     0.105 A 
ATOM      6  C   UNL d   1     -47.566  14.099  22.726  0.00  0.00     0.023 A 
ATOM      7  C   UNL d   1     -48.931  13.828  23.004  0.00  0.00     0.042 A 
ATOM      8  C   UNL d   1     -49.128  14.604  22.820  0.00  0.00     0.066 A 
ATOM      9  O   UNL d   1     -47.019  11.733  23.298  0.00  0.00    -0.259 OA
ATOM     10  C   UNL d   1     -47.748  14.860  22.544  0.00  0.00     0.004 A 
ATOM     11  C   UNL d   1     -48.522  15.132  22.584  0.00  0.00     0.018 A 
ENDROOT
BRANCH   8  12
ATOM     12  N   UNL d   1     -49.915  14.861  22.866  0.00  0.00    -0.304 N 
BRANCH  12  13
ATOM     13  C   UNL d   1     -50.518  14.383  22.549  0.00  0.00     0.080 C 
ATOM     14  C   UNL d   1     -51.064  14.713  22.010  0.00  0.00     0.021 C 
ENDBRANCH  12  13
BRANCH  12  15
ATOM     15  C   UNL d   1     -50.096  15.572  23.216  0.00  0.00     0.080 C 
ATOM     16  C   UNL d   1     -50.741  15.651  23.696  0.00  0.00     0.021 C 
ENDBRANCH  12  15
ENDBRANCH   8  12
BRANCH   1  17
ATOM     17  C   UNL d   1     -45.806  12.790  22.826  0.00  0.00     0.201 C 
ATOM     18  O   UNL d   1     -45.503  12.264  23.399  0.00  0.00    -0.286 OA
ATOM     19  C   UNL d   1     -45.326  13.058  22.207  0.00  0.00     0.045 C 
ENDBRANCH   1  17
TORSDOF 4
ENDMDL
MODEL 2
REMARK VINA RESULT:      -6.7      1.345      2.136
REMARK  4 active torsions:
REMARK  status: ('A' for Active; 'I' for Inactive)
REMARK    1  A    between atoms: C_8  and  C_1 
REMARK    2  A    between atoms: N_11  and  C_9 
REMARK    3  A    between atoms: C_15  and  N_11 
REMARK    4  A    between atoms: C_16  and  N_11 
ROOT
ATOM      1  C   UNL d   1     -46.343  11.634  23.431  0.00  0.00     0.102 A 
ATOM      2  C   UNL d   1     -46.263  12.423  23.161  0.00  0.00     0.303 A 
ATOM      3  C   UNL d   1     -47.100  11.333  23.565  0.00  0.00     0.011 A 
ATOM      4  O   UNL d   1     -46.945  12.873  23.037  0.00  0.00    -0.273 OA
ATOM      5  C   UNL d   1     -47.693  12.571  23.170  0.00  0.00     0.105 A 
ATOM      6  C   UNL d   1     -47.773  11.782  23.440  0.00  0.00     0.023 A 
ATOM      7  C   UNL d   1     -48.348  13.018  23.045  0.00  0.00     0.042 A 
ATOM      8  C   UNL d   1     -49.100  12.716  23.178  0.00  0.00     0.066 A 
ATOM      9  O   UNL d   1     -45.509  12.745  23.021  0.00  0.00    -0.259 OA
ATOM     10  C   UNL d   1     -48.504  11.477  23.573  0.00  0.00     0.004 A 
ATOM     11  C   UNL d   1     -49.180  11.927  23.449  0.00  0.00     0.018 A 
ENDROOT
BRANCH   8  12
ATOM     12  N   UNL d   1     -49.772  13.185  23.047  0.00  0.00    -0.304 N 
BRANCH  12  13
ATOM     13  C   UNL d   1     -50.089  13.626  23.677  0.00  0.00     0.080 C 
ATOM     14  C   UNL d   1     -50.596  14.269  23.514  0.00  0.00     0.021 C 
ENDBRANCH  12  13
BRANCH  12  15
ATOM     15  C   UNL d   1     -50.116  13.214  22.311  0.00  0.00     0.080 C 
ATOM     16  C   UNL d   1     -50.911  13.326  22.224  0.00  0.00     0.021 C 
ENDBRANCH  12  15
ENDBRANCH   8  12
BRANCH   1  17
ATOM     17  C   UNL d   1     -45.669  11.166  23.562  0.00  0.00     0.201 C 
ATOM     18  O   UNL d   1     -44.909  11.512  23.557  0.00  0.00    -0.286 OA
ATOM     19  C   UNL d   1     -45.759  10.354  23.698  0.00  0.00     0.045 C 
ENDBRANCH   1  17
TORSDOF 4
ENDMDL
MODEL 3
REMARK VINA RESULT:      -6.4      2.115      3.936
REMARK  4 active torsions:
REMARK  status: ('A' for Active; 'I' for Inactive)
REMARK    1  A    between atoms: C_8  and  C_1 
REMARK    2  A    between atoms: N_11  and  C_9 
REMARK    3  A    between atoms: C_15  and  N_11 
REMARK    4  A    between atoms: C_16  and  N_11 
ROOT
ATOM      1  C   UNL d   1     -49.654  12.199  23.117  0.00  0.00     0.102 A 
ATOM      2  C   UNL d   1     -49.638  12.699  22.445  0.00  0.00     0.303 A 
ATOM      3  C   UNL d   1     -48.950  12.055  23.524  0.00  0.00     0.011 A 
ATOM      4  O   UNL d   1     -48.920  13.033  22.213  0.00  0.00    -0.273 OA
ATOM      5  C   UNL d   1     -48.224  12.888  22.619  0.00  0.00     0.105 A 
ATOM      6  C   UNL d   1     -48.240  12.387  23.290  0.00  0.00     0.023 A 
ATOM      7  C   UNL d   1     -47.531  13.218  22.383  0.00  0.00     0.042 A 
ATOM      8  C   UNL d   1     -46.832  13.074  22.789  0.00  0.00     0.066 A 
ATOM      9  O   UNL d   1     -50.337  12.856  22.022  0.00  0.00    -0.259 OA
ATOM     10  C   UNL d   1     -47.561  12.241  23.694  0.00  0.00     0.004 A 
ATOM     11  C   UNL d   1     -46.847  12.573  23.461  0.00  0.00     0.018 A 
ENDROOT
BRANCH   8  12
ATOM     12  N   UNL d   1     -46.121  13.419  22.539  0.00  0.00    -0.304 N 
BRANCH  12  13
ATOM     13  C   UNL d   1     -45.804  14.055  22.970  0.00  0.00     0.080 C 
ATOM     14  C   UNL d   1     -45.827  14.825  22.646  0.00  0.00     0.021 C 
ENDBRANCH  12  13
BRANCH  12  15
ATOM     15  C   UNL d   1     -45.737  13.139  21.879  0.00  0.00     0.080 C 
ATOM     16  C   UNL d   1     -44.964  12.908  21.909  0.00  0.00     0.021 C 
ENDBRANCH  12  15
ENDBRANCH   8  12
BRANCH   1  17
ATOM     17  C   UNL d   1     -50.368  11.854  23.367  0.00  0.00     0.201 C 
ATOM     18  O   UNL d   1     -50.490  11.032  23.284  0.00  0.00    -0.286 OA
ATOM     19  C   UNL d   1     -50.956  12.334  23.697  0.00  0.00     0.045 C 
ENDBRANCH   1  17
TORSDOF 4
ENDMDL
MODEL 4
REMARK VINA RESULT:      -6.0      8.628      9.401
REMARK  4 active torsions:
REMARK  status: ('A' for Active; 'I' for Inactive)
REMARK    1  A    between atoms: C_8  and  C_1 
REMARK    2  A    between atoms: N_11  and  C_9 
REMARK    3  A    between atoms: C_15  and  N_11 
REMARK    4  A    between atoms: C_16  and  N_11 
ROOT
ATOM      1  C   UNL d   1     -40.604  15.245  17.816  0.00  0.00     0.102 A 
ATOM      2  C   UNL d   1     -40.070  14.603  17.890  0.00  0.00     0.303 A 
ATOM      3  C   UNL d   1     -40.810  15.673  18.492  0.00  0.00     0.011 A 
ATOM      4  O   UNL d   1     -39.768  14.420  18.636  0.00  0.00    -0.273 OA
ATOM      5  C   UNL d   1     -39.974  14.845  19.303  0.00  0.00     0.105 A 
ATOM      6  C   UNL d   1     -40.507  15.487  19.229  0.00  0.00     0.023 A 
ATOM      7  C   UNL d   1     -39.673  14.657  20.023  0.00  0.00     0.042 A 
ATOM      8  C   UNL d   1     -39.878  15.084  20.694  0.00  0.00     0.066 A 
ATOM      9  O   UNL d   1     -39.851  14.161  17.220  0.00  0.00    -0.259 OA
ATOM     10  C   UNL d   1     -40.715  15.910  19.880  0.00  0.00     0.004 A 
ATOM     11  C   UNL d   1     -40.412  15.726  20.621  0.00  0.00     0.018 A 
ENDROOT
BRANCH   8  12
ATOM     12  N   UNL d   1     -39.563  14.883  21.434  0.00  0.00    -0.304 N 
BRANCH  12  13
ATOM     13  C   UNL d   1     -39.000  15.384  21.786  0.00  0.00     0.080 C 
ATOM     14  C   UNL d   1     -39.066  15.571  22.597  0.00  0.00     0.021 C 
ENDBRANCH  12  13
BRANCH  12  15
ATOM     15  C   UNL d   1     -39.801  14.203  21.812  0.00  0.00     0.080 C 
ATOM     16  C   UNL d   1     -39.266  13.707  22.160  0.00  0.00     0.021 C 
ENDBRANCH  12  15
ENDBRANCH   8  12
BRANCH   1  17
ATOM     17  C   UNL d   1     -40.919  15.445  17.073  0.00  0.00     0.201 C 
ATOM     18  O   UNL d   1     -41.675  15.170  16.849  0.00  0.00    -0.286 OA
ATOM     19  C   UNL d   1     -40.476  15.919  16.559  0.00  0.00     0.045 C 
ENDBRANCH   1  17
TORSDOF 4
ENDMDL
MODEL 5
REMARK VINA RESULT:      -5.8      1.593      3.990
REMARK  4 active torsions:
REMARK  status: ('A' for Active; 'I' for Inactive)
REMARK    1  A    between atoms: C_8  and  C_1 
REMARK    2  A    between atoms: N_11  and  C_9 
REMARK    3  A    between atoms: C_15  and  N_11 
REMARK    4  A    between atoms: C_16  and  N_11 
ROOT
ATOM      1  C   UNL d   1     -49.942  14.912  22.980  0.00  0.00     0.102 A 
ATOM      2  C   UNL d   1     -50.029  14.089  23.111  0.00  0.00     0.303 A 
ATOM      3  C   UNL d   1     -49.187  15.215  22.837  0.00  0.00     0.011 A 
ATOM      4  O   UNL d   1     -49.358  13.609  23.093  0.00  0.00    -0.273 OA
ATOM      5  C   UNL d   1     -48.612  13.913  22.952  0.00  0.00     0.105 A 
ATOM      6  C   UNL d   1     -48.525  14.736  22.821  0.00  0.00     0.023 A 
ATOM      7  C   UNL d   1     -47.966  13.436  22.937  0.00  0.00     0.042 A 
ATOM      8  C   UNL d   1     -47.216  13.740  22.795  0.00  0.00     0.066 A 
ATOM      9  O   UNL d   1     -50.781  13.765  23.256  0.00  0.00    -0.259 OA
ATOM     10  C   UNL d   1     -47.796  15.043  22.681  0.00  0.00     0.004 A 
ATOM     11  C   UNL d   1     -47.129  14.563  22.664  0.00  0.00     0.018 A 
ENDROOT
BRANCH   8  12
ATOM     12  N   UNL d   1     -46.555  13.240  22.782  0.00  0.00    -0.304 N 
BRANCH  12  13
ATOM     13  C   UNL d   1     -46.086  13.205  22.096  0.00  0.00     0.080 C 
ATOM     14  C   UNL d   1     -45.254  13.188  22.167  0.00  0.00     0.021 C 
ENDBRANCH  12  13
BRANCH  12  15
ATOM     15  C   UNL d   1     -46.367  12.789  23.432  0.00  0.00     0.080 C 
ATOM     16  C   UNL d   1     -46.219  11.998  23.365  0.00  0.00     0.021 C 
ENDBRANCH  12  15
ENDBRANCH   8  12
BRANCH   1  17
ATOM     17  C   UNL d   1     -50.606  15.412  22.994  0.00  0.00     0.201 C 
ATOM     18  O   UNL d   1     -51.065  15.522  22.304  0.00  0.00    -0.286 OA
ATOM     19  C   UNL d   1     -50.809  15.798  23.697  0.00  0.00     0.045 C 
ENDBRANCH   1  17
TORSDOF 4
ENDMDL
MODEL 6
REMARK VINA RESULT:      -5.8      7.964     10.277
REMARK  4 active torsions:
REMARK  status: ('A' for Active; 'I' for Inactive)
REMARK    1  A    between atoms: C_8  and  C_1 
REMARK    2  A    between atoms: N_11  and  C_9 
REMARK    3  A    between atoms: C_15  and  N_11 
REMARK    4  A    between atoms: C_16  and  N_11 
ROOT
ATOM      1  C   UNL d   1     -40.433  15.124  19.983  0.00  0.00     0.102 A 
ATOM      2  C   UNL d   1     -39.603  15.182  20.082  0.00  0.00     0.303 A 
ATOM      3  C   UNL d   1     -40.738  15.010  19.224  0.00  0.00     0.011 A 
ATOM      4  O   UNL d   1     -39.117  15.124  19.417  0.00  0.00    -0.273 OA
ATOM      5  C   UNL d   1     -39.422  15.011  18.667  0.00  0.00     0.105 A 
ATOM      6  C   UNL d   1     -40.253  14.953  18.568  0.00  0.00     0.023 A 
ATOM      7  C   UNL d   1     -38.940  14.956  18.027  0.00  0.00     0.042 A 
ATOM      8  C   UNL d   1     -39.244  14.843  17.273  0.00  0.00     0.066 A 
ATOM      9  O   UNL d   1     -39.277  15.297  20.839  0.00  0.00    -0.259 OA
ATOM     10  C   UNL d   1     -40.560  14.842  17.834  0.00  0.00     0.004 A 
ATOM     11  C   UNL d   1     -40.075  14.785  17.174  0.00  0.00     0.018 A 
ENDROOT
BRANCH   8  12
ATOM     12  N   UNL d   1     -38.738  14.787  16.618  0.00  0.00    -0.304 N 
BRANCH  12  13
ATOM     13  C   UNL d   1     -38.306  15.457  16.381  0.00  0.00     0.080 C 
ATOM     14  C   UNL d   1     -38.226  15.627  15.567  0.00  0.00     0.021 C 
ENDBRANCH  12  13
BRANCH  12  15
ATOM     15  C   UNL d   1     -38.665  14.086  16.213  0.00  0.00     0.080 C 
ATOM     16  C   UNL d   1     -37.941  13.785  16.021  0.00  0.00     0.021 C 
ENDBRANCH  12  15
ENDBRANCH   8  12
BRANCH   1  17
ATOM     17  C   UNL d   1     -40.939  15.180  20.641  0.00  0.00     0.201 C 
ATOM     18  O   UNL d   1     -41.153  14.495  21.067  0.00  0.00    -0.286 OA
ATOM     19  C   UNL d   1     -41.227  15.922  20.868  0.00  0.00     0.045 C 
ENDBRANCH   1  17
TORSDOF 4
ENDMDL
MODEL 7
REMARK VINA RESULT:      -5.5      8.630      9.485
REMARK  4 active torsions:
REMARK  status: ('A' for Active; 'I' for Inactive)
REMARK    1  A    between atoms: C_8  and  C_1 
REMARK    2  A    between atoms: N_11  and  C_9 
REMARK    3  A    between atoms: C_15  and  N_11 
REMARK    4  A    between atoms: C_16  and  N_11 
ROOT
ATOM      1  C   UNL d   1     -39.231  14.845  21.313  0.00  0.00     0.102 A 
ATOM      2  C   UNL d   1     -38.735  15.392  20.917  0.00  0.00     0.303 A 
ATOM      3  C   UNL d   1     -39.840  14.481  20.891  0.00  0.00     0.011 A 
ATOM      4  O   UNL d   1     -38.871  15.548  20.117  0.00  0.00    -0.273 OA
ATOM      5  C   UNL d   1     -39.475  15.185  19.703  0.00  0.00     0.105 A 
ATOM      6  C   UNL d   1     -39.972  14.639  20.099  0.00  0.00     0.023 A 
ATOM      7  C   UNL d   1     -39.598  15.346  18.926  0.00  0.00     0.042 A 
ATOM      8  C   UNL d   1     -40.205  14.982  18.508  0.00  0.00     0.066 A 
ATOM      9  O   UNL d   1     -38.115  15.769  21.325  0.00  0.00    -0.259 OA
ATOM     10  C   UNL d   1     -40.568  14.279  19.699  0.00  0.00     0.004 A 
ATOM     11  C   UNL d   1     -40.702  14.436  18.904  0.00  0.00     0.018 A 
ENDROOT
BRANCH   8  12
ATOM     12  N   UNL d   1     -40.325  15.153  17.705  0.00  0.00    -0.304 N 
BRANCH  12  13
ATOM     13  C   UNL d   1     -40.751  15.836  17.494  0.00  0.00     0.080 C 
ATOM     14  C   UNL d   1     -41.320  15.793  16.885  0.00  0.00     0.021 C 
ENDBRANCH  12  13
BRANCH  12  15
ATOM     15  C   UNL d   1     -40.029  14.660  17.130  0.00  0.00     0.080 C 
ATOM     16  C   UNL d   1     -39.554  14.941  16.540  0.00  0.00     0.021 C 
ENDBRANCH  12  15
ENDBRANCH   8  12
BRANCH   1  17
ATOM     17  C   UNL d   1     -39.109  14.675  22.117  0.00  0.00     0.201 C 
ATOM     18  O   UNL d   1     -39.344  15.222  22.703  0.00  0.00    -0.286 OA
ATOM     19  C   UNL d   1     -38.753  13.959  22.331  0.00  0.00     0.045 C 
ENDBRANCH   1  17
TORSDOF 4
ENDMDL
