MODEL 1
REMARK VINA RESULT:      33.5      0.000      0.000
REMARK  4 active torsions:
REMARK  status: ('A' for Active; 'I' for Inactive)
REMARK    1  A    between atoms: C_7  and  C_1 
REMARK    2  A    between atoms: O_10  and  C_2 
REMARK    3  A    between atoms: C_17  and  O_10 
REMARK    4  A    between atoms: C_19  and  C_12 
ROOT
ATOM      1  C   UNL d   1      46.086 -19.472  43.564  0.00  0.00     0.197 A 
ATOM      2  C   UNL d   1      46.282 -18.668  43.609  0.00  0.00     0.165 A 
ATOM      3  O   UNL d   1      46.048 -19.824  42.829  0.00  0.00    -0.301 OA
ATOM      4  C   UNL d   1      46.433 -18.239  42.918  0.00  0.00     0.222 A 
ATOM      5  C   UNL d   1      46.388 -18.614  42.206  0.00  0.00     0.064 A 
ATOM      6  C   UNL d   1      46.192 -19.418  42.161  0.00  0.00     0.106 A 
ATOM      7  C   UNL d   1      46.539 -18.185  41.515  0.00  0.00     0.008 A 
ATOM      8  C   UNL d   1      46.154 -19.770  41.426  0.00  0.00     0.067 A 
ATOM      9  C   UNL d   1      46.299 -19.364  40.742  0.00  0.00     0.198 A 
ATOM     10  C   UNL d   1      46.495 -18.560  40.787  0.00  0.00     0.039 A 
ATOM     11  O   UNL d   1      46.624 -17.457  42.963  0.00  0.00    -0.284 OA
ATOM     12  O   UNL d   1      46.256 -19.736  40.007  0.00  0.00    -0.286 OA
ENDROOT
BRANCH   2  13
ATOM     13  O   UNL d   1      46.326 -18.293  44.344  0.00  0.00    -0.302 OA
BRANCH  13  14
ATOM     14  C   UNL d   1      46.026 -17.534  44.438  0.00  0.00     0.100 A 
ATOM     15  C   UNL d   1      46.536 -16.889  44.332  0.00  0.00     0.025 A 
ATOM     16  C   UNL d   1      46.242 -16.145  44.424  0.00  0.00     0.002 A 
ATOM     17  C   UNL d   1      45.436 -16.038  44.623  0.00  0.00     0.000 A 
ATOM     18  C   UNL d   1      44.955 -16.672  44.723  0.00  0.00     0.002 A 
ATOM     19  C   UNL d   1      45.254 -17.431  44.629  0.00  0.00     0.025 A 
ENDBRANCH  13  14
ENDBRANCH   2  13
BRANCH   1  20
ATOM     20  C   UNL d   1      45.935 -19.898  44.253  0.00  0.00     0.442 C 
ATOM     21  F   UNL d   1      45.787 -20.326  44.955  0.00  0.00    -0.164 F 
ATOM     22  F   UNL d   1      46.556 -19.506  44.631  0.00  0.00    -0.164 F 
ATOM     23  F   UNL d   1      45.314 -20.289  43.873  0.00  0.00    -0.164 F 
ENDBRANCH   1  20
BRANCH  10  24
ATOM     24  C   UNL d   1      46.646 -18.131  40.097  0.00  0.00     0.003 C 
ATOM     25  C   UNL d   1      46.568 -17.311  40.100  0.00  0.00     0.000 C 
ENDBRANCH  10  24
TORSDOF 4
ENDMDL
