MODEL 1
REMARK VINA RESULT:     118.8      0.000      0.000
REMARK  4 active torsions:
REMARK  status: ('A' for Active; 'I' for Inactive)
REMARK    1  A    between atoms: C_7  and  C_1 
REMARK    2  A    between atoms: C_12  and  C_6 
REMARK       I    between atoms: N_11  and  C_7 
REMARK    3  A    between atoms: C_20  and  N_11 
REMARK       I    between atoms: C_13  and  N_14 
REMARK    4  A    between atoms: N_14  and  C_21 
ROOT
ATOM      1  C   UNL d   1     -52.336  24.772  33.930  0.00  0.00     0.108 A 
ATOM      2  C   UNL d   1     -51.388  25.521  33.736  0.00  0.00     0.044 A 
ATOM      3  C   UNL d   1     -51.616  24.818  33.851  0.00  0.00     0.116 A 
ATOM      4  C   UNL d   1     -52.007  25.966  33.740  0.00  0.00     0.112 A 
ATOM      5  S   UNL d   1     -52.606  25.504  33.861  0.00  0.00    -0.061 SA
ATOM      6  C   UNL d   1     -50.685  25.835  33.624  0.00  0.00     0.005 A 
ATOM      7  N   UNL d   1     -51.945  26.741  33.632  0.00  0.00    -0.239 NA
ATOM      8  C   UNL d   1     -50.613  26.601  33.516  0.00  0.00     0.018 A 
ATOM      9  C   UNL d   1     -51.233  27.046  33.520  0.00  0.00     0.082 A 
ATOM     10  N   UNL d   1     -51.097  24.048  33.900  0.00  0.00    -0.147 N 
ATOM     11  C   UNL d   1     -49.929  27.076  33.385  0.00  0.00     0.002 A 
ATOM     12  C   UNL d   1     -51.049  27.816  33.401  0.00  0.00     0.019 A 
ATOM     13  C   UNL d   1     -50.190  27.835  33.312  0.00  0.00     0.002 A 
ENDROOT
BRANCH   1  14
ATOM     14  C   UNL d   1     -52.915  23.965  34.094  0.00  0.00     0.287 C 
ATOM     15  N   UNL d   1     -53.457  23.470  34.757  0.00  0.00    -0.208 NA
ATOM     16  O   UNL d   1     -52.961  23.490  33.306  0.00  0.00    -0.265 OA
BRANCH  15  17
ATOM     17  C   UNL d   1     -53.531  23.759  35.542  0.00  0.00     0.085 A 
ATOM     18  C   UNL d   1     -52.868  24.105  35.898  0.00  0.00     0.021 A 
ATOM     19  C   UNL d   1     -52.922  24.400  36.684  0.00  0.00     0.021 A 
ATOM     20  C   UNL d   1     -53.637  24.347  37.106  0.00  0.00     0.085 A 
ATOM     21  C   UNL d   1     -54.293  24.000  36.744  0.00  0.00     0.021 A 
ATOM     22  C   UNL d   1     -54.240  23.707  35.965  0.00  0.00     0.021 A 
BRANCH  20  23
ATOM     23  N   UNL d   1     -53.679  24.708  38.047  0.00  0.00    -0.208 NA
ATOM     24  C   UNL d   1     -52.649  25.201  38.421  0.00  0.00     0.279 C 
ATOM     25  O   UNL d   1     -52.676  25.610  39.473  0.00  0.00    -0.265 OA
ATOM     26  C   UNL d   1     -51.435  25.362  37.809  0.00  0.00     0.068 C 
ENDBRANCH  20  23
ENDBRANCH  15  17
ENDBRANCH   1  14
BRANCH   6  27
ATOM     27  C   UNL d   1     -50.022  25.359  33.620  0.00  0.00     0.000 A 
ATOM     28  C   UNL d   1     -50.074  24.601  33.311  0.00  0.00     0.000 A 
ATOM     29  C   UNL d   1     -49.411  24.125  33.307  0.00  0.00     0.000 A 
ATOM     30  C   UNL d   1     -48.690  24.379  33.602  0.00  0.00     0.000 A 
ATOM     31  C   UNL d   1     -48.636  25.128  33.908  0.00  0.00     0.000 A 
ATOM     32  C   UNL d   1     -47.690  23.706  33.614  0.00  0.00     0.000 C 
ATOM     33  C   UNL d   1     -49.296  25.632  33.924  0.00  0.00     0.000 A 
ENDBRANCH   6  27
TORSDOF 4
ENDMDL
