MODEL 1
REMARK VINA RESULT:      -0.4      0.000      0.000
REMARK  11 active torsions:
REMARK  status: ('A' for Active; 'I' for Inactive)
REMARK    1  A    between atoms: C_4  and  C_1 
REMARK    2  A    between atoms: C_10  and  C_2 
REMARK    3  A    between atoms: C_16  and  C_9 
REMARK    4  A    between atoms: O_24  and  C_10 
REMARK    5  A    between atoms: O_18  and  C_14 
REMARK    6  A    between atoms: O_25  and  C_16 
REMARK    7  A    between atoms: C_26  and  C_17 
REMARK    8  A    between atoms: C_19  and  O_18 
REMARK    9  A    between atoms: C_29  and  O_24 
REMARK   10  A    between atoms: C_28  and  O_25 
REMARK   11  A    between atoms: C_30  and  C_26 
ROOT
ATOM      1  C   UNL d   1      32.751  21.490 -21.315  0.00  0.00     0.090 A 
ATOM      2  C   UNL d   1      32.693  21.835 -22.062  0.00  0.00     0.168 A 
ATOM      3  C   UNL d   1      32.871  20.670 -21.247  0.00  0.00     0.201 A 
ATOM      4  C   UNL d   1      32.934  20.195 -21.926  0.00  0.00     0.062 A 
ATOM      5  O   UNL d   1      32.756  21.359 -22.741  0.00  0.00    -0.301 OA
ATOM      6  C   UNL d   1      32.876  20.540 -22.673  0.00  0.00     0.105 A 
ATOM      7  C   UNL d   1      33.052  19.391 -21.851  0.00  0.00     0.007 A 
ATOM      8  C   UNL d   1      32.937  20.080 -23.345  0.00  0.00     0.050 A 
ATOM      9  C   UNL d   1      33.057  19.261 -23.277  0.00  0.00     0.105 A 
ATOM     10  C   UNL d   1      33.115  18.916 -22.530  0.00  0.00     0.023 A 
ATOM     11  O   UNL d   1      32.929  20.326 -20.500  0.00  0.00    -0.286 OA
ENDROOT
BRANCH   1  12
ATOM     12  C   UNL d   1      32.688  21.965 -20.636  0.00  0.00     0.105 A 
ATOM     13  O   UNL d   1      32.994  21.734 -19.904  0.00  0.00    -0.302 OA
ATOM     14  C   UNL d   1      32.832  22.329 -19.375  0.00  0.00     0.163 A 
ATOM     15  C   UNL d   1      32.432  22.925 -19.761  0.00  0.00     0.032 A 
ATOM     16  C   UNL d   1      32.335  22.702 -20.564  0.00  0.00     0.027 A 
BRANCH  14  17
ATOM     17  C   UNL d   1      33.039  22.338 -18.557  0.00  0.00     0.323 C 
ATOM     18  O   UNL d   1      33.233  21.609 -18.170  0.00  0.00    -0.257 OA
BRANCH  17  19
ATOM     19  O   UNL d   1      33.058  23.033 -18.129  0.00  0.00    -0.270 OA
BRANCH  19  20
ATOM     20  C   UNL d   1      32.381  23.354 -17.787  0.00  0.00     0.126 C 
ATOM     21  C   UNL d   1      32.395  23.648 -17.034  0.00  0.00     0.029 C 
ENDBRANCH  19  20
ENDBRANCH  17  19
ENDBRANCH  14  17
ENDBRANCH   1  12
BRANCH   2  22
ATOM     22  C   UNL d   1      32.569  22.678 -22.142  0.00  0.00     0.323 C 
ATOM     23  O   UNL d   1      32.058  23.057 -21.629  0.00  0.00    -0.257 OA
BRANCH  22  24
ATOM     24  O   UNL d   1      32.960  23.104 -22.730  0.00  0.00    -0.270 OA
BRANCH  24  25
ATOM     25  C   UNL d   1      32.535  23.638 -23.204  0.00  0.00     0.126 C 
ATOM     26  C   UNL d   1      32.713  23.702 -24.007  0.00  0.00     0.029 C 
ENDBRANCH  24  25
ENDBRANCH  22  24
ENDBRANCH   2  22
BRANCH  10  27
ATOM     27  C   UNL d   1      33.239  18.074 -22.453  0.00  0.00     0.002 C 
BRANCH  27  28
ATOM     28  C   UNL d   1      32.588  17.596 -22.282  0.00  0.00     0.000 C 
ATOM     29  C   UNL d   1      32.730  16.783 -22.125  0.00  0.00     0.000 C 
ENDBRANCH  27  28
ENDBRANCH  10  27
BRANCH   9  30
ATOM     30  O   UNL d   1      33.121  18.779 -23.982  0.00  0.00    -0.273 OA
BRANCH  30  31
ATOM     31  C   UNL d   1      32.661  18.953 -24.618  0.00  0.00     0.300 C 
ATOM     32  O   UNL d   1      32.370  18.507 -24.934  0.00  0.00    -0.259 OA
ATOM     33  C   UNL d   1      32.566  19.733 -24.865  0.00  0.00     0.074 C 
ENDBRANCH  30  31
ENDBRANCH   9  30
TORSDOF 11
ENDMDL
MODEL 2
REMARK VINA RESULT:      -0.3      1.736      5.934
REMARK  11 active torsions:
REMARK  status: ('A' for Active; 'I' for Inactive)
REMARK    1  A    between atoms: C_4  and  C_1 
REMARK    2  A    between atoms: C_10  and  C_2 
REMARK    3  A    between atoms: C_16  and  C_9 
REMARK    4  A    between atoms: O_24  and  C_10 
REMARK    5  A    between atoms: O_18  and  C_14 
REMARK    6  A    between atoms: O_25  and  C_16 
REMARK    7  A    between atoms: C_26  and  C_17 
REMARK    8  A    between atoms: C_19  and  O_18 
REMARK    9  A    between atoms: C_29  and  O_24 
REMARK   10  A    between atoms: C_28  and  O_25 
REMARK   11  A    between atoms: C_30  and  C_26 
ROOT
ATOM      1  C   UNL d   1      32.469  18.716 -23.424  0.00  0.00     0.090 A 
ATOM      2  C   UNL d   1      32.898  18.478 -22.761  0.00  0.00     0.168 A 
ATOM      3  C   UNL d   1      32.277  19.519 -23.524  0.00  0.00     0.201 A 
ATOM      4  C   UNL d   1      32.514  20.084 -22.962  0.00  0.00     0.062 A 
ATOM      5  O   UNL d   1      33.135  19.043 -22.199  0.00  0.00    -0.301 OA
ATOM      6  C   UNL d   1      32.944  19.845 -22.299  0.00  0.00     0.105 A 
ATOM      7  C   UNL d   1      32.322  20.869 -23.068  0.00  0.00     0.007 A 
ATOM      8  C   UNL d   1      33.180  20.393 -21.742  0.00  0.00     0.050 A 
ATOM      9  C   UNL d   1      32.989  21.195 -21.842  0.00  0.00     0.105 A 
ATOM     10  C   UNL d   1      32.559  21.434 -22.505  0.00  0.00     0.023 A 
ATOM     11  O   UNL d   1      31.848  19.758 -24.187  0.00  0.00    -0.286 OA
ENDROOT
BRANCH   1  12
ATOM     12  C   UNL d   1      32.232  18.153 -23.986  0.00  0.00     0.105 A 
ATOM     13  O   UNL d   1      31.479  17.812 -23.981  0.00  0.00    -0.302 OA
ATOM     14  C   UNL d   1      31.445  17.291 -24.605  0.00  0.00     0.163 A 
ATOM     15  C   UNL d   1      32.158  17.301 -24.997  0.00  0.00     0.032 A 
ATOM     16  C   UNL d   1      32.666  17.846 -24.611  0.00  0.00     0.027 A 
BRANCH  14  17
ATOM     17  C   UNL d   1      30.782  16.814 -24.819  0.00  0.00     0.323 C 
ATOM     18  O   UNL d   1      30.913  16.023 -25.096  0.00  0.00    -0.257 OA
BRANCH  17  19
ATOM     19  O   UNL d   1      30.019  17.096 -24.765  0.00  0.00    -0.270 OA
BRANCH  19  20
ATOM     20  C   UNL d   1      29.366  16.594 -24.766  0.00  0.00     0.126 C 
ATOM     21  C   UNL d   1      28.655  16.836 -24.466  0.00  0.00     0.029 C 
ENDBRANCH  19  20
ENDBRANCH  17  19
ENDBRANCH  14  17
ENDBRANCH   1  12
BRANCH   2  22
ATOM     22  C   UNL d   1      33.100  17.654 -22.650  0.00  0.00     0.323 C 
ATOM     23  O   UNL d   1      33.232  17.183 -23.303  0.00  0.00    -0.257 OA
BRANCH  22  24
ATOM     24  O   UNL d   1      33.161  17.338 -21.890  0.00  0.00    -0.270 OA
BRANCH  24  25
ATOM     25  C   UNL d   1      33.227  16.516 -21.789  0.00  0.00     0.126 C 
ATOM     26  C   UNL d   1      32.823  16.145 -21.173  0.00  0.00     0.029 C 
ENDBRANCH  24  25
ENDBRANCH  22  24
ENDBRANCH   2  22
BRANCH  10  27
ATOM     27  C   UNL d   1      32.359  22.257 -22.615  0.00  0.00     0.002 C 
BRANCH  27  28
ATOM     28  C   UNL d   1      32.613  22.635 -23.304  0.00  0.00     0.000 C 
ATOM     29  C   UNL d   1      32.277  23.382 -23.487  0.00  0.00     0.000 C 
ENDBRANCH  27  28
ENDBRANCH  10  27
BRANCH   9  30
ATOM     30  O   UNL d   1      33.237  21.769 -21.258  0.00  0.00    -0.273 OA
BRANCH  30  31
ATOM     31  C   UNL d   1      32.721  21.992 -20.683  0.00  0.00     0.300 C 
ATOM     32  O   UNL d   1      32.115  21.871 -20.732  0.00  0.00    -0.259 OA
ATOM     33  C   UNL d   1      32.987  22.390 -20.014  0.00  0.00     0.074 C 
ENDBRANCH  30  31
ENDBRANCH   9  30
TORSDOF 11
ENDMDL
