MODEL 1
REMARK VINA RESULT:      -3.8      0.000      0.000
REMARK  5 active torsions:
REMARK  status: ('A' for Active; 'I' for Inactive)
REMARK    1  A    between atoms: N_3  and  C_1 
REMARK       I    between atoms: C_7  and  N_3 
REMARK    2  A    between atoms: S_9  and  C_4 
REMARK    3  A    between atoms: C_8  and  C_7 
REMARK    4  A    between atoms: C_13  and  S_9 
REMARK    5  A    between atoms: C_16  and  C_13 
ROOT
ATOM      1  C   UNL d   1      58.317  -0.842  29.793  0.00  0.00     0.219 A 
ATOM      2  S   UNL d   1      57.920  -0.877  30.555  0.00  0.00    -0.019 SA
ATOM      3  C   UNL d   1      57.680  -0.062  30.737  0.00  0.00     0.165 A 
ATOM      4  N   UNL d   1      58.291  -0.152  29.612  0.00  0.00    -0.120 NA
ATOM      5  N   UNL d   1      57.892   0.327  30.207  0.00  0.00    -0.133 NA
ENDROOT
BRANCH   1   6
ATOM      6  N   UNL d   1      58.682  -1.556  29.340  0.00  0.00    -0.181 NA
ATOM      7  C   UNL d   1      59.359  -1.974  29.653  0.00  0.00     0.281 C 
ATOM      8  O   UNL d   1      59.622  -1.757  30.257  0.00  0.00    -0.265 OA
BRANCH   7   9
ATOM      9  C   UNL d   1      59.771  -2.614  29.352  0.00  0.00     0.058 A 
ATOM     10  C   UNL d   1      60.581  -2.678  29.484  0.00  0.00     0.006 A 
ATOM     11  C   UNL d   1      60.995  -3.329  29.176  0.00  0.00     0.012 A 
ATOM     12  C   UNL d   1      60.585  -3.906  28.740  0.00  0.00     0.058 A 
ATOM     13  C   UNL d   1      59.773  -3.823  28.618  0.00  0.00     0.012 A 
ATOM     14 CL   UNL d   1      61.105  -4.555  28.455  0.00  0.00    -0.082 Cl
ATOM     15  C   UNL d   1      59.371  -3.178  28.925  0.00  0.00     0.006 A 
ENDBRANCH   7   9
ENDBRANCH   1   6
BRANCH   3  16
ATOM     16  S   UNL d   1      57.244   0.323  31.432  0.00  0.00    -0.059 SA
BRANCH  16  17
ATOM     17  C   UNL d   1      56.844  -0.177  31.812  0.00  0.00     0.037 C 
BRANCH  17  18
ATOM     18  C   UNL d   1      56.495   0.030  32.520  0.00  0.00     0.007 A 
ATOM     19  C   UNL d   1      56.905   0.456  33.088  0.00  0.00     0.001 A 
ATOM     20  C   UNL d   1      56.552   0.666  33.806  0.00  0.00     0.007 A 
ATOM     21  C   UNL d   1      55.768   0.440  33.950  0.00  0.00     0.035 A 
ATOM     22  C   UNL d   1      55.341   0.001  33.371  0.00  0.00     0.007 A 
ATOM     23 BR   UNL d   1      55.304   0.682  34.823  0.00  0.00    -0.049 Br
ATOM     24  C   UNL d   1      55.731  -0.192  32.659  0.00  0.00     0.001 A 
ENDBRANCH  17  18
ENDBRANCH  16  17
ENDBRANCH   3  16
TORSDOF 5
ENDMDL
MODEL 2
REMARK VINA RESULT:      -1.7      3.234      6.105
REMARK  5 active torsions:
REMARK  status: ('A' for Active; 'I' for Inactive)
REMARK    1  A    between atoms: N_3  and  C_1 
REMARK       I    between atoms: C_7  and  N_3 
REMARK    2  A    between atoms: S_9  and  C_4 
REMARK    3  A    between atoms: C_8  and  C_7 
REMARK    4  A    between atoms: C_13  and  S_9 
REMARK    5  A    between atoms: C_16  and  C_13 
ROOT
ATOM      1  C   UNL d   1      56.956  -0.356  31.440  0.00  0.00     0.219 A 
ATOM      2  S   UNL d   1      57.505   0.007  30.888  0.00  0.00    -0.019 SA
ATOM      3  C   UNL d   1      57.784  -0.634  30.371  0.00  0.00     0.165 A 
ATOM      4  N   UNL d   1      56.947  -1.045  31.252  0.00  0.00    -0.120 NA
ATOM      5  N   UNL d   1      57.467  -1.208  30.584  0.00  0.00    -0.133 NA
ENDROOT
BRANCH   1   6
ATOM      6  N   UNL d   1      56.498   0.077  32.112  0.00  0.00    -0.181 NA
ATOM      7  C   UNL d   1      56.195  -0.355  32.784  0.00  0.00     0.281 C 
ATOM      8  O   UNL d   1      56.305  -1.039  32.805  0.00  0.00    -0.265 OA
BRANCH   7   9
ATOM      9  C   UNL d   1      55.777  -0.091  33.438  0.00  0.00     0.058 A 
ATOM     10  C   UNL d   1      56.013  -0.319  34.193  0.00  0.00     0.006 A 
ATOM     11  C   UNL d   1      55.587  -0.049  34.853  0.00  0.00     0.012 A 
ATOM     12  C   UNL d   1      54.929   0.447  34.740  0.00  0.00     0.058 A 
ATOM     13  C   UNL d   1      54.709   0.663  33.975  0.00  0.00     0.012 A 
ATOM     14 CL   UNL d   1      54.543   0.681  35.495  0.00  0.00    -0.082 Cl
ATOM     15  C   UNL d   1      55.134   0.393  33.328  0.00  0.00     0.006 A 
ENDBRANCH   7   9
ENDBRANCH   1   6
BRANCH   3  16
ATOM     16  S   UNL d   1      58.360  -0.670  29.672  0.00  0.00    -0.059 SA
BRANCH  16  17
ATOM     17  C   UNL d   1      59.061  -0.765  29.903  0.00  0.00     0.037 C 
BRANCH  17  18
ATOM     18  C   UNL d   1      59.535  -1.330  29.554  0.00  0.00     0.007 A 
ATOM     19  C   UNL d   1      59.338  -1.663  28.831  0.00  0.00     0.001 A 
ATOM     20  C   UNL d   1      59.819  -2.237  28.478  0.00  0.00     0.007 A 
ATOM     21  C   UNL d   1      60.510  -2.477  28.865  0.00  0.00     0.035 A 
ATOM     22  C   UNL d   1      60.718  -2.139  29.609  0.00  0.00     0.007 A 
ATOM     23 BR   UNL d   1      61.123  -3.181  28.458  0.00  0.00    -0.049 Br
ATOM     24  C   UNL d   1      60.209  -1.564  29.934  0.00  0.00     0.001 A 
ENDBRANCH  17  18
ENDBRANCH  16  17
ENDBRANCH   3  16
TORSDOF 5
ENDMDL
