MODEL 1
REMARK VINA RESULT:      48.9      0.000      0.000
REMARK  3 active torsions:
REMARK  status: ('A' for Active; 'I' for Inactive)
REMARK    1  A    between atoms: C_8  and  C_6 
REMARK    2  A    between atoms: C_9  and  C_8 
REMARK       I    between atoms: N_10  and  C_9 
REMARK    3  A    between atoms: C_13  and  N_10 
ROOT
ATOM      1  N   UNL d   1     -57.512 -98.934 -45.224  0.00  0.00    -0.207 NA
ATOM      2  N   UNL d   1     -56.955 -98.967 -43.642  0.00  0.00    -0.240 NA
ATOM      3  C   UNL d   1     -56.762 -98.989 -44.902  0.00  0.00     0.297 A 
ATOM      4  C   UNL d   1     -58.240 -98.877 -44.833  0.00  0.00     0.086 A 
ATOM      5  C   UNL d   1     -57.754 -98.906 -43.492  0.00  0.00     0.083 A 
ATOM      6  C   UNL d   1     -56.583 -99.000 -44.370  0.00  0.00     0.144 A 
ATOM      7  C   UNL d   1     -58.388 -98.861 -44.016  0.00  0.00     0.035 A 
ATOM      8  O   UNL d   1     -56.161 -99.038 -45.459  0.00  0.00    -0.264 OA
ATOM      9  C   UNL d   1     -59.160 -98.800 -43.746  0.00  0.00     0.003 A 
ATOM     10  C   UNL d   1     -58.873 -98.832 -45.367  0.00  0.00     0.019 A 
ATOM     11  C   UNL d   1     -57.898 -98.890 -42.677  0.00  0.00     0.019 A 
ATOM     12  C   UNL d   1     -58.679 -98.829 -42.394  0.00  0.00     0.002 A 
ATOM     13  C   UNL d   1     -59.645 -98.771 -45.083  0.00  0.00     0.002 A 
ATOM     14  C   UNL d   1     -59.308 -98.784 -42.929  0.00  0.00     0.000 A 
ATOM     15  C   UNL d   1     -59.789 -98.756 -44.281  0.00  0.00     0.000 A 
ENDROOT
BRANCH   6  16
ATOM     16  C   UNL d   1     -55.762 -99.062 -44.315  0.00  0.00     0.086 C 
BRANCH  16  17
ATOM     17  C   UNL d   1     -55.416 -99.258 -43.586  0.00  0.00     0.281 C 
ATOM     18  N   UNL d   1     -54.992 -99.957 -43.510  0.00  0.00    -0.208 NA
ATOM     19  O   UNL d   1     -55.495 -98.755 -42.936  0.00  0.00    -0.265 OA
BRANCH  18  20
ATOM     20  C   UNL d   1     -54.909-100.464 -44.153  0.00  0.00     0.085 A 
ATOM     21  C   UNL d   1     -54.934-101.282 -44.045  0.00  0.00     0.019 A 
ATOM     22  C   UNL d   1     -54.851-101.781 -44.686  0.00  0.00     0.002 A 
ATOM     23  C   UNL d   1     -54.876-102.590 -44.577  0.00  0.00     0.000 C 
ATOM     24  C   UNL d   1     -54.742-101.475 -45.442  0.00  0.00     0.000 A 
ATOM     25  C   UNL d   1     -54.716-100.653 -45.552  0.00  0.00     0.002 A 
ATOM     26  C   UNL d   1     -54.801-100.151 -44.902  0.00  0.00     0.019 A 
ENDBRANCH  18  20
ENDBRANCH  16  17
ENDBRANCH   6  16
TORSDOF 3
ENDMDL
