MODEL 1
REMARK VINA RESULT:      -7.7      0.000      0.000
REMARK  3 active torsions:
REMARK  status: ('A' for Active; 'I' for Inactive)
REMARK    1  A    between atoms: C_11  and  C_2 
REMARK    2  A    between atoms: C_12  and  C_3 
REMARK    3  A    between atoms: N_7  and  C_6 
ROOT
ATOM      1  C   UNL d   1     -46.962  12.339  23.077  0.00  0.00     0.078 A 
ATOM      2  C   UNL d   1     -48.205  12.973  22.767  0.00  0.00     0.029 A 
ATOM      3  C   UNL d   1     -48.610  12.318  23.076  0.00  0.00     0.102 A 
ATOM      4  C   UNL d   1     -47.370  11.687  23.385  0.00  0.00     0.187 A 
ATOM      5  O   UNL d   1     -48.189  11.684  23.381  0.00  0.00    -0.289 OA
ATOM      6  C   UNL d   1     -46.131  12.345  23.080  0.00  0.00     0.153 A 
ATOM      7  N   UNL d   1     -46.948  11.048  23.692  0.00  0.00    -0.200 NA
ATOM      8  N   UNL d   1     -45.721  11.703  23.388  0.00  0.00    -0.206 NA
ATOM      9  C   UNL d   1     -46.126  11.048  23.698  0.00  0.00     0.202 A 
ENDROOT
BRANCH   2  10
ATOM     10  C   UNL d   1     -48.627  13.611  22.460  0.00  0.00     0.002 A 
ATOM     11  C   UNL d   1     -48.797  14.253  22.934  0.00  0.00     0.000 A 
ATOM     12  C   UNL d   1     -49.221  14.891  22.622  0.00  0.00     0.000 A 
ATOM     13  C   UNL d   1     -49.472  14.880  21.832  0.00  0.00     0.000 A 
ATOM     14  C   UNL d   1     -49.297  14.227  21.357  0.00  0.00     0.000 A 
ATOM     15  C   UNL d   1     -48.874  13.588  21.668  0.00  0.00     0.000 A 
ENDBRANCH   2  10
BRANCH   3  16
ATOM     16  C   UNL d   1     -49.432  12.308  23.075  0.00  0.00     0.023 A 
ATOM     17  C   UNL d   1     -49.837  12.653  23.698  0.00  0.00     0.002 A 
ATOM     18  C   UNL d   1     -50.659  12.643  23.698  0.00  0.00     0.000 A 
ATOM     19  C   UNL d   1     -51.064  12.288  23.072  0.00  0.00     0.000 A 
ATOM     20  C   UNL d   1     -50.645  11.945  22.451  0.00  0.00     0.000 A 
ATOM     21  C   UNL d   1     -49.831  11.959  22.460  0.00  0.00     0.002 A 
ENDBRANCH   3  16
BRANCH   6  22
ATOM     22  N   UNL d   1     -45.725  12.995  22.773  0.00  0.00    -0.285 N 
ATOM     23  C   UNL d   1     -45.249  12.914  22.110  0.00  0.00     0.108 A 
ATOM     24  C   UNL d   1     -44.841  13.566  21.802  0.00  0.00     0.142 A 
ATOM     25  O   UNL d   1     -44.910  14.300  22.158  0.00  0.00    -0.300 OA
ATOM     26  C   UNL d   1     -45.395  14.383  22.835  0.00  0.00     0.142 A 
ATOM     27  C   UNL d   1     -45.799  13.736  23.139  0.00  0.00     0.108 A 
ENDBRANCH   6  22
TORSDOF 3
ENDMDL
MODEL 2
REMARK VINA RESULT:      -7.5      7.865      9.887
REMARK  3 active torsions:
REMARK  status: ('A' for Active; 'I' for Inactive)
REMARK    1  A    between atoms: C_11  and  C_2 
REMARK    2  A    between atoms: C_12  and  C_3 
REMARK    3  A    between atoms: N_7  and  C_6 
ROOT
ATOM      1  C   UNL d   1     -40.332  15.367  17.519  0.00  0.00     0.078 A 
ATOM      2  C   UNL d   1     -39.826  15.091  18.826  0.00  0.00     0.029 A 
ATOM      3  C   UNL d   1     -40.569  15.270  19.146  0.00  0.00     0.102 A 
ATOM      4  C   UNL d   1     -41.074  15.545  17.842  0.00  0.00     0.187 A 
ATOM      5  O   UNL d   1     -41.184  15.494  18.652  0.00  0.00    -0.289 OA
ATOM      6  C   UNL d   1     -40.217  15.417  16.698  0.00  0.00     0.153 A 
ATOM      7  N   UNL d   1     -41.693  15.770  17.346  0.00  0.00    -0.200 NA
ATOM      8  N   UNL d   1     -40.841  15.643  16.212  0.00  0.00    -0.206 NA
ATOM      9  C   UNL d   1     -41.585  15.822  16.532  0.00  0.00     0.202 A 
ENDROOT
BRANCH   2  10
ATOM     10  C   UNL d   1     -39.207  14.866  19.323  0.00  0.00     0.002 A 
ATOM     11  C   UNL d   1     -38.713  15.431  19.641  0.00  0.00     0.000 A 
ATOM     12  C   UNL d   1     -38.094  15.201  20.138  0.00  0.00     0.000 A 
ATOM     13  C   UNL d   1     -37.975  14.400  20.313  0.00  0.00     0.000 A 
ATOM     14  C   UNL d   1     -38.478  13.832  19.988  0.00  0.00     0.000 A 
ATOM     15  C   UNL d   1     -39.098  14.061  19.490  0.00  0.00     0.000 A 
ENDBRANCH   2  10
BRANCH   3  16
ATOM     16  C   UNL d   1     -40.687  15.222  19.959  0.00  0.00     0.023 A 
ATOM     17  C   UNL d   1     -40.569  15.887  20.421  0.00  0.00     0.002 A 
ATOM     18  C   UNL d   1     -40.687  15.840  21.233  0.00  0.00     0.000 A 
ATOM     19  C   UNL d   1     -40.922  15.125  21.572  0.00  0.00     0.000 A 
ATOM     20  C   UNL d   1     -41.038  14.461  21.096  0.00  0.00     0.000 A 
ATOM     21  C   UNL d   1     -40.919  14.518  20.292  0.00  0.00     0.002 A 
ENDBRANCH   3  16
BRANCH   6  22
ATOM     22  N   UNL d   1     -39.478  15.240  16.376  0.00  0.00    -0.285 N 
ATOM     23  C   UNL d   1     -39.278  14.465  16.191  0.00  0.00     0.108 A 
ATOM     24  C   UNL d   1     -38.536  14.287  15.867  0.00  0.00     0.142 A 
ATOM     25  O   UNL d   1     -37.994  14.885  15.729  0.00  0.00    -0.300 OA
ATOM     26  C   UNL d   1     -38.197  15.675  15.917  0.00  0.00     0.142 A 
ATOM     27  C   UNL d   1     -38.933  15.850  16.238  0.00  0.00     0.108 A 
ENDBRANCH   6  22
TORSDOF 3
ENDMDL
MODEL 3
REMARK VINA RESULT:      -7.5      1.230      2.692
REMARK  3 active torsions:
REMARK  status: ('A' for Active; 'I' for Inactive)
REMARK    1  A    between atoms: C_11  and  C_2 
REMARK    2  A    between atoms: C_12  and  C_3 
REMARK    3  A    between atoms: N_7  and  C_6 
ROOT
ATOM      1  C   UNL d   1     -47.487  13.552  22.951  0.00  0.00     0.078 A 
ATOM      2  C   UNL d   1     -48.915  13.530  22.944  0.00  0.00     0.029 A 
ATOM      3  C   UNL d   1     -48.923  14.359  22.935  0.00  0.00     0.102 A 
ATOM      4  C   UNL d   1     -47.498  14.381  22.942  0.00  0.00     0.187 A 
ATOM      5  O   UNL d   1     -48.217  14.775  22.934  0.00  0.00    -0.289 OA
ATOM      6  C   UNL d   1     -46.760  13.150  22.959  0.00  0.00     0.153 A 
ATOM      7  N   UNL d   1     -46.788  14.800  22.941  0.00  0.00    -0.200 NA
ATOM      8  N   UNL d   1     -46.058  13.577  22.958  0.00  0.00    -0.206 NA
ATOM      9  C   UNL d   1     -46.065  14.407  22.949  0.00  0.00     0.202 A 
ENDROOT
BRANCH   2  10
ATOM     10  C   UNL d   1     -49.626  13.112  22.945  0.00  0.00     0.002 A 
ATOM     11  C   UNL d   1     -50.006  12.953  22.242  0.00  0.00     0.000 A 
ATOM     12  C   UNL d   1     -50.718  12.533  22.247  0.00  0.00     0.000 A 
ATOM     13  C   UNL d   1     -51.045  12.274  22.964  0.00  0.00     0.000 A 
ATOM     14  C   UNL d   1     -50.656  12.437  23.673  0.00  0.00     0.000 A 
ATOM     15  C   UNL d   1     -49.943  12.858  23.669  0.00  0.00     0.000 A 
ENDBRANCH   2  10
BRANCH   3  16
ATOM     16  C   UNL d   1     -49.641  14.762  22.927  0.00  0.00     0.023 A 
ATOM     17  C   UNL d   1     -49.934  15.070  23.626  0.00  0.00     0.002 A 
ATOM     18  C   UNL d   1     -50.651  15.473  23.619  0.00  0.00     0.000 A 
ATOM     19  C   UNL d   1     -51.064  15.560  22.910  0.00  0.00     0.000 A 
ATOM     20  C   UNL d   1     -50.759  15.244  22.212  0.00  0.00     0.000 A 
ATOM     21  C   UNL d   1     -50.048  14.847  22.230  0.00  0.00     0.002 A 
ENDBRANCH   3  16
BRANCH   6  22
ATOM     22  N   UNL d   1     -46.748  12.325  22.969  0.00  0.00    -0.285 N 
ATOM     23  C   UNL d   1     -46.940  11.897  22.294  0.00  0.00     0.108 A 
ATOM     24  C   UNL d   1     -46.928  11.068  22.304  0.00  0.00     0.142 A 
ATOM     25  O   UNL d   1     -46.725  10.667  22.988  0.00  0.00    -0.300 OA
ATOM     26  C   UNL d   1     -46.530  11.103  23.676  0.00  0.00     0.142 A 
ATOM     27  C   UNL d   1     -46.542  11.924  23.665  0.00  0.00     0.108 A 
ENDBRANCH   6  22
TORSDOF 3
ENDMDL
MODEL 4
REMARK VINA RESULT:      -7.0      1.968      3.842
REMARK  3 active torsions:
REMARK  status: ('A' for Active; 'I' for Inactive)
REMARK    1  A    between atoms: C_11  and  C_2 
REMARK    2  A    between atoms: C_12  and  C_3 
REMARK    3  A    between atoms: N_7  and  C_6 
ROOT
ATOM      1  C   UNL d   1     -49.622  12.878  23.214  0.00  0.00     0.078 A 
ATOM      2  C   UNL d   1     -48.220  12.784  22.955  0.00  0.00     0.029 A 
ATOM      3  C   UNL d   1     -48.245  11.976  23.137  0.00  0.00     0.102 A 
ATOM      4  C   UNL d   1     -49.644  12.069  23.395  0.00  0.00     0.187 A 
ATOM      5  O   UNL d   1     -48.955  11.628  23.355  0.00  0.00    -0.289 OA
ATOM      6  C   UNL d   1     -50.319  13.328  23.254  0.00  0.00     0.153 A 
ATOM      7  N   UNL d   1     -50.357  11.718  23.614  0.00  0.00    -0.200 NA
ATOM      8  N   UNL d   1     -51.025  12.968  23.474  0.00  0.00    -0.206 NA
ATOM      9  C   UNL d   1     -51.050  12.159  23.656  0.00  0.00     0.202 A 
ENDROOT
BRANCH   2  10
ATOM     10  C   UNL d   1     -47.507  13.135  22.736  0.00  0.00     0.002 A 
ATOM     11  C   UNL d   1     -47.249  13.087  21.964  0.00  0.00     0.000 A 
ATOM     12  C   UNL d   1     -46.533  13.441  21.749  0.00  0.00     0.000 A 
ATOM     13  C   UNL d   1     -46.078  13.841  22.314  0.00  0.00     0.000 A 
ATOM     14  C   UNL d   1     -46.344  13.887  23.094  0.00  0.00     0.000 A 
ATOM     15  C   UNL d   1     -47.060  13.534  23.311  0.00  0.00     0.000 A 
ENDBRANCH   2  10
BRANCH   3  16
ATOM     16  C   UNL d   1     -47.558  11.526  23.099  0.00  0.00     0.023 A 
ATOM     17  C   UNL d   1     -47.435  11.038  22.454  0.00  0.00     0.002 A 
ATOM     18  C   UNL d   1     -46.748  10.588  22.414  0.00  0.00     0.000 A 
ATOM     19  C   UNL d   1     -46.193  10.634  23.023  0.00  0.00     0.000 A 
ATOM     20  C   UNL d   1     -46.328  11.130  23.668  0.00  0.00     0.000 A 
ATOM     21  C   UNL d   1     -47.011  11.572  23.698  0.00  0.00     0.002 A 
ENDBRANCH   3  16
BRANCH   6  22
ATOM     22  N   UNL d   1     -50.297  14.133  23.074  0.00  0.00    -0.285 N 
ATOM     23  C   UNL d   1     -50.403  14.391  22.301  0.00  0.00     0.108 A 
ATOM     24  C   UNL d   1     -50.382  15.199  22.120  0.00  0.00     0.142 A 
ATOM     25  O   UNL d   1     -50.254  15.751  22.712  0.00  0.00    -0.300 OA
ATOM     26  C   UNL d   1     -50.146  15.488  23.500  0.00  0.00     0.142 A 
ATOM     27  C   UNL d   1     -50.168  14.687  23.678  0.00  0.00     0.108 A 
ENDBRANCH   6  22
TORSDOF 3
ENDMDL
MODEL 5
REMARK VINA RESULT:      -6.9      8.031      9.738
REMARK  3 active torsions:
REMARK  status: ('A' for Active; 'I' for Inactive)
REMARK    1  A    between atoms: C_11  and  C_2 
REMARK    2  A    between atoms: C_12  and  C_3 
REMARK    3  A    between atoms: N_7  and  C_6 
ROOT
ATOM      1  C   UNL d   1     -39.065  14.132  18.474  0.00  0.00     0.078 A 
ATOM      2  C   UNL d   1     -39.430  14.431  19.823  0.00  0.00     0.029 A 
ATOM      3  C   UNL d   1     -38.798  13.966  20.091  0.00  0.00     0.102 A 
ATOM      4  C   UNL d   1     -38.434  13.668  18.746  0.00  0.00     0.187 A 
ATOM      5  O   UNL d   1     -38.309  13.591  19.552  0.00  0.00    -0.289 OA
ATOM      6  C   UNL d   1     -39.195  14.212  17.657  0.00  0.00     0.153 A 
ATOM      7  N   UNL d   1     -37.941  13.289  18.205  0.00  0.00    -0.200 NA
ATOM      8  N   UNL d   1     -38.697  13.830  17.126  0.00  0.00    -0.206 NA
ATOM      9  C   UNL d   1     -38.065  13.365  17.395  0.00  0.00     0.202 A 
ENDROOT
BRANCH   2  10
ATOM     10  C   UNL d   1     -39.923  14.810  20.364  0.00  0.00     0.002 A 
ATOM     11  C   UNL d   1     -39.710  15.534  20.672  0.00  0.00     0.000 A 
ATOM     12  C   UNL d   1     -40.207  15.910  21.215  0.00  0.00     0.000 A 
ATOM     13  C   UNL d   1     -40.919  15.554  21.447  0.00  0.00     0.000 A 
ATOM     14  C   UNL d   1     -41.129  14.820  21.132  0.00  0.00     0.000 A 
ATOM     15  C   UNL d   1     -40.633  14.442  20.589  0.00  0.00     0.000 A 
ENDBRANCH   2  10
BRANCH   3  16
ATOM     16  C   UNL d   1     -38.666  13.884  20.899  0.00  0.00     0.023 A 
ATOM     17  C   UNL d   1     -38.141  14.390  21.272  0.00  0.00     0.002 A 
ATOM     18  C   UNL d   1     -38.008  14.309  22.079  0.00  0.00     0.000 A 
ATOM     19  C   UNL d   1     -38.403  13.721  22.502  0.00  0.00     0.000 A 
ATOM     20  C   UNL d   1     -38.929  13.217  22.115  0.00  0.00     0.000 A 
ATOM     21  C   UNL d   1     -39.055  13.306  21.315  0.00  0.00     0.002 A 
ENDBRANCH   3  16
BRANCH   6  22
ATOM     22  N   UNL d   1     -39.823  14.674  17.386  0.00  0.00    -0.285 N 
ATOM     23  C   UNL d   1     -39.703  15.458  17.173  0.00  0.00     0.108 A 
ATOM     24  C   UNL d   1     -40.333  15.922  16.901  0.00  0.00     0.142 A 
ATOM     25  O   UNL d   1     -41.085  15.601  16.841  0.00  0.00    -0.300 OA
ATOM     26  C   UNL d   1     -41.207  14.802  17.058  0.00  0.00     0.142 A 
ATOM     27  C   UNL d   1     -40.582  14.343  17.328  0.00  0.00     0.108 A 
ENDBRANCH   6  22
TORSDOF 3
ENDMDL
MODEL 6
REMARK VINA RESULT:      -6.8      7.794      9.645
REMARK  3 active torsions:
REMARK  status: ('A' for Active; 'I' for Inactive)
REMARK    1  A    between atoms: C_11  and  C_2 
REMARK    2  A    between atoms: C_12  and  C_3 
REMARK    3  A    between atoms: N_7  and  C_6 
ROOT
ATOM      1  C   UNL d   1     -40.136  15.245  20.324  0.00  0.00     0.078 A 
ATOM      2  C   UNL d   1     -39.671  14.933  19.010  0.00  0.00     0.029 A 
ATOM      3  C   UNL d   1     -40.356  15.274  18.692  0.00  0.00     0.102 A 
ATOM      4  C   UNL d   1     -40.820  15.585  20.003  0.00  0.00     0.187 A 
ATOM      5  O   UNL d   1     -40.922  15.596  19.190  0.00  0.00    -0.289 OA
ATOM      6  C   UNL d   1     -40.030  15.232  21.148  0.00  0.00     0.153 A 
ATOM      7  N   UNL d   1     -41.390  15.908  20.504  0.00  0.00    -0.200 NA
ATOM      8  N   UNL d   1     -40.604  15.557  21.638  0.00  0.00    -0.206 NA
ATOM      9  C   UNL d   1     -41.290  15.899  21.320  0.00  0.00     0.202 A 
ENDROOT
BRANCH   2  10
ATOM     10  C   UNL d   1     -39.101  14.610  18.509  0.00  0.00     0.002 A 
ATOM     11  C   UNL d   1     -38.517  15.085  18.196  0.00  0.00     0.000 A 
ATOM     12  C   UNL d   1     -37.947  14.757  17.694  0.00  0.00     0.000 A 
ATOM     13  C   UNL d   1     -37.969  13.949  17.509  0.00  0.00     0.000 A 
ATOM     14  C   UNL d   1     -38.563  13.473  17.829  0.00  0.00     0.000 A 
ATOM     15  C   UNL d   1     -39.134  13.800  18.331  0.00  0.00     0.000 A 
ENDBRANCH   2  10
BRANCH   3  16
ATOM     16  C   UNL d   1     -40.466  15.289  17.877  0.00  0.00     0.023 A 
ATOM     17  C   UNL d   1     -40.886  14.685  17.519  0.00  0.00     0.002 A 
ATOM     18  C   UNL d   1     -40.996  14.699  16.704  0.00  0.00     0.000 A 
ATOM     19  C   UNL d   1     -40.682  15.319  16.259  0.00  0.00     0.000 A 
ATOM     20  C   UNL d   1     -40.260  15.922  16.631  0.00  0.00     0.000 A 
ATOM     21  C   UNL d   1     -40.157  15.899  17.439  0.00  0.00     0.002 A 
ENDBRANCH   3  16
BRANCH   6  22
ATOM     22  N   UNL d   1     -39.349  14.893  21.468  0.00  0.00    -0.285 N 
ATOM     23  C   UNL d   1     -38.652  15.325  21.518  0.00  0.00     0.108 A 
ATOM     24  C   UNL d   1     -37.968  14.984  21.840  0.00  0.00     0.142 A 
ATOM     25  O   UNL d   1     -37.981  14.212  22.111  0.00  0.00    -0.300 OA
ATOM     26  C   UNL d   1     -38.691  13.772  22.060  0.00  0.00     0.142 A 
ATOM     27  C   UNL d   1     -39.368  14.110  21.742  0.00  0.00     0.108 A 
ENDBRANCH   6  22
TORSDOF 3
ENDMDL
MODEL 7
REMARK VINA RESULT:      -6.3      7.705      9.770
REMARK  3 active torsions:
REMARK  status: ('A' for Active; 'I' for Inactive)
REMARK    1  A    between atoms: C_11  and  C_2 
REMARK    2  A    between atoms: C_12  and  C_3 
REMARK    3  A    between atoms: N_7  and  C_6 
ROOT
ATOM      1  C   UNL d   1     -39.352  15.186  18.129  0.00  0.00     0.078 A 
ATOM      2  C   UNL d   1     -39.825  15.193  19.477  0.00  0.00     0.029 A 
ATOM      3  C   UNL d   1     -39.041  15.182  19.747  0.00  0.00     0.102 A 
ATOM      4  C   UNL d   1     -38.569  15.175  18.402  0.00  0.00     0.187 A 
ATOM      5  O   UNL d   1     -38.423  15.174  19.208  0.00  0.00    -0.289 OA
ATOM      6  C   UNL d   1     -39.503  15.187  17.312  0.00  0.00     0.153 A 
ATOM      7  N   UNL d   1     -37.947  15.167  17.861  0.00  0.00    -0.200 NA
ATOM      8  N   UNL d   1     -38.875  15.178  16.781  0.00  0.00    -0.206 NA
ATOM      9  C   UNL d   1     -38.091  15.168  17.051  0.00  0.00     0.202 A 
ENDROOT
BRANCH   2  10
ATOM     10  C   UNL d   1     -40.447  15.201  20.018  0.00  0.00     0.002 A 
ATOM     11  C   UNL d   1     -40.759  15.912  20.268  0.00  0.00     0.000 A 
ATOM     12  C   UNL d   1     -41.383  15.916  20.811  0.00  0.00     0.000 A 
ATOM     13  C   UNL d   1     -41.690  15.203  21.101  0.00  0.00     0.000 A 
ATOM     14  C   UNL d   1     -41.370  14.486  20.844  0.00  0.00     0.000 A 
ATOM     15  C   UNL d   1     -40.746  14.481  20.301  0.00  0.00     0.000 A 
ENDBRANCH   2  10
BRANCH   3  16
ATOM     16  C   UNL d   1     -38.887  15.181  20.555  0.00  0.00     0.023 A 
ATOM     17  C   UNL d   1     -38.796  15.894  20.946  0.00  0.00     0.002 A 
ATOM     18  C   UNL d   1     -38.642  15.893  21.754  0.00  0.00     0.000 A 
ATOM     19  C   UNL d   1     -38.580  15.177  22.158  0.00  0.00     0.000 A 
ATOM     20  C   UNL d   1     -38.674  14.464  21.753  0.00  0.00     0.000 A 
ATOM     21  C   UNL d   1     -38.826  14.476  20.953  0.00  0.00     0.002 A 
ENDBRANCH   3  16
BRANCH   6  22
ATOM     22  N   UNL d   1     -40.282  15.198  17.040  0.00  0.00    -0.285 N 
ATOM     23  C   UNL d   1     -40.729  14.509  17.028  0.00  0.00     0.108 A 
ATOM     24  C   UNL d   1     -41.512  14.520  16.755  0.00  0.00     0.142 A 
ATOM     25  O   UNL d   1     -41.847  15.219  16.493  0.00  0.00    -0.300 OA
ATOM     26  C   UNL d   1     -41.391  15.921  16.504  0.00  0.00     0.142 A 
ATOM     27  C   UNL d   1     -40.616  15.910  16.775  0.00  0.00     0.108 A 
ENDBRANCH   6  22
TORSDOF 3
ENDMDL
MODEL 8
REMARK VINA RESULT:      -4.8      1.809      4.423
REMARK  3 active torsions:
REMARK  status: ('A' for Active; 'I' for Inactive)
REMARK    1  A    between atoms: C_11  and  C_2 
REMARK    2  A    between atoms: C_12  and  C_3 
REMARK    3  A    between atoms: N_7  and  C_6 
ROOT
ATOM      1  C   UNL d   1     -48.300  14.286  22.563  0.00  0.00     0.078 A 
ATOM      2  C   UNL d   1     -47.487  13.117  22.687  0.00  0.00     0.029 A 
ATOM      3  C   UNL d   1     -46.816  13.572  22.516  0.00  0.00     0.102 A 
ATOM      4  C   UNL d   1     -47.627  14.738  22.393  0.00  0.00     0.187 A 
ATOM      5  O   UNL d   1     -46.892  14.375  22.372  0.00  0.00    -0.289 OA
ATOM      6  C   UNL d   1     -49.047  14.650  22.586  0.00  0.00     0.153 A 
ATOM      7  N   UNL d   1     -47.703  15.546  22.248  0.00  0.00    -0.200 NA
ATOM      8  N   UNL d   1     -49.111  15.456  22.440  0.00  0.00    -0.206 NA
ATOM      9  C   UNL d   1     -48.439  15.912  22.269  0.00  0.00     0.202 A 
ENDROOT
BRANCH   2  10
ATOM     10  C   UNL d   1     -47.411  12.309  22.832  0.00  0.00     0.002 A 
ATOM     11  C   UNL d   1     -47.137  12.049  23.555  0.00  0.00     0.000 A 
ATOM     12  C   UNL d   1     -47.062  11.238  23.696  0.00  0.00     0.000 A 
ATOM     13  C   UNL d   1     -47.264  10.690  23.108  0.00  0.00     0.000 A 
ATOM     14  C   UNL d   1     -47.541  10.959  22.378  0.00  0.00     0.000 A 
ATOM     15  C   UNL d   1     -47.617  11.770  22.235  0.00  0.00     0.000 A 
ENDBRANCH   2  10
BRANCH   3  16
ATOM     16  C   UNL d   1     -46.075  13.216  22.493  0.00  0.00     0.023 A 
ATOM     17  C   UNL d   1     -45.739  13.039  21.768  0.00  0.00     0.002 A 
ATOM     18  C   UNL d   1     -44.998  12.683  21.743  0.00  0.00     0.000 A 
ATOM     19  C   UNL d   1     -44.605  12.508  22.447  0.00  0.00     0.000 A 
ATOM     20  C   UNL d   1     -44.954  12.690  23.172  0.00  0.00     0.000 A 
ATOM     21  C   UNL d   1     -45.688  13.043  23.186  0.00  0.00     0.002 A 
ENDBRANCH   3  16
BRANCH   6  22
ATOM     22  N   UNL d   1     -49.717  14.200  22.755  0.00  0.00    -0.285 N 
ATOM     23  C   UNL d   1     -50.088  13.765  22.166  0.00  0.00     0.108 A 
ATOM     24  C   UNL d   1     -50.762  13.313  22.336  0.00  0.00     0.142 A 
ATOM     25  O   UNL d   1     -51.064  13.296  23.096  0.00  0.00    -0.300 OA
ATOM     26  C   UNL d   1     -50.686  13.739  23.698  0.00  0.00     0.142 A 
ATOM     27  C   UNL d   1     -50.019  14.186  23.528  0.00  0.00     0.108 A 
ENDBRANCH   6  22
TORSDOF 3
ENDMDL
