MODEL 1
REMARK VINA RESULT:      -5.6      0.000      0.000
REMARK  3 active torsions:
REMARK  status: ('A' for Active; 'I' for Inactive)
REMARK    1  A    between atoms: C_2  and  N_1 
REMARK    2  A    between atoms: C_4  and  N_1 
REMARK    3  A    between atoms: C_3  and  C_2 
ROOT
ATOM      1  N   UNL d   1      57.154  -0.535  31.348  0.00  0.00    -0.182 N 
ATOM      2  O   UNL d   1      57.229  -1.282  31.002  0.00  0.00    -0.080 OA
ENDROOT
BRANCH   1   3
ATOM      3  C   UNL d   1      57.598   0.098  31.058  0.00  0.00     0.133 C 
BRANCH   3   4
ATOM      4  C   UNL d   1      58.061   0.003  30.385  0.00  0.00     0.120 A 
ATOM      5  O   UNL d   1      57.933  -0.413  29.678  0.00  0.00    -0.304 OA
ATOM      6  C   UNL d   1      58.599  -0.309  29.195  0.00  0.00     0.123 A 
ATOM      7  C   UNL d   1      59.141   0.171  29.602  0.00  0.00     0.029 A 
ATOM      8  C   UNL d   1      58.807   0.361  30.333  0.00  0.00     0.028 A 
ENDBRANCH   3   4
ENDBRANCH   1   3
BRANCH   1   9
ATOM      9  C   UNL d   1      56.627  -0.419  31.992  0.00  0.00     0.090 A 
ATOM     10  C   UNL d   1      56.332  -1.074  32.384  0.00  0.00     0.021 A 
ATOM     11  C   UNL d   1      55.810  -0.960  33.023  0.00  0.00     0.013 A 
ATOM     12  C   UNL d   1      55.600  -0.195  33.248  0.00  0.00     0.058 A 
ATOM     13  C   UNL d   1      55.903   0.456  32.846  0.00  0.00     0.013 A 
ATOM     14 CL   UNL d   1      55.086  -0.082  33.876  0.00  0.00    -0.082 Cl
ATOM     15  C   UNL d   1      56.426   0.342  32.207  0.00  0.00     0.021 A 
ENDBRANCH   1   9
TORSDOF 3
ENDMDL
MODEL 2
REMARK VINA RESULT:      -5.0      0.780      1.095
REMARK  3 active torsions:
REMARK  status: ('A' for Active; 'I' for Inactive)
REMARK    1  A    between atoms: C_2  and  N_1 
REMARK    2  A    between atoms: C_4  and  N_1 
REMARK    3  A    between atoms: C_3  and  C_2 
ROOT
ATOM      1  N   UNL d   1      57.473   0.091  31.490  0.00  0.00    -0.182 N 
ATOM      2  O   UNL d   1      58.063   0.651  31.639  0.00  0.00    -0.080 OA
ENDROOT
BRANCH   1   3
ATOM      3  C   UNL d   1      57.511  -0.374  30.809  0.00  0.00     0.133 C 
BRANCH   3   4
ATOM      4  C   UNL d   1      57.893  -0.093  30.138  0.00  0.00     0.120 A 
ATOM      5  O   UNL d   1      57.784   0.594  29.684  0.00  0.00    -0.304 OA
ATOM      6  C   UNL d   1      58.337   0.583  29.066  0.00  0.00     0.123 A 
ATOM      7  C   UNL d   1      58.789  -0.110  29.136  0.00  0.00     0.029 A 
ATOM      8  C   UNL d   1      58.513  -0.523  29.796  0.00  0.00     0.028 A 
ENDBRANCH   3   4
ENDBRANCH   1   3
BRANCH   1   9
ATOM      9  C   UNL d   1      56.837  -0.004  32.030  0.00  0.00     0.090 A 
ATOM     10  C   UNL d   1      56.449   0.662  32.307  0.00  0.00     0.021 A 
ATOM     11  C   UNL d   1      55.818   0.568  32.843  0.00  0.00     0.013 A 
ATOM     12  C   UNL d   1      55.596  -0.189  33.084  0.00  0.00     0.058 A 
ATOM     13  C   UNL d   1      55.993  -0.851  32.799  0.00  0.00     0.013 A 
ATOM     14 CL   UNL d   1      54.976  -0.281  33.611  0.00  0.00    -0.082 Cl
ATOM     15  C   UNL d   1      56.624  -0.757  32.263  0.00  0.00     0.021 A 
ENDBRANCH   1   9
TORSDOF 3
ENDMDL
MODEL 3
REMARK VINA RESULT:      -4.6      0.888      1.149
REMARK  3 active torsions:
REMARK  status: ('A' for Active; 'I' for Inactive)
REMARK    1  A    between atoms: C_2  and  N_1 
REMARK    2  A    between atoms: C_4  and  N_1 
REMARK    3  A    between atoms: C_3  and  C_2 
ROOT
ATOM      1  N   UNL d   1      56.736  -0.235  32.158  0.00  0.00    -0.182 N 
ATOM      2  O   UNL d   1      56.653  -1.003  31.862  0.00  0.00    -0.080 OA
ENDROOT
BRANCH   1   3
ATOM      3  C   UNL d   1      57.235   0.300  31.776  0.00  0.00     0.133 C 
BRANCH   3   4
ATOM      4  C   UNL d   1      57.592   0.096  31.065  0.00  0.00     0.120 A 
ATOM      5  O   UNL d   1      57.599  -0.613  30.631  0.00  0.00    -0.304 OA
ATOM      6  C   UNL d   1      58.056  -0.490  29.949  0.00  0.00     0.123 A 
ATOM      7  C   UNL d   1      58.332   0.293  29.960  0.00  0.00     0.029 A 
ATOM      8  C   UNL d   1      58.045   0.650  30.646  0.00  0.00     0.028 A 
ENDBRANCH   3   4
ENDBRANCH   1   3
BRANCH   1   9
ATOM      9  C   UNL d   1      56.315  -0.002  32.846  0.00  0.00     0.090 A 
ATOM     10  C   UNL d   1      56.733   0.171  33.528  0.00  0.00     0.021 A 
ATOM     11  C   UNL d   1      56.315   0.403  34.210  0.00  0.00     0.013 A 
ATOM     12  C   UNL d   1      55.492   0.454  34.187  0.00  0.00     0.058 A 
ATOM     13  C   UNL d   1      55.082   0.278  33.496  0.00  0.00     0.013 A 
ATOM     14 CL   UNL d   1      55.081   0.682  34.858  0.00  0.00    -0.082 Cl
ATOM     15  C   UNL d   1      55.500   0.046  32.814  0.00  0.00     0.021 A 
ENDBRANCH   1   9
TORSDOF 3
ENDMDL
MODEL 4
REMARK VINA RESULT:      -4.6      2.061      4.025
REMARK  3 active torsions:
REMARK  status: ('A' for Active; 'I' for Inactive)
REMARK    1  A    between atoms: C_2  and  N_1 
REMARK    2  A    between atoms: C_4  and  N_1 
REMARK    3  A    between atoms: C_3  and  C_2 
ROOT
ATOM      1  N   UNL d   1      56.162  -0.145  32.732  0.00  0.00    -0.182 N 
ATOM      2  O   UNL d   1      56.121  -0.833  33.190  0.00  0.00    -0.080 OA
ENDROOT
BRANCH   1   3
ATOM      3  C   UNL d   1      55.716   0.516  32.943  0.00  0.00     0.133 C 
BRANCH   3   4
ATOM      4  C   UNL d   1      55.405   0.579  33.702  0.00  0.00     0.120 A 
ATOM      5  O   UNL d   1      55.767   0.612  34.449  0.00  0.00    -0.304 OA
ATOM      6  C   UNL d   1      55.169   0.676  35.020  0.00  0.00     0.123 A 
ATOM      7  C   UNL d   1      54.437   0.682  34.629  0.00  0.00     0.029 A 
ATOM      8  C   UNL d   1      54.586   0.622  33.819  0.00  0.00     0.028 A 
ENDBRANCH   3   4
ENDBRANCH   1   3
BRANCH   1   9
ATOM      9  C   UNL d   1      56.658  -0.121  32.055  0.00  0.00     0.090 A 
ATOM     10  C   UNL d   1      56.871   0.607  31.746  0.00  0.00     0.021 A 
ATOM     11  C   UNL d   1      57.362   0.631  31.074  0.00  0.00     0.013 A 
ATOM     12  C   UNL d   1      57.624  -0.072  30.733  0.00  0.00     0.058 A 
ATOM     13  C   UNL d   1      57.403  -0.798  31.052  0.00  0.00     0.013 A 
ATOM     14 CL   UNL d   1      58.107  -0.048  30.072  0.00  0.00    -0.082 Cl
ATOM     15  C   UNL d   1      56.912  -0.823  31.724  0.00  0.00     0.021 A 
ENDBRANCH   1   9
TORSDOF 3
ENDMDL
MODEL 5
REMARK VINA RESULT:      -4.5      1.964      3.797
REMARK  3 active torsions:
REMARK  status: ('A' for Active; 'I' for Inactive)
REMARK    1  A    between atoms: C_2  and  N_1 
REMARK    2  A    between atoms: C_4  and  N_1 
REMARK    3  A    between atoms: C_3  and  C_2 
ROOT
ATOM      1  N   UNL d   1      57.280   0.132  31.156  0.00  0.00    -0.182 N 
ATOM      2  O   UNL d   1      56.666   0.669  31.021  0.00  0.00    -0.080 OA
ENDROOT
BRANCH   1   3
ATOM      3  C   UNL d   1      57.220  -0.415  31.771  0.00  0.00     0.133 C 
BRANCH   3   4
ATOM      4  C   UNL d   1      56.572  -0.398  32.276  0.00  0.00     0.120 A 
ATOM      5  O   UNL d   1      56.122   0.231  32.580  0.00  0.00    -0.304 OA
ATOM      6  C   UNL d   1      55.531  -0.089  33.066  0.00  0.00     0.123 A 
ATOM      7  C   UNL d   1      55.614  -0.915  33.064  0.00  0.00     0.029 A 
ATOM      8  C   UNL d   1      56.254  -1.101  32.578  0.00  0.00     0.028 A 
ENDBRANCH   3   4
ENDBRANCH   1   3
BRANCH   1   9
ATOM      9  C   UNL d   1      57.963   0.142  30.667  0.00  0.00     0.090 A 
ATOM     10  C   UNL d   1      58.007  -0.378  30.037  0.00  0.00     0.021 A 
ATOM     11  C   UNL d   1      58.684  -0.368  29.552  0.00  0.00     0.013 A 
ATOM     12  C   UNL d   1      59.295   0.163  29.713  0.00  0.00     0.058 A 
ATOM     13  C   UNL d   1      59.239   0.682  30.349  0.00  0.00     0.013 A 
ATOM     14 CL   UNL d   1      59.960   0.173  29.236  0.00  0.00    -0.082 Cl
ATOM     15  C   UNL d   1      58.562   0.671  30.834  0.00  0.00     0.021 A 
ENDBRANCH   1   9
TORSDOF 3
ENDMDL
MODEL 6
REMARK VINA RESULT:      -3.4      8.691      9.461
REMARK  3 active torsions:
REMARK  status: ('A' for Active; 'I' for Inactive)
REMARK    1  A    between atoms: C_2  and  N_1 
REMARK    2  A    between atoms: C_4  and  N_1 
REMARK    3  A    between atoms: C_3  and  C_2 
ROOT
ATOM      1  N   UNL d   1      59.589  -8.524  35.728  0.00  0.00    -0.182 N 
ATOM      2  O   UNL d   1      58.907  -8.778  36.123  0.00  0.00    -0.080 OA
ENDROOT
BRANCH   1   3
ATOM      3  C   UNL d   1      59.958  -9.023  35.184  0.00  0.00     0.133 C 
BRANCH   3   4
ATOM      4  C   UNL d   1      59.534  -9.326  34.549  0.00  0.00     0.120 A 
ATOM      5  O   UNL d   1      58.736  -9.540  34.466  0.00  0.00    -0.304 OA
ATOM      6  C   UNL d   1      58.624  -9.815  33.691  0.00  0.00     0.123 A 
ATOM      7  C   UNL d   1      59.351  -9.773  33.294  0.00  0.00     0.029 A 
ATOM      8  C   UNL d   1      59.908  -9.472  33.824  0.00  0.00     0.028 A 
ENDBRANCH   3   4
ENDBRANCH   1   3
BRANCH   1   9
ATOM      9  C   UNL d   1      59.904  -7.761  35.882  0.00  0.00     0.090 A 
ATOM     10  C   UNL d   1      60.709  -7.682  36.006  0.00  0.00     0.021 A 
ATOM     11  C   UNL d   1      61.021  -6.925  36.158  0.00  0.00     0.013 A 
ATOM     12  C   UNL d   1      60.518  -6.272  36.181  0.00  0.00     0.058 A 
ATOM     13  C   UNL d   1      59.710  -6.363  36.054  0.00  0.00     0.013 A 
ATOM     14 CL   UNL d   1      60.825  -5.528  36.330  0.00  0.00    -0.082 Cl
ATOM     15  C   UNL d   1      59.398  -7.120  35.902  0.00  0.00     0.021 A 
ENDBRANCH   1   9
TORSDOF 3
ENDMDL
MODEL 7
REMARK VINA RESULT:      -2.7      3.027      4.563
REMARK  3 active torsions:
REMARK  status: ('A' for Active; 'I' for Inactive)
REMARK    1  A    between atoms: C_2  and  N_1 
REMARK    2  A    between atoms: C_4  and  N_1 
REMARK    3  A    between atoms: C_3  and  C_2 
ROOT
ATOM      1  N   UNL d   1      59.033  -1.336  29.301  0.00  0.00    -0.182 N 
ATOM      2  O   UNL d   1      59.388  -0.632  29.051  0.00  0.00    -0.080 OA
ENDROOT
BRANCH   1   3
ATOM      3  C   UNL d   1      58.345  -1.309  29.756  0.00  0.00     0.133 C 
BRANCH   3   4
ATOM      4  C   UNL d   1      58.065  -0.590  30.039  0.00  0.00     0.120 A 
ATOM      5  O   UNL d   1      58.027   0.165  29.695  0.00  0.00    -0.304 OA
ATOM      6  C   UNL d   1      57.687   0.681  30.248  0.00  0.00     0.123 A 
ATOM      7  C   UNL d   1      57.515   0.248  30.935  0.00  0.00     0.029 A 
ATOM      8  C   UNL d   1      57.749  -0.533  30.803  0.00  0.00     0.028 A 
ENDBRANCH   3   4
ENDBRANCH   1   3
BRANCH   1   9
ATOM      9  C   UNL d   1      59.371  -2.076  29.092  0.00  0.00     0.090 A 
ATOM     10  C   UNL d   1      58.882  -2.672  28.819  0.00  0.00     0.021 A 
ATOM     11  C   UNL d   1      59.217  -3.406  28.612  0.00  0.00     0.013 A 
ATOM     12  C   UNL d   1      60.031  -3.518  28.684  0.00  0.00     0.058 A 
ATOM     13  C   UNL d   1      60.513  -2.911  28.959  0.00  0.00     0.013 A 
ATOM     14 CL   UNL d   1      60.361  -4.240  28.480  0.00  0.00    -0.082 Cl
ATOM     15  C   UNL d   1      60.178  -2.178  29.167  0.00  0.00     0.021 A 
ENDBRANCH   1   9
TORSDOF 3
ENDMDL
