MODEL 1
REMARK VINA RESULT:      94.8      0.000      0.000
REMARK  3 active torsions:
REMARK  status: ('A' for Active; 'I' for Inactive)
REMARK    1  A    between atoms: N_4  and  C_8 
REMARK    2  A    between atoms: N_12  and  C_6 
REMARK       I    between atoms: C_11  and  N_12 
REMARK    3  A    between atoms: C_14  and  C_11 
ROOT
ATOM      1  C   UNL d   1      61.109  47.755  50.336  0.00  0.00     0.279 C 
ATOM      2  N   UNL d   1      60.930  47.014  50.556  0.00  0.00    -0.208 NA
ATOM      3  O   UNL d   1      61.697  47.903  49.741  0.00  0.00    -0.265 OA
ENDROOT
BRANCH   1   4
ATOM      4  C   UNL d   1      60.728  48.399  50.680  0.00  0.00     0.059 A 
ATOM      5  C   UNL d   1      59.940  48.578  50.491  0.00  0.00     0.022 A 
ATOM      6  C   UNL d   1      59.570  49.225  50.841  0.00  0.00     0.070 A 
ATOM      7  C   UNL d   1      59.914  49.707  51.362  0.00  0.00     0.018 A 
ATOM      8  C   UNL d   1      60.689  49.565  51.575  0.00  0.00     0.002 A 
ATOM      9  C   UNL d   1      61.128  48.925  51.258  0.00  0.00     0.005 A 
BRANCH   6  10
ATOM     10  N   UNL d   1      58.747  49.391  50.628  0.00  0.00    -0.242 N 
ATOM     11  C   UNL d   1      58.553  49.584  49.850  0.00  0.00     0.267 A 
ATOM     12  C   UNL d   1      57.739  49.708  49.833  0.00  0.00     0.066 A 
ATOM     13  O   UNL d   1      59.128  49.639  49.180  0.00  0.00    -0.267 OA
ATOM     14  C   UNL d   1      57.437  49.599  50.565  0.00  0.00     0.066 A 
ATOM     15  C   UNL d   1      58.067  49.398  51.079  0.00  0.00     0.267 A 
ATOM     16  O   UNL d   1      58.038  49.227  51.915  0.00  0.00    -0.267 OA
ENDBRANCH   6  10
ENDBRANCH   1   4
BRANCH   2  17
ATOM     17  C   UNL d   1      61.325  46.347  50.200  0.00  0.00     0.089 A 
ATOM     18  C   UNL d   1      61.243  45.581  50.492  0.00  0.00     0.080 A 
ATOM     19  C   UNL d   1      60.798  45.276  51.147  0.00  0.00     0.283 A 
ATOM     20  C   UNL d   1      61.646  44.898  50.127  0.00  0.00     0.064 A 
ATOM     21  N   UNL d   1      60.922  44.456  51.181  0.00  0.00    -0.169 NA
ATOM     22  O   UNL d   1      60.300  45.727  51.690  0.00  0.00    -0.265 OA
ATOM     23  C   UNL d   1      61.443  44.224  50.556  0.00  0.00     0.282 A 
ATOM     24  O   UNL d   1      61.725  43.435  50.376  0.00  0.00    -0.265 OA
ATOM     25  C   UNL d   1      62.118  45.039  49.476  0.00  0.00     0.005 A 
ATOM     26  C   UNL d   1      62.212  45.784  49.174  0.00  0.00     0.002 A 
ATOM     27  C   UNL d   1      61.816  46.469  49.527  0.00  0.00     0.019 A 
ENDBRANCH   2  17
TORSDOF 3
ENDMDL
