MODEL 1
REMARK VINA RESULT:      -3.8      0.000      0.000
REMARK  3 active torsions:
REMARK  status: ('A' for Active; 'I' for Inactive)
REMARK    1  A    between atoms: N_2  and  C_1 
REMARK    2  A    between atoms: C_5  and  C_1 
REMARK    3  A    between atoms: C_3  and  N_2 
ROOT
ATOM      1  N   UNL d   1      57.725  -0.043  30.165  0.00  0.00    -0.233 NA
ENDROOT
BRANCH   1   2
ATOM      2  C   UNL d   1      57.766   0.182  30.948  0.00  0.00     0.153 C 
ATOM      3  S   UNL d   1      58.370   0.681  31.212  0.00  0.00    -0.056 SA
BRANCH   2   4
ATOM      4  C   UNL d   1      57.203  -0.089  31.486  0.00  0.00     0.109 A 
ATOM      5  N   UNL d   1      57.016  -0.894  31.519  0.00  0.00    -0.242 NA
ATOM      6  C   UNL d   1      56.453  -1.164  32.056  0.00  0.00     0.099 A 
ATOM      7  C   UNL d   1      56.076  -0.632  32.561  0.00  0.00     0.021 A 
ATOM      8  C   UNL d   1      56.256   0.175  32.535  0.00  0.00     0.003 A 
ATOM      9  C   UNL d   1      56.821   0.448  31.996  0.00  0.00     0.021 A 
ENDBRANCH   2   4
ENDBRANCH   1   2
BRANCH   1  10
ATOM     10  C   UNL d   1      58.396   0.025  29.680  0.00  0.00     0.082 A 
ATOM     11  C   UNL d   1      58.323   0.386  28.942  0.00  0.00     0.018 A 
ATOM     12  C   UNL d   1      58.994   0.454  28.457  0.00  0.00     0.002 A 
ATOM     13  C   UNL d   1      57.597   0.676  28.686  0.00  0.00     0.002 C 
ATOM     14  C   UNL d   1      59.720   0.164  28.713  0.00  0.00     0.000 A 
ATOM     15  C   UNL d   1      59.777  -0.196  29.458  0.00  0.00     0.002 A 
ATOM     16  C   UNL d   1      59.114  -0.264  29.938  0.00  0.00     0.019 A 
ATOM     17  C   UNL d   1      60.504  -0.490  29.722  0.00  0.00     0.000 C 
ENDBRANCH   1  10
TORSDOF 3
ENDMDL
MODEL 2
REMARK VINA RESULT:      -3.6      1.220      2.091
REMARK  3 active torsions:
REMARK  status: ('A' for Active; 'I' for Inactive)
REMARK    1  A    between atoms: N_2  and  C_1 
REMARK    2  A    between atoms: C_5  and  C_1 
REMARK    3  A    between atoms: C_3  and  N_2 
ROOT
ATOM      1  N   UNL d   1      57.591   0.385  31.980  0.00  0.00    -0.233 NA
ENDROOT
BRANCH   1   2
ATOM      2  C   UNL d   1      56.992  -0.169  31.959  0.00  0.00     0.153 C 
ATOM      3  S   UNL d   1      57.009  -0.788  31.411  0.00  0.00    -0.056 SA
BRANCH   2   4
ATOM      4  C   UNL d   1      56.361  -0.115  32.487  0.00  0.00     0.109 A 
ATOM      5  N   UNL d   1      56.023   0.621  32.654  0.00  0.00    -0.242 NA
ATOM      6  C   UNL d   1      55.393   0.675  33.181  0.00  0.00     0.099 A 
ATOM      7  C   UNL d   1      55.099  -0.005  33.544  0.00  0.00     0.021 A 
ATOM      8  C   UNL d   1      55.430  -0.746  33.383  0.00  0.00     0.003 A 
ATOM      9  C   UNL d   1      56.064  -0.802  32.854  0.00  0.00     0.021 A 
ENDBRANCH   2   4
ENDBRANCH   1   2
BRANCH   1  10
ATOM     10  C   UNL d   1      58.107   0.459  31.333  0.00  0.00     0.082 A 
ATOM     11  C   UNL d   1      58.906   0.607  31.471  0.00  0.00     0.018 A 
ATOM     12  C   UNL d   1      59.421   0.682  30.824  0.00  0.00     0.002 A 
ATOM     13  C   UNL d   1      59.193   0.681  32.239  0.00  0.00     0.002 C 
ATOM     14  C   UNL d   1      59.135   0.608  30.056  0.00  0.00     0.000 A 
ATOM     15  C   UNL d   1      58.328   0.459  29.934  0.00  0.00     0.002 A 
ATOM     16  C   UNL d   1      57.818   0.385  30.573  0.00  0.00     0.019 A 
ATOM     17  C   UNL d   1      58.033   0.383  29.165  0.00  0.00     0.000 C 
ENDBRANCH   1  10
TORSDOF 3
ENDMDL
MODEL 3
REMARK VINA RESULT:      -2.8      1.846      3.201
REMARK  3 active torsions:
REMARK  status: ('A' for Active; 'I' for Inactive)
REMARK    1  A    between atoms: N_2  and  C_1 
REMARK    2  A    between atoms: C_5  and  C_1 
REMARK    3  A    between atoms: C_3  and  N_2 
ROOT
ATOM      1  N   UNL d   1      56.035   0.137  32.605  0.00  0.00    -0.233 NA
ENDROOT
BRANCH   1   2
ATOM      2  C   UNL d   1      56.323   0.435  33.308  0.00  0.00     0.153 C 
ATOM      3  S   UNL d   1      57.111   0.676  33.372  0.00  0.00    -0.056 SA
BRANCH   2   4
ATOM      4  C   UNL d   1      55.826   0.499  33.962  0.00  0.00     0.109 A 
ATOM      5  N   UNL d   1      56.149   0.616  34.715  0.00  0.00    -0.242 NA
ATOM      6  C   UNL d   1      55.653   0.680  35.369  0.00  0.00     0.099 A 
ATOM      7  C   UNL d   1      54.835   0.628  35.275  0.00  0.00     0.021 A 
ATOM      8  C   UNL d   1      54.504   0.511  34.526  0.00  0.00     0.003 A 
ATOM      9  C   UNL d   1      55.001   0.447  33.867  0.00  0.00     0.021 A 
ENDBRANCH   2   4
ENDBRANCH   1   2
BRANCH   1  10
ATOM     10  C   UNL d   1      56.564  -0.152  32.032  0.00  0.00     0.082 A 
ATOM     11  C   UNL d   1      56.603  -0.964  31.893  0.00  0.00     0.018 A 
ATOM     12  C   UNL d   1      57.131  -1.252  31.321  0.00  0.00     0.002 A 
ATOM     13  C   UNL d   1      56.126  -1.485  32.315  0.00  0.00     0.002 C 
ATOM     14  C   UNL d   1      57.608  -0.731  30.899  0.00  0.00     0.000 A 
ATOM     15  C   UNL d   1      57.557   0.083  31.050  0.00  0.00     0.002 A 
ATOM     16  C   UNL d   1      57.035   0.369  31.616  0.00  0.00     0.019 A 
ATOM     17  C   UNL d   1      58.035   0.613  30.630  0.00  0.00     0.000 C 
ENDBRANCH   1  10
TORSDOF 3
ENDMDL
MODEL 4
REMARK VINA RESULT:      -2.5      2.215      5.202
REMARK  3 active torsions:
REMARK  status: ('A' for Active; 'I' for Inactive)
REMARK    1  A    between atoms: N_2  and  C_1 
REMARK    2  A    between atoms: C_5  and  C_1 
REMARK    3  A    between atoms: C_3  and  N_2 
ROOT
ATOM      1  N   UNL d   1      56.158   0.639  33.520  0.00  0.00    -0.233 NA
ENDROOT
BRANCH   1   2
ATOM      2  C   UNL d   1      56.353  -0.049  33.128  0.00  0.00     0.153 C 
ATOM      3  S   UNL d   1      56.118  -0.784  33.425  0.00  0.00    -0.056 SA
BRANCH   2   4
ATOM      4  C   UNL d   1      56.788  -0.017  32.429  0.00  0.00     0.109 A 
ATOM      5  N   UNL d   1      57.331   0.595  32.307  0.00  0.00    -0.242 NA
ATOM      6  C   UNL d   1      57.765   0.627  31.609  0.00  0.00     0.099 A 
ATOM      7  C   UNL d   1      57.659   0.050  31.029  0.00  0.00     0.021 A 
ATOM      8  C   UNL d   1      57.118  -0.566  31.142  0.00  0.00     0.003 A 
ATOM      9  C   UNL d   1      56.681  -0.600  31.843  0.00  0.00     0.021 A 
ENDBRANCH   2   4
ENDBRANCH   1   2
BRANCH   1  10
ATOM     10  C   UNL d   1      55.503   0.652  34.032  0.00  0.00     0.082 A 
ATOM     11  C   UNL d   1      55.629   0.664  34.847  0.00  0.00     0.018 A 
ATOM     12  C   UNL d   1      54.974   0.676  35.357  0.00  0.00     0.002 A 
ATOM     13  C   UNL d   1      56.393   0.663  35.153  0.00  0.00     0.002 C 
ATOM     14  C   UNL d   1      54.211   0.677  35.051  0.00  0.00     0.000 A 
ATOM     15  C   UNL d   1      54.101   0.665  34.229  0.00  0.00     0.002 A 
ATOM     16  C   UNL d   1      54.747   0.653  33.723  0.00  0.00     0.019 A 
ATOM     17  C   UNL d   1      53.335   0.666  33.914  0.00  0.00     0.000 C 
ENDBRANCH   1  10
TORSDOF 3
ENDMDL
