MODEL 1
REMARK VINA RESULT:      74.3      0.000      0.000
REMARK  4 active torsions:
REMARK  status: ('A' for Active; 'I' for Inactive)
REMARK    1  A    between atoms: N_2  and  S_1 
REMARK    2  A    between atoms: C_7  and  S_1 
REMARK    3  A    between atoms: C_11  and  C_4 
REMARK    4  A    between atoms: C_18  and  C_11 
ROOT
ATOM      1  N   UNL d   1      60.597  48.572  50.706  0.00  0.00    -0.202 N 
ATOM      2  C   UNL d   1      61.023  49.005  51.259  0.00  0.00     0.218 A 
ATOM      3  C   UNL d   1      61.060  47.916  50.481  0.00  0.00     0.135 A 
ATOM      4  N   UNL d   1      61.746  48.622  51.378  0.00  0.00    -0.178 NA
ATOM      5  C   UNL d   1      61.759  47.955  50.896  0.00  0.00     0.298 A 
ATOM      6  S   UNL d   1      60.780  49.705  51.639  0.00  0.00    -0.037 SA
ATOM      7  O   UNL d   1      62.383  47.404  50.836  0.00  0.00    -0.264 OA
ENDROOT
BRANCH   1   8
ATOM      8  S   UNL d   1      59.847  48.822  50.476  0.00  0.00     0.273 S 
ATOM      9  O   UNL d   1      60.071  48.755  49.677  0.00  0.00    -0.200 OA
ATOM     10  O   UNL d   1      59.626  48.888  51.266  0.00  0.00    -0.200 OA
BRANCH   8  11
ATOM     11  C   UNL d   1      59.097  49.072  50.245  0.00  0.00     0.104 A 
ATOM     12  C   UNL d   1      58.994  49.456  49.525  0.00  0.00     0.012 A 
ATOM     13  C   UNL d   1      58.240  49.707  49.293  0.00  0.00     0.001 A 
ATOM     14  C   UNL d   1      59.655  49.589  49.033  0.00  0.00     0.001 C 
ATOM     15  C   UNL d   1      57.592  49.574  49.782  0.00  0.00     0.000 A 
ATOM     16  C   UNL d   1      57.694  49.188  50.504  0.00  0.00     0.001 A 
ATOM     17  C   UNL d   1      58.448  48.937  50.736  0.00  0.00     0.013 A 
ATOM     18  C   UNL d   1      57.036  49.054  50.998  0.00  0.00     0.000 C 
ENDBRANCH   8  11
ENDBRANCH   1   8
BRANCH   3  19
ATOM     19  C   UNL d   1      60.865  47.325  49.939  0.00  0.00     0.023 C 
BRANCH  19  20
ATOM     20  C   UNL d   1      61.171  46.566  50.026  0.00  0.00     0.002 C 
ATOM     21  C   UNL d   1      61.010  46.136  50.706  0.00  0.00     0.000 C 
ATOM     22  C   UNL d   1      61.635  46.241  49.436  0.00  0.00     0.000 C 
ENDBRANCH  19  20
ENDBRANCH   3  19
TORSDOF 4
ENDMDL
