MODEL 1
REMARK VINA RESULT:      11.9      0.000      0.000
REMARK  1 active torsions:
REMARK  status: ('A' for Active; 'I' for Inactive)
REMARK       I    between atoms: N_4  and  C_1 
REMARK    1  A    between atoms: C_9  and  N_4 
ROOT
ATOM      1  C   UNL d   1      57.231  49.678  50.729  0.00  0.00     0.121 A 
ATOM      2  C   UNL d   1      57.881  49.680  51.234  0.00  0.00     0.046 A 
ATOM      3  C   UNL d   1      57.347  49.691  49.913  0.00  0.00     0.119 A 
ATOM      4  O   UNL d   1      56.420  49.665  50.868  0.00  0.00    -0.299 OA
ATOM      5  O   UNL d   1      56.602  49.686  49.550  0.00  0.00    -0.300 OA
ATOM      6  C   UNL d   1      58.653  49.694  50.922  0.00  0.00     0.102 A 
ATOM      7  C   UNL d   1      56.034  49.670  50.135  0.00  0.00     0.304 A 
ATOM      8  C   UNL d   1      58.112  49.705  49.604  0.00  0.00     0.028 A 
ATOM      9  C   UNL d   1      58.769  49.707  50.107  0.00  0.00     0.022 A 
ENDROOT
BRANCH   6  10
ATOM     10  N   UNL d   1      59.312  49.696  51.438  0.00  0.00    -0.056 NA
ATOM     11  C   UNL d   1      60.084  49.696  51.132  0.00  0.00     0.787 C 
ATOM     12  N   UNL d   1      60.730  49.697  51.642  0.00  0.00     0.064 N 
ATOM     13  N   UNL d   1      60.205  49.694  50.317  0.00  0.00     0.064 N 
ENDBRANCH   6  10
TORSDOF 1
ENDMDL
MODEL 2
REMARK VINA RESULT:      12.6      2.169      3.292
REMARK  1 active torsions:
REMARK  status: ('A' for Active; 'I' for Inactive)
REMARK       I    between atoms: N_4  and  C_1 
REMARK    1  A    between atoms: C_9  and  N_4 
ROOT
ATOM      1  C   UNL d   1      59.984  49.707  50.558  0.00  0.00     0.121 A 
ATOM      2  C   UNL d   1      59.351  49.707  50.033  0.00  0.00     0.046 A 
ATOM      3  C   UNL d   1      59.844  49.707  51.370  0.00  0.00     0.119 A 
ATOM      4  O   UNL d   1      60.799  49.706  50.444  0.00  0.00    -0.299 OA
ATOM      5  O   UNL d   1      60.577  49.707  51.756  0.00  0.00    -0.300 OA
ATOM      6  C   UNL d   1      58.569  49.707  50.321  0.00  0.00     0.102 A 
ATOM      7  C   UNL d   1      61.163  49.706  51.189  0.00  0.00     0.304 A 
ATOM      8  C   UNL d   1      59.070  49.708  51.656  0.00  0.00     0.028 A 
ATOM      9  C   UNL d   1      58.428  49.708  51.132  0.00  0.00     0.022 A 
ENDROOT
BRANCH   6  10
ATOM     10  N   UNL d   1      57.927  49.708  49.786  0.00  0.00    -0.056 NA
ATOM     11  C   UNL d   1      57.146  49.689  50.068  0.00  0.00     0.787 C 
ATOM     12  N   UNL d   1      56.516  49.689  49.538  0.00  0.00     0.064 N 
ATOM     13  N   UNL d   1      57.000  49.669  50.878  0.00  0.00     0.064 N 
ENDBRANCH   6  10
TORSDOF 1
ENDMDL
