MODEL 1
REMARK VINA RESULT:      53.9      0.000      0.000
REMARK  6 active torsions:
REMARK  status: ('A' for Active; 'I' for Inactive)
REMARK    1  A    between atoms: C_11  and  S_1 
REMARK    2  A    between atoms: C_2  and  C_5 
REMARK       I    between atoms: N_3  and  C_2 
REMARK    3  A    between atoms: C_12  and  N_3 
REMARK    4  A    between atoms: N_4  and  C_5 
REMARK       I    between atoms: C_6  and  N_4 
REMARK    5  A    between atoms: C_5  and  C_7 
REMARK    6  A    between atoms: C_7  and  C_11 
ROOT
ATOM      1  C   UNL d   1     -47.291  30.538  35.609  0.00  0.00     0.143 C 
ENDROOT
BRANCH   1   2
ATOM      2  C   UNL d   1     -47.345  31.284  35.252  0.00  0.00     0.297 C 
ATOM      3  N   UNL d   1     -47.479  31.346  34.443  0.00  0.00    -0.207 NA
ATOM      4  O   UNL d   1     -47.265  31.969  35.709  0.00  0.00    -0.264 OA
BRANCH   3   5
ATOM      5  C   UNL d   1     -47.533  32.104  34.090  0.00  0.00     0.085 A 
ATOM      6  C   UNL d   1     -48.289  32.370  33.880  0.00  0.00     0.019 A 
ATOM      7  C   UNL d   1     -48.348  33.130  33.525  0.00  0.00     0.002 A 
ATOM      8  C   UNL d   1     -49.109  33.417  33.306  0.00  0.00     0.000 C 
ATOM      9  C   UNL d   1     -47.687  33.581  33.395  0.00  0.00     0.000 A 
ATOM     10  C   UNL d   1     -46.946  33.287  33.616  0.00  0.00     0.002 A 
ATOM     11  C   UNL d   1     -46.877  32.542  33.965  0.00  0.00     0.019 A 
ENDBRANCH   3   5
ENDBRANCH   1   2
BRANCH   1  12
ATOM     12  N   UNL d   1     -46.683  30.382  36.142  0.00  0.00    -0.203 NA
ATOM     13  C   UNL d   1     -46.854  30.251  36.935  0.00  0.00     0.280 C 
ATOM     14  O   UNL d   1     -47.633  30.277  37.196  0.00  0.00    -0.265 OA
ATOM     15  C   UNL d   1     -46.246  30.095  37.468  0.00  0.00     0.068 C 
ENDBRANCH   1  12
BRANCH   1  16
ATOM     16  C   UNL d   1     -47.843  29.954  35.432  0.00  0.00     0.036 C 
BRANCH  16  17
ATOM     17  C   UNL d   1     -47.590  29.196  35.240  0.00  0.00     0.096 C 
BRANCH  17  18
ATOM     18  S   UNL d   1     -48.139  28.589  35.164  0.00  0.00     0.192 S 
ATOM     19  O   UNL d   1     -48.530  27.877  34.980  0.00  0.00    -0.222 OA
ATOM     20  O   UNL d   1     -47.462  28.307  34.776  0.00  0.00    -0.222 OA
ATOM     21  C   UNL d   1     -48.890  28.673  35.488  0.00  0.00     0.145 C 
ENDBRANCH  17  18
ENDBRANCH  16  17
ENDBRANCH   1  16
TORSDOF 6
ENDMDL
MODEL 2
REMARK VINA RESULT:      56.6      4.613      7.061
REMARK  6 active torsions:
REMARK  status: ('A' for Active; 'I' for Inactive)
REMARK    1  A    between atoms: C_11  and  S_1 
REMARK    2  A    between atoms: C_2  and  C_5 
REMARK       I    between atoms: N_3  and  C_2 
REMARK    3  A    between atoms: C_12  and  N_3 
REMARK    4  A    between atoms: N_4  and  C_5 
REMARK       I    between atoms: C_6  and  N_4 
REMARK    5  A    between atoms: C_5  and  C_7 
REMARK    6  A    between atoms: C_7  and  C_11 
ROOT
ATOM      1  C   UNL d   1     -49.831  25.929  33.645  0.00  0.00     0.143 C 
ENDROOT
BRANCH   1   2
ATOM      2  C   UNL d   1     -50.643  25.792  33.556  0.00  0.00     0.297 C 
ATOM      3  N   UNL d   1     -50.951  25.038  33.678  0.00  0.00    -0.207 NA
ATOM      4  O   UNL d   1     -51.149  26.413  33.345  0.00  0.00    -0.264 OA
BRANCH   3   5
ATOM      5  C   UNL d   1     -51.773  24.908  33.586  0.00  0.00     0.085 A 
ATOM      6  C   UNL d   1     -52.049  24.135  33.704  0.00  0.00     0.019 A 
ATOM      7  C   UNL d   1     -52.873  23.998  33.613  0.00  0.00     0.002 A 
ATOM      8  C   UNL d   1     -53.170  23.219  33.729  0.00  0.00     0.000 C 
ATOM      9  C   UNL d   1     -53.376  24.604  33.417  0.00  0.00     0.000 A 
ATOM     10  C   UNL d   1     -53.070  25.364  33.306  0.00  0.00     0.002 A 
ATOM     11  C   UNL d   1     -52.263  25.509  33.392  0.00  0.00     0.019 A 
ENDBRANCH   3   5
ENDBRANCH   1   2
BRANCH   1  12
ATOM     12  N   UNL d   1     -49.288  25.410  33.306  0.00  0.00    -0.203 NA
ATOM     13  C   UNL d   1     -48.623  25.177  33.728  0.00  0.00     0.280 C 
ATOM     14  O   UNL d   1     -48.500  25.461  34.489  0.00  0.00    -0.265 OA
ATOM     15  C   UNL d   1     -48.080  24.658  33.389  0.00  0.00     0.068 C 
ENDBRANCH   1  12
BRANCH   1  16
ATOM     16  C   UNL d   1     -49.567  26.581  34.072  0.00  0.00     0.036 C 
BRANCH  16  17
ATOM     17  C   UNL d   1     -49.937  27.308  33.978  0.00  0.00     0.096 C 
BRANCH  17  18
ATOM     18  S   UNL d   1     -49.650  27.968  34.376  0.00  0.00     0.192 S 
ATOM     19  O   UNL d   1     -49.378  28.728  34.581  0.00  0.00    -0.222 OA
ATOM     20  O   UNL d   1     -49.756  28.227  33.595  0.00  0.00    -0.222 OA
ATOM     21  C   UNL d   1     -49.477  27.918  35.179  0.00  0.00     0.145 C 
ENDBRANCH  17  18
ENDBRANCH  16  17
ENDBRANCH   1  16
TORSDOF 6
ENDMDL
