MODEL 1
REMARK VINA RESULT:      -7.6      0.000      0.000
REMARK  4 active torsions:
REMARK  status: ('A' for Active; 'I' for Inactive)
REMARK    1  A    between atoms: C_9  and  N_1 
REMARK    2  A    between atoms: S_10  and  C_6 
REMARK    3  A    between atoms: C_16  and  S_10 
REMARK    4  A    between atoms: C_15  and  C_16 
ROOT
ATOM      1  N   UNL d   1      52.802  34.250  53.596  0.00  0.00    -0.212 N 
ATOM      2  C   UNL d   1      52.122  33.800  53.499  0.00  0.00     0.169 A 
ATOM      3  N   UNL d   1      52.687  34.977  53.257  0.00  0.00    -0.162 NA
ATOM      4  C   UNL d   1      51.575  34.261  53.089  0.00  0.00     0.081 A 
ATOM      5  C   UNL d   1      51.923  34.991  52.937  0.00  0.00     0.126 A 
ATOM      6  C   UNL d   1      50.833  33.956  52.907  0.00  0.00     0.117 A 
ATOM      7  N   UNL d   1      51.928  33.034  53.728  0.00  0.00    -0.205 NA
ATOM      8  N   UNL d   1      50.636  33.188  53.136  0.00  0.00    -0.217 NA
ATOM      9  C   UNL d   1      51.183  32.727  53.546  0.00  0.00     0.201 A 
ENDROOT
BRANCH   6  10
ATOM     10  S   UNL d   1      50.286  34.417  52.497  0.00  0.00    -0.067 SA
BRANCH  10  11
ATOM     11  C   UNL d   1      49.500  34.201  52.483  0.00  0.00     0.038 C 
BRANCH  11  12
ATOM     12  C   UNL d   1      48.941  34.697  52.132  0.00  0.00     0.026 A 
ATOM     13  C   UNL d   1      48.578  35.290  52.577  0.00  0.00     0.099 A 
ATOM     14  N   UNL d   1      48.020  35.787  52.226  0.00  0.00    -0.242 NA
ATOM     15  C   UNL d   1      47.819  35.695  51.427  0.00  0.00     0.099 A 
ATOM     16  C   UNL d   1      48.188  35.097  50.985  0.00  0.00     0.021 A 
ATOM     17  C   UNL d   1      48.746  34.601  51.336  0.00  0.00     0.004 A 
ENDBRANCH  11  12
ENDBRANCH  10  11
ENDBRANCH   6  10
BRANCH   1  18
ATOM     18  C   UNL d   1      53.458  33.932  53.994  0.00  0.00     0.085 A 
ATOM     19  C   UNL d   1      53.976  33.433  53.596  0.00  0.00     0.021 A 
ATOM     20  C   UNL d   1      54.623  33.118  53.985  0.00  0.00     0.031 A 
ATOM     21  C   UNL d   1      54.760  33.298  54.780  0.00  0.00     0.140 A 
ATOM     22  C   UNL d   1      54.228  33.806  55.175  0.00  0.00     0.031 A 
ATOM     23  F   UNL d   1      55.416  32.980  55.179  0.00  0.00    -0.204 F 
ATOM     24  C   UNL d   1      53.585  34.115  54.780  0.00  0.00     0.021 A 
ENDBRANCH   1  18
TORSDOF 4
ENDMDL
MODEL 2
REMARK VINA RESULT:      -6.3      2.169      5.199
REMARK  4 active torsions:
REMARK  status: ('A' for Active; 'I' for Inactive)
REMARK    1  A    between atoms: C_9  and  N_1 
REMARK    2  A    between atoms: S_10  and  C_6 
REMARK    3  A    between atoms: C_16  and  S_10 
REMARK    4  A    between atoms: C_15  and  C_16 
ROOT
ATOM      1  N   UNL d   1      50.825  34.398  52.354  0.00  0.00    -0.212 N 
ATOM      2  C   UNL d   1      51.033  33.698  52.731  0.00  0.00     0.169 A 
ATOM      3  N   UNL d   1      51.486  34.859  52.272  0.00  0.00    -0.162 NA
ATOM      4  C   UNL d   1      51.843  33.730  52.885  0.00  0.00     0.081 A 
ATOM      5  C   UNL d   1      52.126  34.448  52.602  0.00  0.00     0.126 A 
ATOM      6  C   UNL d   1      52.215  33.101  53.263  0.00  0.00     0.117 A 
ATOM      7  N   UNL d   1      50.595  33.039  52.953  0.00  0.00    -0.205 NA
ATOM      8  N   UNL d   1      51.778  32.438  53.487  0.00  0.00    -0.217 NA
ATOM      9  C   UNL d   1      50.968  32.407  53.332  0.00  0.00     0.201 A 
ENDROOT
BRANCH   6  10
ATOM     10  S   UNL d   1      53.024  33.133  53.417  0.00  0.00    -0.067 SA
BRANCH  10  11
ATOM     11  C   UNL d   1      53.329  32.758  54.075  0.00  0.00     0.038 C 
BRANCH  11  12
ATOM     12  C   UNL d   1      54.038  33.019  54.406  0.00  0.00     0.026 A 
ATOM     13  C   UNL d   1      54.725  33.041  53.949  0.00  0.00     0.099 A 
ATOM     14  N   UNL d   1      55.434  33.302  54.280  0.00  0.00    -0.242 NA
ATOM     15  C   UNL d   1      55.464  33.543  55.074  0.00  0.00     0.099 A 
ATOM     16  C   UNL d   1      54.770  33.517  55.529  0.00  0.00     0.021 A 
ATOM     17  C   UNL d   1      54.061  33.257  55.197  0.00  0.00     0.004 A 
ENDBRANCH  11  12
ENDBRANCH  10  11
ENDBRANCH   6  10
BRANCH   1  18
ATOM     18  C   UNL d   1      50.037  34.529  52.126  0.00  0.00     0.085 A 
ATOM     19  C   UNL d   1      49.786  34.312  51.374  0.00  0.00     0.021 A 
ATOM     20  C   UNL d   1      49.011  34.441  51.147  0.00  0.00     0.031 A 
ATOM     21  C   UNL d   1      48.474  34.788  51.672  0.00  0.00     0.140 A 
ATOM     22  C   UNL d   1      48.740  35.004  52.433  0.00  0.00     0.031 A 
ATOM     23  F   UNL d   1      47.686  34.919  51.445  0.00  0.00    -0.204 F 
ATOM     24  C   UNL d   1      49.514  34.873  52.652  0.00  0.00     0.021 A 
ENDBRANCH   1  18
TORSDOF 4
ENDMDL
MODEL 3
REMARK VINA RESULT:      -6.1      2.743      6.030
REMARK  4 active torsions:
REMARK  status: ('A' for Active; 'I' for Inactive)
REMARK    1  A    between atoms: C_9  and  N_1 
REMARK    2  A    between atoms: S_10  and  C_6 
REMARK    3  A    between atoms: C_16  and  S_10 
REMARK    4  A    between atoms: C_15  and  C_16 
ROOT
ATOM      1  N   UNL d   1      47.575  35.697  52.650  0.00  0.00    -0.212 N 
ATOM      2  C   UNL d   1      48.097  35.270  52.180  0.00  0.00     0.169 A 
ATOM      3  N   UNL d   1      47.939  35.875  53.352  0.00  0.00    -0.162 NA
ATOM      4  C   UNL d   1      48.799  35.184  52.604  0.00  0.00     0.081 A 
ATOM      5  C   UNL d   1      48.704  35.557  53.330  0.00  0.00     0.126 A 
ATOM      6  C   UNL d   1      49.432  34.777  52.273  0.00  0.00     0.117 A 
ATOM      7  N   UNL d   1      48.027  34.951  51.426  0.00  0.00    -0.205 NA
ATOM      8  N   UNL d   1      49.365  34.455  51.516  0.00  0.00    -0.217 NA
ATOM      9  C   UNL d   1      48.662  34.541  51.093  0.00  0.00     0.201 A 
ENDROOT
BRANCH   6  10
ATOM     10  S   UNL d   1      50.135  34.690  52.696  0.00  0.00    -0.067 SA
BRANCH  10  11
ATOM     11  C   UNL d   1      50.732  34.217  52.404  0.00  0.00     0.038 C 
BRANCH  11  12
ATOM     12  C   UNL d   1      51.420  34.102  52.844  0.00  0.00     0.026 A 
ATOM     13  C   UNL d   1      51.528  33.401  53.266  0.00  0.00     0.099 A 
ATOM     14  N   UNL d   1      52.216  33.286  53.706  0.00  0.00    -0.242 NA
ATOM     15  C   UNL d   1      52.805  33.871  53.728  0.00  0.00     0.099 A 
ATOM     16  C   UNL d   1      52.690  34.573  53.301  0.00  0.00     0.021 A 
ATOM     17  C   UNL d   1      52.001  34.688  52.862  0.00  0.00     0.004 A 
ENDBRANCH  11  12
ENDBRANCH  10  11
ENDBRANCH   6  10
BRANCH   1  18
ATOM     18  C   UNL d   1      46.813  35.874  52.370  0.00  0.00     0.085 A 
ATOM     19  C   UNL d   1      46.181  35.388  52.569  0.00  0.00     0.021 A 
ATOM     20  C   UNL d   1      45.429  35.560  52.294  0.00  0.00     0.031 A 
ATOM     21  C   UNL d   1      45.301  36.223  51.816  0.00  0.00     0.140 A 
ATOM     22  C   UNL d   1      45.951  36.709  51.620  0.00  0.00     0.031 A 
ATOM     23  F   UNL d   1      44.540  36.401  51.536  0.00  0.00    -0.204 F 
ATOM     24  C   UNL d   1      46.696  36.531  51.898  0.00  0.00     0.021 A 
ENDBRANCH   1  18
TORSDOF 4
ENDMDL
MODEL 4
REMARK VINA RESULT:      -5.9      2.000      3.253
REMARK  4 active torsions:
REMARK  status: ('A' for Active; 'I' for Inactive)
REMARK    1  A    between atoms: C_9  and  N_1 
REMARK    2  A    between atoms: S_10  and  C_6 
REMARK    3  A    between atoms: C_16  and  S_10 
REMARK    4  A    between atoms: C_15  and  C_16 
ROOT
ATOM      1  N   UNL d   1      49.927  34.736  52.875  0.00  0.00    -0.212 N 
ATOM      2  C   UNL d   1      49.460  34.713  52.200  0.00  0.00     0.169 A 
ATOM      3  N   UNL d   1      49.542  35.162  53.447  0.00  0.00    -0.162 NA
ATOM      4  C   UNL d   1      48.769  35.134  52.360  0.00  0.00     0.081 A 
ATOM      5  C   UNL d   1      48.818  35.413  53.132  0.00  0.00     0.126 A 
ATOM      6  C   UNL d   1      48.188  35.208  51.784  0.00  0.00     0.117 A 
ATOM      7  N   UNL d   1      49.570  34.365  51.463  0.00  0.00    -0.205 NA
ATOM      8  N   UNL d   1      48.296  34.860  51.043  0.00  0.00    -0.217 NA
ATOM      9  C   UNL d   1      48.987  34.438  50.883  0.00  0.00     0.201 A 
ENDROOT
BRANCH   6  10
ATOM     10  S   UNL d   1      47.497  35.629  51.944  0.00  0.00    -0.067 SA
BRANCH  10  11
ATOM     11  C   UNL d   1      46.869  35.596  51.425  0.00  0.00     0.038 C 
BRANCH  11  12
ATOM     12  C   UNL d   1      46.109  35.783  51.685  0.00  0.00     0.026 A 
ATOM     13  C   UNL d   1      45.956  36.523  52.019  0.00  0.00     0.099 A 
ATOM     14  N   UNL d   1      45.196  36.709  52.278  0.00  0.00    -0.242 NA
ATOM     15  C   UNL d   1      44.580  36.158  52.208  0.00  0.00     0.099 A 
ATOM     16  C   UNL d   1      44.739  35.417  51.872  0.00  0.00     0.021 A 
ATOM     17  C   UNL d   1      45.500  35.230  51.612  0.00  0.00     0.004 A 
ENDBRANCH  11  12
ENDBRANCH  10  11
ENDBRANCH   6  10
BRANCH   1  18
ATOM     18  C   UNL d   1      50.665  34.356  52.883  0.00  0.00     0.085 A 
ATOM     19  C   UNL d   1      50.738  33.608  53.215  0.00  0.00     0.021 A 
ATOM     20  C   UNL d   1      51.464  33.232  53.224  0.00  0.00     0.031 A 
ATOM     21  C   UNL d   1      52.130  33.600  52.899  0.00  0.00     0.140 A 
ATOM     22  C   UNL d   1      52.045  34.360  52.564  0.00  0.00     0.031 A 
ATOM     23  F   UNL d   1      52.869  33.221  52.907  0.00  0.00    -0.204 F 
ATOM     24  C   UNL d   1      51.318  34.728  52.559  0.00  0.00     0.021 A 
ENDBRANCH   1  18
TORSDOF 4
ENDMDL
