MODEL 1
REMARK VINA RESULT:      35.0      0.000      0.000
REMARK  4 active torsions:
REMARK  status: ('A' for Active; 'I' for Inactive)
REMARK    1  A    between atoms: C_7  and  C_2 
REMARK    2  A    between atoms: C_6  and  C_3 
REMARK    3  A    between atoms: C_11  and  C_6 
REMARK    4  A    between atoms: N_10  and  C_9 
ROOT
ATOM      1  N   UNL d   1      57.639  49.394  50.578  0.00  0.00    -0.220 NA
ATOM      2  C   UNL d   1      56.846  49.268  50.366  0.00  0.00     0.161 A 
ATOM      3  C   UNL d   1      57.657  49.548  51.389  0.00  0.00     0.146 A 
ATOM      4  O   UNL d   1      56.387  49.345  51.050  0.00  0.00    -0.257 OA
ATOM      5  C   UNL d   1      56.886  49.518  51.680  0.00  0.00     0.319 A 
ATOM      6  O   UNL d   1      56.664  49.641  52.470  0.00  0.00    -0.257 OA
ENDROOT
BRANCH   3   7
ATOM      7  C   UNL d   1      58.335  49.706  51.833  0.00  0.00     0.025 C 
BRANCH   7   8
ATOM      8  C   UNL d   1      59.088  49.654  51.478  0.00  0.00     0.002 A 
ATOM      9  C   UNL d   1      59.758  49.661  51.950  0.00  0.00     0.002 A 
ATOM     10  C   UNL d   1      60.503  49.611  51.613  0.00  0.00     0.018 A 
ATOM     11  C   UNL d   1      60.574  49.552  50.786  0.00  0.00     0.064 A 
ATOM     12  C   UNL d   1      59.896  49.545  50.311  0.00  0.00     0.018 A 
ATOM     13  C   UNL d   1      59.156  49.595  50.658  0.00  0.00     0.002 A 
BRANCH  11  14
ATOM     14  N   UNL d   1      61.314  49.501  50.439  0.00  0.00    -0.301 N 
ATOM     15  C   UNL d   1      61.419  49.696  49.647  0.00  0.00     0.100 C 
ATOM     16  C   UNL d   1      61.962  49.251  50.889  0.00  0.00     0.100 C 
ENDBRANCH  11  14
ENDBRANCH   7   8
ENDBRANCH   3   7
BRANCH   2  17
ATOM     17  C   UNL d   1      56.574  49.098  49.618  0.00  0.00     0.058 C 
ATOM     18  C   UNL d   1      56.407  48.329  49.404  0.00  0.00     0.008 C 
ATOM     19  C   UNL d   1      56.297  48.848  48.888  0.00  0.00     0.008 C 
ATOM     20  C   UNL d   1      56.465  49.708  49.072  0.00  0.00     0.008 C 
ENDBRANCH   2  17
TORSDOF 4
ENDMDL
MODEL 2
REMARK VINA RESULT:      35.6      1.875      4.397
REMARK  4 active torsions:
REMARK  status: ('A' for Active; 'I' for Inactive)
REMARK    1  A    between atoms: C_7  and  C_2 
REMARK    2  A    between atoms: C_6  and  C_3 
REMARK    3  A    between atoms: C_11  and  C_6 
REMARK    4  A    between atoms: N_10  and  C_9 
ROOT
ATOM      1  N   UNL d   1      60.284  49.609  51.297  0.00  0.00    -0.220 NA
ATOM      2  C   UNL d   1      60.912  49.230  51.685  0.00  0.00     0.161 A 
ATOM      3  C   UNL d   1      60.322  49.399  50.499  0.00  0.00     0.146 A 
ATOM      4  O   UNL d   1      61.330  48.791  51.121  0.00  0.00    -0.257 OA
ATOM      5  C   UNL d   1      60.966  48.896  50.391  0.00  0.00     0.319 A 
ATOM      6  O   UNL d   1      61.199  48.560  49.668  0.00  0.00    -0.257 OA
ENDROOT
BRANCH   3   7
ATOM      7  C   UNL d   1      59.802  49.652  49.910  0.00  0.00     0.025 C 
BRANCH   7   8
ATOM      8  C   UNL d   1      58.979  49.638  50.045  0.00  0.00     0.002 A 
ATOM      9  C   UNL d   1      58.465  49.702  49.411  0.00  0.00     0.002 A 
ATOM     10  C   UNL d   1      57.655  49.688  49.530  0.00  0.00     0.018 A 
ATOM     11  C   UNL d   1      57.358  49.609  50.304  0.00  0.00     0.064 A 
ATOM     12  C   UNL d   1      57.879  49.545  50.944  0.00  0.00     0.018 A 
ATOM     13  C   UNL d   1      58.688  49.559  50.813  0.00  0.00     0.002 A 
BRANCH  11  14
ATOM     14  N   UNL d   1      56.549  49.595  50.435  0.00  0.00    -0.301 N 
ATOM     15  C   UNL d   1      56.246  49.703  51.192  0.00  0.00     0.100 C 
ATOM     16  C   UNL d   1      56.033  49.471  49.800  0.00  0.00     0.100 C 
ENDBRANCH  11  14
ENDBRANCH   7   8
ENDBRANCH   3   7
BRANCH   2  17
ATOM     17  C   UNL d   1      61.083  49.282  52.479  0.00  0.00     0.058 C 
ATOM     18  C   UNL d   1      61.733  49.704  52.734  0.00  0.00     0.008 C 
ATOM     19  C   UNL d   1      61.321  49.381  53.257  0.00  0.00     0.008 C 
ATOM     20  C   UNL d   1      60.597  48.906  53.030  0.00  0.00     0.008 C 
ENDBRANCH   2  17
TORSDOF 4
ENDMDL
