MODEL 1
REMARK VINA RESULT:      63.6      0.000      0.000
REMARK  2 active torsions:
REMARK  status: ('A' for Active; 'I' for Inactive)
REMARK    1  A    between atoms: C_3  and  C_1 
REMARK       I    between atoms: N_6  and  C_3 
REMARK    2  A    between atoms: C_16  and  N_7 
ROOT
ATOM      1  C   UNL d   1      13.316  13.635  -4.514  0.00  0.00     0.270 C 
ATOM      2  N   UNL d   1      13.523  13.320  -3.779  0.00  0.00    -0.269 N 
ATOM      3  N   UNL d   1      13.941  12.700  -2.314  0.00  0.00    -0.301 N 
ATOM      4  O   UNL d   1      12.769  13.240  -4.991  0.00  0.00    -0.266 OA
ATOM      5  C   UNL d   1      14.069  13.717  -3.307  0.00  0.00     0.102 A 
ATOM      6  C   UNL d   1      13.189  12.619  -3.522  0.00  0.00     0.102 A 
ATOM      7  C   UNL d   1      13.398  12.307  -2.787  0.00  0.00     0.100 A 
ATOM      8  C   UNL d   1      14.280  13.409  -2.573  0.00  0.00     0.100 A 
ENDROOT
BRANCH   1   9
ATOM      9  C   UNL d   1      13.655  14.343  -4.770  0.00  0.00     0.120 A 
ATOM     10  C   UNL d   1      13.872  14.440  -5.559  0.00  0.00     0.305 A 
ATOM     11  O   UNL d   1      14.215  15.155  -5.818  0.00  0.00    -0.273 OA
ATOM     12  O   UNL d   1      13.748  13.824  -6.095  0.00  0.00    -0.259 OA
ATOM     13  C   UNL d   1      14.338  15.772  -5.277  0.00  0.00     0.103 A 
ATOM     14  C   UNL d   1      14.123  15.680  -4.487  0.00  0.00     0.023 A 
ATOM     15  C   UNL d   1      14.678  16.479  -5.533  0.00  0.00     0.025 A 
ATOM     16  C   UNL d   1      13.780  14.965  -4.226  0.00  0.00     0.012 A 
ATOM     17  C   UNL d   1      14.247  16.295  -3.951  0.00  0.00     0.002 A 
ATOM     18  C   UNL d   1      14.585  16.999  -4.208  0.00  0.00     0.000 A 
ATOM     19  C   UNL d   1      14.800  17.091  -4.998  0.00  0.00     0.002 A 
ENDBRANCH   1   9
BRANCH   3  20
ATOM     20  C   UNL d   1      14.154  12.394  -1.579  0.00  0.00     0.064 A 
ATOM     21  C   UNL d   1      14.949  12.342  -1.361  0.00  0.00     0.018 A 
ATOM     22  C   UNL d   1      15.159  12.035  -0.625  0.00  0.00     0.002 A 
ATOM     23  C   UNL d   1      14.570  11.780  -0.107  0.00  0.00     0.000 A 
ATOM     24  C   UNL d   1      13.772  11.831  -0.324  0.00  0.00     0.002 A 
ATOM     25  C   UNL d   1      13.569  12.138  -1.061  0.00  0.00     0.018 A 
ENDBRANCH   3  20
TORSDOF 2
ENDMDL
