MODEL 1
REMARK VINA RESULT:      10.3      0.000      0.000
REMARK  4 active torsions:
REMARK  status: ('A' for Active; 'I' for Inactive)
REMARK    1  A    between atoms: C_11  and  N_1 
REMARK    2  A    between atoms: S_7  and  C_2 
REMARK    3  A    between atoms: C_13  and  S_7 
REMARK    4  A    between atoms: C_8  and  C_13 
REMARK       I    between atoms: N_9  and  C_8 
ROOT
ATOM      1  N   UNL d   1     -41.636-122.447 -52.735  0.00  0.00    -0.254 N 
ATOM      2  C   UNL d   1     -41.602-121.646 -52.925  0.00  0.00     0.182 A 
ATOM      3  C   UNL d   1     -41.667-123.013 -53.336  0.00  0.00     0.274 A 
ATOM      4  C   UNL d   1     -41.665-122.774 -54.122  0.00  0.00     0.104 A 
ATOM      5  N   UNL d   1     -41.599-121.409 -53.715  0.00  0.00    -0.222 NA
ATOM      6  C   UNL d   1     -41.631-121.973 -54.311  0.00  0.00     0.095 A 
ATOM      7  S   UNL d   1     -41.691-123.199 -54.826  0.00  0.00    -0.080 SA
ATOM      8  O   UNL d   1     -41.701-123.815 -53.146  0.00  0.00    -0.266 OA
ATOM      9  C   UNL d   1     -41.636-121.903 -55.133  0.00  0.00     0.027 A 
ATOM     10  C   UNL d   1     -41.673-122.655 -55.449  0.00  0.00     0.037 A 
ENDROOT
BRANCH   2  11
ATOM     11  S   UNL d   1     -41.570-121.070 -52.322  0.00  0.00    -0.044 SA
BRANCH  11  12
ATOM     12  C   UNL d   1     -41.133-120.380 -52.441  0.00  0.00     0.099 C 
BRANCH  12  13
ATOM     13  C   UNL d   1     -41.128-119.791 -51.863  0.00  0.00     0.271 C 
ATOM     14  N   UNL d   1     -41.128-118.997 -52.083  0.00  0.00    -0.272 N 
ATOM     15  C   UNL d   1     -41.133-118.636 -52.826  0.00  0.00     0.083 A 
ATOM     16  C   UNL d   1     -41.123-118.409 -51.509  0.00  0.00     0.083 A 
ATOM     17  C   UNL d   1     -41.130-117.816 -52.696  0.00  0.00     0.021 A 
ATOM     18  C   UNL d   1     -41.124-117.679 -51.893  0.00  0.00     0.021 A 
ATOM     19  O   UNL d   1     -41.123-119.997 -51.063  0.00  0.00    -0.266 OA
ENDBRANCH  12  13
ENDBRANCH  11  12
ENDBRANCH   2  11
BRANCH   1  20
ATOM     20  C   UNL d   1     -41.639-122.686 -51.953  0.00  0.00     0.069 A 
ATOM     21  C   UNL d   1     -41.159-123.310 -51.707  0.00  0.00     0.018 A 
ATOM     22  C   UNL d   1     -41.165-123.548 -50.918  0.00  0.00     0.002 A 
ATOM     23  C   UNL d   1     -41.651-123.163 -50.373  0.00  0.00     0.000 A 
ATOM     24  C   UNL d   1     -42.131-122.539 -50.620  0.00  0.00     0.002 A 
ATOM     25  C   UNL d   1     -41.662-123.399 -49.570  0.00  0.00     0.000 C 
ATOM     26  C   UNL d   1     -42.125-122.300 -51.410  0.00  0.00     0.018 A 
ENDBRANCH   1  20
TORSDOF 4
ENDMDL
MODEL 2
REMARK VINA RESULT:      11.5      0.984      2.905
REMARK  4 active torsions:
REMARK  status: ('A' for Active; 'I' for Inactive)
REMARK    1  A    between atoms: C_11  and  N_1 
REMARK    2  A    between atoms: S_7  and  C_2 
REMARK    3  A    between atoms: C_13  and  S_7 
REMARK    4  A    between atoms: C_8  and  C_13 
REMARK       I    between atoms: N_9  and  C_8 
ROOT
ATOM      1  N   UNL d   1     -41.690-122.429 -52.777  0.00  0.00    -0.254 N 
ATOM      2  C   UNL d   1     -41.475-121.761 -52.345  0.00  0.00     0.182 A 
ATOM      3  C   UNL d   1     -41.828-123.145 -52.390  0.00  0.00     0.274 A 
ATOM      4  C   UNL d   1     -41.751-123.188 -51.573  0.00  0.00     0.104 A 
ATOM      5  N   UNL d   1     -41.398-121.808 -51.525  0.00  0.00    -0.222 NA
ATOM      6  C   UNL d   1     -41.536-122.520 -51.141  0.00  0.00     0.095 A 
ATOM      7  S   UNL d   1     -41.850-123.810 -51.043  0.00  0.00    -0.080 SA
ATOM      8  O   UNL d   1     -42.043-123.813 -52.822  0.00  0.00    -0.266 OA
ATOM      9  C   UNL d   1     -41.503-122.729 -50.344  0.00  0.00     0.027 A 
ATOM     10  C   UNL d   1     -41.695-123.521 -50.284  0.00  0.00     0.037 A 
ENDROOT
BRANCH   2  11
ATOM     11  S   UNL d   1     -41.334-121.036 -52.731  0.00  0.00    -0.044 SA
BRANCH  11  12
ATOM     12  C   UNL d   1     -41.220-120.351 -52.284  0.00  0.00     0.099 C 
BRANCH  12  13
ATOM     13  C   UNL d   1     -41.206-119.613 -52.655  0.00  0.00     0.271 C 
ATOM     14  N   UNL d   1     -41.178-118.925 -52.203  0.00  0.00    -0.272 N 
ATOM     15  C   UNL d   1     -41.160-118.809 -51.386  0.00  0.00     0.083 A 
ATOM     16  C   UNL d   1     -41.164-118.190 -52.569  0.00  0.00     0.083 A 
ATOM     17  C   UNL d   1     -41.134-117.989 -51.258  0.00  0.00     0.021 A 
ATOM     18  C   UNL d   1     -41.137-117.613 -51.982  0.00  0.00     0.021 A 
ATOM     19  O   UNL d   1     -41.220-119.566 -53.479  0.00  0.00    -0.266 OA
ENDBRANCH  12  13
ENDBRANCH  11  12
ENDBRANCH   2  11
BRANCH   1  20
ATOM     20  C   UNL d   1     -41.767-122.387 -53.590  0.00  0.00     0.069 A 
ATOM     21  C   UNL d   1     -41.125-122.559 -54.079  0.00  0.00     0.018 A 
ATOM     22  C   UNL d   1     -41.208-122.516 -54.898  0.00  0.00     0.002 A 
ATOM     23  C   UNL d   1     -41.932-122.301 -55.230  0.00  0.00     0.000 A 
ATOM     24  C   UNL d   1     -42.574-122.129 -54.741  0.00  0.00     0.002 A 
ATOM     25  C   UNL d   1     -42.023-122.255 -56.061  0.00  0.00     0.000 C 
ATOM     26  C   UNL d   1     -42.492-122.173 -53.921  0.00  0.00     0.018 A 
ENDBRANCH   1  20
TORSDOF 4
ENDMDL
