MODEL 1
REMARK VINA RESULT:      57.1      0.000      0.000
REMARK  5 active torsions:
REMARK  status: ('A' for Active; 'I' for Inactive)
REMARK    1  A    between atoms: C_6  and  C_1 
REMARK    2  A    between atoms: C_7  and  C_5 
REMARK       I    between atoms: N_13  and  C_6 
REMARK    3  A    between atoms: C_8  and  C_12 
REMARK    4  A    between atoms: N_9  and  N_13 
REMARK    5  A    between atoms: C_12  and  N_9 
ROOT
ATOM      1  C   UNL d   1     -48.730  28.358  35.037  0.00  0.00     0.164 A 
ATOM      2  C   UNL d   1     -48.963  28.924  34.480  0.00  0.00     0.047 A 
ATOM      3  N   UNL d   1     -47.803  29.288  35.588  0.00  0.00    -0.148 NA
ATOM      4  N   UNL d   1     -48.151  28.536  35.592  0.00  0.00    -0.143 NA
ATOM      5  C   UNL d   1     -48.037  29.854  35.030  0.00  0.00     0.105 A 
ENDROOT
BRANCH   1   6
ATOM      6  C   UNL d   1     -49.083  27.610  35.033  0.00  0.00     0.316 C 
ATOM      7  N   UNL d   1     -49.515  27.209  34.255  0.00  0.00    -0.104 NA
ATOM      8  O   UNL d   1     -49.080  27.158  35.726  0.00  0.00    -0.262 OA
BRANCH   7   9
ATOM      9  N   UNL d   1     -49.975  26.318  34.122  0.00  0.00    -0.143 NA
BRANCH   9  10
ATOM     10  C   UNL d   1     -50.342  26.121  33.363  0.00  0.00     0.129 C 
BRANCH  10  11
ATOM     11  C   UNL d   1     -51.080  25.660  33.343  0.00  0.00     0.050 A 
ATOM     12  S   UNL d   1     -51.053  24.903  33.325  0.00  0.00    -0.085 SA
ATOM     13  C   UNL d   1     -51.699  24.500  33.307  0.00  0.00     0.035 A 
ATOM     14  C   UNL d   1     -52.371  24.855  33.307  0.00  0.00     0.007 A 
ATOM     15  C   UNL d   1     -51.753  26.015  33.343  0.00  0.00     0.009 A 
ENDBRANCH  10  11
ENDBRANCH   9  10
ENDBRANCH   7   9
ENDBRANCH   1   6
BRANCH   5  16
ATOM     16  C   UNL d   1     -47.823  30.633  34.863  0.00  0.00     0.019 A 
ATOM     17  C   UNL d   1     -48.254  31.062  34.306  0.00  0.00     0.002 A 
ATOM     18  C   UNL d   1     -48.042  31.844  34.135  0.00  0.00     0.000 A 
ATOM     19  C   UNL d   1     -48.469  32.276  33.580  0.00  0.00     0.000 A 
ATOM     20  C   UNL d   1     -47.395  32.191  34.527  0.00  0.00     0.000 A 
ATOM     21  C   UNL d   1     -48.259  33.052  33.411  0.00  0.00     0.000 A 
ATOM     22  C   UNL d   1     -47.615  33.405  33.797  0.00  0.00     0.000 A 
ATOM     23  C   UNL d   1     -47.184  32.976  34.354  0.00  0.00     0.000 A 
ATOM     24  C   UNL d   1     -46.976  31.756  35.076  0.00  0.00     0.000 A 
ATOM     25  C   UNL d   1     -47.191  30.977  35.244  0.00  0.00     0.002 A 
ENDBRANCH   5  16
TORSDOF 5
ENDMDL
MODEL 2
REMARK VINA RESULT:      57.4      1.280      1.858
REMARK  5 active torsions:
REMARK  status: ('A' for Active; 'I' for Inactive)
REMARK    1  A    between atoms: C_6  and  C_1 
REMARK    2  A    between atoms: C_7  and  C_5 
REMARK       I    between atoms: N_13  and  C_6 
REMARK    3  A    between atoms: C_8  and  C_12 
REMARK    4  A    between atoms: N_9  and  N_13 
REMARK    5  A    between atoms: C_12  and  N_9 
ROOT
ATOM      1  C   UNL d   1     -49.732  27.740  34.092  0.00  0.00     0.164 A 
ATOM      2  C   UNL d   1     -49.830  28.551  34.225  0.00  0.00     0.047 A 
ATOM      3  N   UNL d   1     -48.431  27.806  34.666  0.00  0.00    -0.148 NA
ATOM      4  N   UNL d   1     -49.035  27.365  34.311  0.00  0.00    -0.143 NA
ATOM      5  C   UNL d   1     -48.529  28.618  34.799  0.00  0.00     0.105 A 
ENDROOT
BRANCH   1   6
ATOM      6  C   UNL d   1     -50.341  27.308  33.736  0.00  0.00     0.316 C 
ATOM      7  N   UNL d   1     -50.418  26.335  33.764  0.00  0.00    -0.104 NA
ATOM      8  O   UNL d   1     -50.935  27.712  33.324  0.00  0.00    -0.262 OA
BRANCH   7   9
ATOM      9  N   UNL d   1     -51.103  25.700  33.377  0.00  0.00    -0.143 NA
BRANCH   9  10
ATOM     10  C   UNL d   1     -51.084  24.858  33.577  0.00  0.00     0.129 C 
BRANCH  10  11
ATOM     11  C   UNL d   1     -51.800  24.372  33.480  0.00  0.00     0.050 A 
ATOM     12  S   UNL d   1     -51.740  23.619  33.418  0.00  0.00    -0.085 SA
ATOM     13  C   UNL d   1     -52.365  23.194  33.333  0.00  0.00     0.035 A 
ATOM     14  C   UNL d   1     -53.051  23.522  33.310  0.00  0.00     0.007 A 
ATOM     15  C   UNL d   1     -52.485  24.700  33.457  0.00  0.00     0.009 A 
ENDBRANCH  10  11
ENDBRANCH   9  10
ENDBRANCH   7   9
ENDBRANCH   1   6
BRANCH   5  16
ATOM     16  C   UNL d   1     -48.067  29.216  35.128  0.00  0.00     0.019 A 
ATOM     17  C   UNL d   1     -48.165  29.993  34.871  0.00  0.00     0.002 A 
ATOM     18  C   UNL d   1     -47.702  30.597  35.198  0.00  0.00     0.000 A 
ATOM     19  C   UNL d   1     -47.797  31.374  34.945  0.00  0.00     0.000 A 
ATOM     20  C   UNL d   1     -47.141  30.414  35.785  0.00  0.00     0.000 A 
ATOM     21  C   UNL d   1     -47.338  31.973  35.270  0.00  0.00     0.000 A 
ATOM     22  C   UNL d   1     -46.776  31.799  35.855  0.00  0.00     0.000 A 
ATOM     23  C   UNL d   1     -46.678  31.022  36.112  0.00  0.00     0.000 A 
ATOM     24  C   UNL d   1     -47.052  29.641  36.031  0.00  0.00     0.000 A 
ATOM     25  C   UNL d   1     -47.516  29.043  35.702  0.00  0.00     0.002 A 
ENDBRANCH   5  16
TORSDOF 5
ENDMDL
MODEL 3
REMARK VINA RESULT:      58.0      1.811      6.997
REMARK  5 active torsions:
REMARK  status: ('A' for Active; 'I' for Inactive)
REMARK    1  A    between atoms: C_6  and  C_1 
REMARK    2  A    between atoms: C_7  and  C_5 
REMARK       I    between atoms: N_13  and  C_6 
REMARK    3  A    between atoms: C_8  and  C_12 
REMARK    4  A    between atoms: N_9  and  N_13 
REMARK    5  A    between atoms: C_12  and  N_9 
ROOT
ATOM      1  C   UNL d   1     -49.313  26.680  34.433  0.00  0.00     0.164 A 
ATOM      2  C   UNL d   1     -49.671  26.108  34.913  0.00  0.00     0.047 A 
ATOM      3  N   UNL d   1     -50.033  26.184  33.310  0.00  0.00    -0.148 NA
ATOM      4  N   UNL d   1     -49.492  26.721  33.632  0.00  0.00    -0.143 NA
ATOM      5  C   UNL d   1     -50.391  25.612  33.790  0.00  0.00     0.105 A 
ENDROOT
BRANCH   1   6
ATOM      6  C   UNL d   1     -48.773  27.211  34.765  0.00  0.00     0.316 C 
ATOM      7  N   UNL d   1     -48.964  28.152  34.946  0.00  0.00    -0.104 NA
ATOM      8  O   UNL d   1     -48.014  26.946  34.964  0.00  0.00    -0.262 OA
BRANCH   7   9
ATOM      9  N   UNL d   1     -48.400  28.892  35.342  0.00  0.00    -0.143 NA
BRANCH   9  10
ATOM     10  C   UNL d   1     -47.978  29.446  34.828  0.00  0.00     0.129 C 
BRANCH  10  11
ATOM     11  C   UNL d   1     -47.659  30.187  35.156  0.00  0.00     0.050 A 
ATOM     12  S   UNL d   1     -47.513  30.772  34.696  0.00  0.00    -0.085 SA
ATOM     13  C   UNL d   1     -47.234  31.420  34.983  0.00  0.00     0.035 A 
ATOM     14  C   UNL d   1     -47.101  31.482  35.728  0.00  0.00     0.007 A 
ATOM     15  C   UNL d   1     -47.526  30.250  35.901  0.00  0.00     0.009 A 
ENDBRANCH  10  11
ENDBRANCH   9  10
ENDBRANCH   7   9
ENDBRANCH   1   6
BRANCH   5  16
ATOM     16  C   UNL d   1     -50.938  25.006  33.669  0.00  0.00     0.019 A 
ATOM     17  C   UNL d   1     -51.744  25.168  33.727  0.00  0.00     0.002 A 
ATOM     18  C   UNL d   1     -52.295  24.562  33.606  0.00  0.00     0.000 A 
ATOM     19  C   UNL d   1     -53.101  24.719  33.664  0.00  0.00     0.000 A 
ATOM     20  C   UNL d   1     -52.031  23.794  33.426  0.00  0.00     0.000 A 
ATOM     21  C   UNL d   1     -53.648  24.119  33.544  0.00  0.00     0.000 A 
ATOM     22  C   UNL d   1     -53.393  23.350  33.364  0.00  0.00     0.000 A 
ATOM     23  C   UNL d   1     -52.587  23.188  33.306  0.00  0.00     0.000 A 
ATOM     24  C   UNL d   1     -51.231  23.646  33.371  0.00  0.00     0.000 A 
ATOM     25  C   UNL d   1     -50.684  24.252  33.492  0.00  0.00     0.002 A 
ENDBRANCH   5  16
TORSDOF 5
ENDMDL
