MODEL 1
REMARK VINA RESULT:      -3.2      0.000      0.000
REMARK  0 active torsions:
REMARK  status: ('A' for Active; 'I' for Inactive)
ROOT
ATOM      1  N   UNL d   1      29.787  16.754 -24.054  0.00  0.00    -0.273 N 
ATOM      2  C   UNL d   1      30.070  16.140 -23.604  0.00  0.00     0.068 A 
ATOM      3  C   UNL d   1      28.969  16.873 -24.125  0.00  0.00     0.265 A 
ATOM      4  C   UNL d   1      30.883  16.027 -23.536  0.00  0.00     0.035 A 
ATOM      5  C   UNL d   1      30.316  17.261 -24.440  0.00  0.00     0.085 A 
ATOM      6  C   UNL d   1      29.536  15.638 -23.221  0.00  0.00     0.018 A 
ATOM      7  N   UNL d   1      32.296  16.470 -23.893  0.00  0.00    -0.242 NA
ATOM      8  C   UNL d   1      31.416  16.528 -23.919  0.00  0.00     0.006 A 
ATOM      9  C   UNL d   1      31.134  17.143 -24.368  0.00  0.00     0.037 A 
ATOM     10  C   UNL d   1      28.719  15.751 -23.288  0.00  0.00     0.006 A 
ATOM     11  C   UNL d   1      28.436  16.365 -23.738  0.00  0.00     0.061 A 
ATOM     12  O   UNL d   1      28.689  17.491 -24.578  0.00  0.00    -0.267 OA
ATOM     13  C   UNL d   1      31.698  15.928 -23.479  0.00  0.00     0.100 A 
ATOM     14  C   UNL d   1      31.952  17.074 -24.334  0.00  0.00     0.100 A 
ENDROOT
TORSDOF 0
ENDMDL
MODEL 2
REMARK VINA RESULT:      -3.1      1.309      2.892
REMARK  0 active torsions:
REMARK  status: ('A' for Active; 'I' for Inactive)
ROOT
ATOM      1  N   UNL d   1      30.788  16.133 -23.624  0.00  0.00    -0.273 N 
ATOM      2  C   UNL d   1      30.393  16.715 -24.031  0.00  0.00     0.068 A 
ATOM      3  C   UNL d   1      31.618  16.142 -23.591  0.00  0.00     0.265 A 
ATOM      4  C   UNL d   1      29.570  16.702 -24.061  0.00  0.00     0.035 A 
ATOM      5  C   UNL d   1      30.363  15.533 -23.243  0.00  0.00     0.085 A 
ATOM      6  C   UNL d   1      30.824  17.311 -24.408  0.00  0.00     0.018 A 
ATOM      7  N   UNL d   1      28.261  16.027 -23.671  0.00  0.00    -0.242 NA
ATOM      8  C   UNL d   1      29.140  16.106 -23.683  0.00  0.00     0.006 A 
ATOM      9  C   UNL d   1      29.534  15.525 -23.277  0.00  0.00     0.037 A 
ATOM     10  C   UNL d   1      31.651  17.325 -24.379  0.00  0.00     0.006 A 
ATOM     11  C   UNL d   1      32.046  16.744 -23.973  0.00  0.00     0.061 A 
ATOM     12  O   UNL d   1      32.011  15.556 -23.182  0.00  0.00    -0.267 OA
ATOM     13  C   UNL d   1      28.747  16.674 -24.080  0.00  0.00     0.100 A 
ATOM     14  C   UNL d   1      28.715  15.465 -23.275  0.00  0.00     0.100 A 
ENDROOT
TORSDOF 0
ENDMDL
MODEL 3
REMARK VINA RESULT:      -3.0      5.849      6.522
REMARK  0 active torsions:
REMARK  status: ('A' for Active; 'I' for Inactive)
ROOT
ATOM      1  N   UNL d   1      32.685  22.391 -21.947  0.00  0.00    -0.273 N 
ATOM      2  C   UNL d   1      32.458  22.091 -21.228  0.00  0.00     0.068 A 
ATOM      3  C   UNL d   1      32.584  23.199 -22.109  0.00  0.00     0.265 A 
ATOM      4  C   UNL d   1      32.560  21.288 -21.072  0.00  0.00     0.035 A 
ATOM      5  C   UNL d   1      33.016  21.891 -22.518  0.00  0.00     0.085 A 
ATOM      6  C   UNL d   1      32.128  22.596 -20.663  0.00  0.00     0.018 A 
ATOM      7  N   UNL d   1      33.030  19.917 -21.544  0.00  0.00    -0.242 NA
ATOM      8  C   UNL d   1      32.890  20.784 -21.637  0.00  0.00     0.006 A 
ATOM      9  C   UNL d   1      33.116  21.084 -22.357  0.00  0.00     0.037 A 
ATOM     10  C   UNL d   1      32.024  23.402 -20.817  0.00  0.00     0.006 A 
ATOM     11  C   UNL d   1      32.251  23.702 -21.537  0.00  0.00     0.061 A 
ATOM     12  O   UNL d   1      32.813  23.497 -22.832  0.00  0.00    -0.267 OA
ATOM     13  C   UNL d   1      32.669  20.484 -20.933  0.00  0.00     0.100 A 
ATOM     14  C   UNL d   1      33.240  20.278 -22.253  0.00  0.00     0.100 A 
ENDROOT
TORSDOF 0
ENDMDL
MODEL 4
REMARK VINA RESULT:      -3.0      1.004      2.528
REMARK  0 active torsions:
REMARK  status: ('A' for Active; 'I' for Inactive)
ROOT
ATOM      1  N   UNL d   1      30.630  16.564 -24.064  0.00  0.00    -0.273 N 
ATOM      2  C   UNL d   1      30.573  15.941 -23.546  0.00  0.00     0.068 A 
ATOM      3  C   UNL d   1      31.377  16.819 -24.325  0.00  0.00     0.265 A 
ATOM      4  C   UNL d   1      29.831  15.692 -23.290  0.00  0.00     0.035 A 
ATOM      5  C   UNL d   1      29.945  16.945 -24.331  0.00  0.00     0.085 A 
ATOM      6  C   UNL d   1      31.262  15.566 -23.285  0.00  0.00     0.018 A 
ATOM      7  N   UNL d   1      28.317  15.858 -23.323  0.00  0.00    -0.242 NA
ATOM      8  C   UNL d   1      29.143  16.067 -23.552  0.00  0.00     0.006 A 
ATOM      9  C   UNL d   1      29.200  16.690 -24.070  0.00  0.00     0.037 A 
ATOM     10  C   UNL d   1      32.009  15.815 -23.540  0.00  0.00     0.006 A 
ATOM     11  C   UNL d   1      32.066  16.438 -24.058  0.00  0.00     0.061 A 
ATOM     12  O   UNL d   1      31.430  17.445 -24.844  0.00  0.00    -0.267 OA
ATOM     13  C   UNL d   1      29.081  15.456 -23.045  0.00  0.00     0.100 A 
ATOM     14  C   UNL d   1      28.437  16.482 -23.846  0.00  0.00     0.100 A 
ENDROOT
TORSDOF 0
ENDMDL
MODEL 5
REMARK VINA RESULT:      -3.0      0.905      1.556
REMARK  0 active torsions:
REMARK  status: ('A' for Active; 'I' for Inactive)
ROOT
ATOM      1  N   UNL d   1      30.291  16.505 -23.932  0.00  0.00    -0.273 N 
ATOM      2  C   UNL d   1      30.402  17.194 -24.347  0.00  0.00     0.068 A 
ATOM      3  C   UNL d   1      29.542  16.148 -23.917  0.00  0.00     0.265 A 
ATOM      4  C   UNL d   1      31.148  17.545 -24.360  0.00  0.00     0.035 A 
ATOM      5  C   UNL d   1      30.924  16.161 -23.525  0.00  0.00     0.085 A 
ATOM      6  C   UNL d   1      29.765  17.532 -24.751  0.00  0.00     0.018 A 
ATOM      7  N   UNL d   1      32.607  17.523 -23.923  0.00  0.00    -0.242 NA
ATOM      8  C   UNL d   1      31.784  17.207 -23.956  0.00  0.00     0.006 A 
ATOM      9  C   UNL d   1      31.673  16.518 -23.541  0.00  0.00     0.037 A 
ATOM     10  C   UNL d   1      29.016  17.182 -24.740  0.00  0.00     0.006 A 
ATOM     11  C   UNL d   1      28.905  16.493 -24.325  0.00  0.00     0.061 A 
ATOM     12  O   UNL d   1      29.434  15.456 -23.499  0.00  0.00    -0.267 OA
ATOM     13  C   UNL d   1      31.899  17.882 -24.362  0.00  0.00     0.100 A 
ATOM     14  C   UNL d   1      32.434  16.826 -23.521  0.00  0.00     0.100 A 
ENDROOT
TORSDOF 0
ENDMDL
MODEL 6
REMARK VINA RESULT:      -2.8      6.178      6.877
REMARK  0 active torsions:
REMARK  status: ('A' for Active; 'I' for Inactive)
ROOT
ATOM      1  N   UNL d   1      32.983  21.819 -21.803  0.00  0.00    -0.273 N 
ATOM      2  C   UNL d   1      32.898  21.515 -21.055  0.00  0.00     0.068 A 
ATOM      3  C   UNL d   1      33.156  21.313 -22.439  0.00  0.00     0.265 A 
ATOM      4  C   UNL d   1      32.727  22.021 -20.428  0.00  0.00     0.035 A 
ATOM      5  C   UNL d   1      32.898  22.633 -21.932  0.00  0.00     0.085 A 
ATOM      6  C   UNL d   1      32.984  20.702 -20.936  0.00  0.00     0.018 A 
ATOM      7  N   UNL d   1      32.459  23.436 -19.929  0.00  0.00    -0.242 NA
ATOM      8  C   UNL d   1      32.641  22.834 -20.548  0.00  0.00     0.006 A 
ATOM      9  C   UNL d   1      32.726  23.138 -21.296  0.00  0.00     0.037 A 
ATOM     10  C   UNL d   1      33.156  20.192 -21.564  0.00  0.00     0.006 A 
ATOM     11  C   UNL d   1      33.241  20.496 -22.312  0.00  0.00     0.061 A 
ATOM     12  O   UNL d   1      33.241  21.622 -23.188  0.00  0.00    -0.267 OA
ATOM     13  C   UNL d   1      32.556  22.541 -19.813  0.00  0.00     0.100 A 
ATOM     14  C   UNL d   1      32.556  23.685 -20.708  0.00  0.00     0.100 A 
ENDROOT
TORSDOF 0
ENDMDL
MODEL 7
REMARK VINA RESULT:      -2.4      4.406      5.312
REMARK  0 active torsions:
REMARK  status: ('A' for Active; 'I' for Inactive)
ROOT
ATOM      1  N   UNL d   1      33.230  20.038 -22.803  0.00  0.00    -0.273 N 
ATOM      2  C   UNL d   1      33.230  19.744 -22.046  0.00  0.00     0.068 A 
ATOM      3  C   UNL d   1      33.235  19.516 -23.449  0.00  0.00     0.265 A 
ATOM      4  C   UNL d   1      33.225  20.267 -21.409  0.00  0.00     0.035 A 
ATOM      5  C   UNL d   1      33.225  20.856 -22.930  0.00  0.00     0.085 A 
ATOM      6  C   UNL d   1      33.235  18.926 -21.927  0.00  0.00     0.018 A 
ATOM      7  N   UNL d   1      33.214  21.702 -20.898  0.00  0.00    -0.242 NA
ATOM      8  C   UNL d   1      33.220  21.084 -21.528  0.00  0.00     0.006 A 
ATOM      9  C   UNL d   1      33.220  21.377 -22.285  0.00  0.00     0.037 A 
ATOM     10  C   UNL d   1      33.240  18.401 -22.566  0.00  0.00     0.006 A 
ATOM     11  C   UNL d   1      33.240  18.694 -23.323  0.00  0.00     0.061 A 
ATOM     12  O   UNL d   1      33.235  19.814 -24.208  0.00  0.00    -0.267 OA
ATOM     13  C   UNL d   1      33.220  20.802 -20.783  0.00  0.00     0.100 A 
ATOM     14  C   UNL d   1      33.215  21.940 -21.686  0.00  0.00     0.100 A 
ENDROOT
TORSDOF 0
ENDMDL
MODEL 8
REMARK VINA RESULT:      -2.2      6.605      7.347
REMARK  0 active torsions:
REMARK  status: ('A' for Active; 'I' for Inactive)
ROOT
ATOM      1  N   UNL d   1      32.800  22.324 -21.175  0.00  0.00    -0.273 N 
ATOM      2  C   UNL d   1      32.760  23.124 -21.310  0.00  0.00     0.068 A 
ATOM      3  C   UNL d   1      32.669  22.026 -20.411  0.00  0.00     0.265 A 
ATOM      4  C   UNL d   1      32.891  23.414 -22.070  0.00  0.00     0.035 A 
ATOM      5  C   UNL d   1      32.971  21.807 -21.798  0.00  0.00     0.085 A 
ATOM      6  C   UNL d   1      32.588  23.633 -20.682  0.00  0.00     0.018 A 
ATOM      7  N   UNL d   1      33.214  23.141 -23.533  0.00  0.00    -0.242 NA
ATOM      8  C   UNL d   1      33.062  22.905 -22.697  0.00  0.00     0.006 A 
ATOM      9  C   UNL d   1      33.102  22.105 -22.562  0.00  0.00     0.037 A 
ATOM     10  C   UNL d   1      32.457  23.343 -19.918  0.00  0.00     0.006 A 
ATOM     11  C   UNL d   1      32.497  22.544 -19.783  0.00  0.00     0.061 A 
ATOM     12  O   UNL d   1      32.710  21.223 -20.279  0.00  0.00    -0.267 OA
ATOM     13  C   UNL d   1      33.025  23.688 -22.835  0.00  0.00     0.100 A 
ATOM     14  C   UNL d   1      33.241  22.342 -23.336  0.00  0.00     0.100 A 
ENDROOT
TORSDOF 0
ENDMDL
MODEL 9
REMARK VINA RESULT:      -2.0      1.189      1.686
REMARK  0 active torsions:
REMARK  status: ('A' for Active; 'I' for Inactive)
ROOT
ATOM      1  N   UNL d   1      29.011  16.204 -24.045  0.00  0.00    -0.273 N 
ATOM      2  C   UNL d   1      29.369  16.921 -24.177  0.00  0.00     0.068 A 
ATOM      3  C   UNL d   1      28.251  16.176 -23.711  0.00  0.00     0.265 A 
ATOM      4  C   UNL d   1      30.123  16.944 -24.508  0.00  0.00     0.035 A 
ATOM      5  C   UNL d   1      29.405  15.503 -24.242  0.00  0.00     0.085 A 
ATOM      6  C   UNL d   1      28.969  17.617 -23.977  0.00  0.00     0.018 A 
ATOM      7  N   UNL d   1      31.327  16.194 -25.063  0.00  0.00    -0.242 NA
ATOM      8  C   UNL d   1      30.521  16.249 -24.707  0.00  0.00     0.006 A 
ATOM      9  C   UNL d   1      30.164  15.532 -24.575  0.00  0.00     0.037 A 
ATOM     10  C   UNL d   1      28.212  17.596 -23.645  0.00  0.00     0.006 A 
ATOM     11  C   UNL d   1      27.854  16.879 -23.513  0.00  0.00     0.061 A 
ATOM     12  O   UNL d   1      27.895  15.454 -23.580  0.00  0.00    -0.267 OA
ATOM     13  C   UNL d   1      30.876  16.949 -24.839  0.00  0.00     0.100 A 
ATOM     14  C   UNL d   1      30.915  15.498 -24.906  0.00  0.00     0.100 A 
ENDROOT
TORSDOF 0
ENDMDL
