MODEL 1
REMARK VINA RESULT:      -4.9      0.000      0.000
REMARK  3 active torsions:
REMARK  status: ('A' for Active; 'I' for Inactive)
REMARK    1  A    between atoms: C_5  and  C_1 
REMARK    2  A    between atoms: C_8  and  N_2 
REMARK    3  A    between atoms: C_10  and  C_8 
ROOT
ATOM      1  C   UNL d   1      57.212   0.192  31.619  0.00  0.00     0.166 A 
ATOM      2  N   UNL d   1      58.365   0.518  30.484  0.00  0.00    -0.302 N 
ATOM      3  C   UNL d   1      57.025   0.153  30.816  0.00  0.00     0.058 A 
ATOM      4  C   UNL d   1      57.975   0.393  31.854  0.00  0.00     0.058 A 
ATOM      5  C   UNL d   1      58.553   0.557  31.287  0.00  0.00     0.083 A 
ATOM      6  C   UNL d   1      57.601   0.317  30.248  0.00  0.00     0.083 A 
ATOM      7  O   UNL d   1      57.457   0.245  32.462  0.00  0.00    -0.290 OA
ENDROOT
BRANCH   1   8
ATOM      8  C   UNL d   1      56.636   0.028  32.185  0.00  0.00     0.036 A 
ATOM      9  C   UNL d   1      56.477  -0.765  32.401  0.00  0.00     0.003 A 
ATOM     10  C   UNL d   1      55.901  -0.916  32.966  0.00  0.00     0.000 A 
ATOM     11  C   UNL d   1      55.480  -0.294  33.321  0.00  0.00     0.000 A 
ATOM     12  C   UNL d   1      55.634   0.480  33.112  0.00  0.00     0.000 A 
ATOM     13  C   UNL d   1      56.215   0.650  32.540  0.00  0.00     0.003 A 
ENDBRANCH   1   8
BRANCH   2  14
ATOM     14  C   UNL d   1      58.942   0.682  29.918  0.00  0.00     0.080 C 
BRANCH  14  15
ATOM     15  C   UNL d   1      59.404   0.070  29.611  0.00  0.00     0.018 A 
ATOM     16  C   UNL d   1      60.165  -0.057  29.901  0.00  0.00     0.002 A 
ATOM     17  C   UNL d   1      60.626  -0.668  29.595  0.00  0.00     0.000 A 
ATOM     18  C   UNL d   1      60.331  -1.154  29.001  0.00  0.00     0.000 A 
ATOM     19  C   UNL d   1      59.569  -1.027  28.711  0.00  0.00     0.000 A 
ATOM     20  C   UNL d   1      59.103  -0.415  29.015  0.00  0.00     0.002 A 
ENDBRANCH  14  15
ENDBRANCH   2  14
TORSDOF 3
ENDMDL
MODEL 2
REMARK VINA RESULT:      -4.0      1.069      4.317
REMARK  3 active torsions:
REMARK  status: ('A' for Active; 'I' for Inactive)
REMARK    1  A    between atoms: C_5  and  C_1 
REMARK    2  A    between atoms: C_8  and  N_2 
REMARK    3  A    between atoms: C_10  and  C_8 
ROOT
ATOM      1  C   UNL d   1      59.058   0.191  30.045  0.00  0.00     0.166 A 
ATOM      2  N   UNL d   1      57.706   0.518  30.933  0.00  0.00    -0.302 N 
ATOM      3  C   UNL d   1      59.128   0.510  30.803  0.00  0.00     0.058 A 
ATOM      4  C   UNL d   1      58.312   0.036  29.731  0.00  0.00     0.058 A 
ATOM      5  C   UNL d   1      57.635   0.199  30.175  0.00  0.00     0.083 A 
ATOM      6  C   UNL d   1      58.452   0.674  31.247  0.00  0.00     0.083 A 
ATOM      7  O   UNL d   1      58.935  -0.149  29.242  0.00  0.00    -0.290 OA
ENDROOT
BRANCH   1   8
ATOM      8  C   UNL d   1      59.733   0.027  29.601  0.00  0.00     0.036 A 
ATOM      9  C   UNL d   1      60.066  -0.741  29.617  0.00  0.00     0.003 A 
ATOM     10  C   UNL d   1      60.739  -0.892  29.171  0.00  0.00     0.000 A 
ATOM     11  C   UNL d   1      61.087  -0.296  28.711  0.00  0.00     0.000 A 
ATOM     12  C   UNL d   1      60.765   0.454  28.695  0.00  0.00     0.000 A 
ATOM     13  C   UNL d   1      60.082   0.624  29.142  0.00  0.00     0.003 A 
ENDBRANCH   1   8
BRANCH   2  14
ATOM     14  C   UNL d   1      57.029   0.682  31.376  0.00  0.00     0.080 C 
BRANCH  14  15
ATOM     15  C   UNL d   1      56.786   0.157  31.965  0.00  0.00     0.018 A 
ATOM     16  C   UNL d   1      56.826   0.378  32.757  0.00  0.00     0.002 A 
ATOM     17  C   UNL d   1      56.582  -0.147  33.345  0.00  0.00     0.000 A 
ATOM     18  C   UNL d   1      56.298  -0.892  33.145  0.00  0.00     0.000 A 
ATOM     19  C   UNL d   1      56.258  -1.114  32.351  0.00  0.00     0.000 A 
ATOM     20  C   UNL d   1      56.501  -0.591  31.759  0.00  0.00     0.002 A 
ENDBRANCH  14  15
ENDBRANCH   2  14
TORSDOF 3
ENDMDL
MODEL 3
REMARK VINA RESULT:      -3.7      0.999      4.328
REMARK  3 active torsions:
REMARK  status: ('A' for Active; 'I' for Inactive)
REMARK    1  A    between atoms: C_5  and  C_1 
REMARK    2  A    between atoms: C_8  and  N_2 
REMARK    3  A    between atoms: C_10  and  C_8 
ROOT
ATOM      1  C   UNL d   1      58.269   0.255  30.520  0.00  0.00     0.166 A 
ATOM      2  N   UNL d   1      57.399   0.536  31.894  0.00  0.00    -0.302 N 
ATOM      3  C   UNL d   1      58.639   0.229  31.257  0.00  0.00     0.058 A 
ATOM      4  C   UNL d   1      57.464   0.422  30.470  0.00  0.00     0.058 A 
ATOM      5  C   UNL d   1      57.028   0.562  31.157  0.00  0.00     0.083 A 
ATOM      6  C   UNL d   1      58.204   0.369  31.944  0.00  0.00     0.083 A 
ATOM      7  O   UNL d   1      57.832   0.294  29.757  0.00  0.00    -0.290 OA
ENDROOT
BRANCH   1   8
ATOM      8  C   UNL d   1      58.704   0.115  29.834  0.00  0.00     0.036 A 
ATOM      9  C   UNL d   1      59.262   0.682  29.571  0.00  0.00     0.003 A 
ATOM     10  C   UNL d   1      59.689   0.531  28.886  0.00  0.00     0.000 A 
ATOM     11  C   UNL d   1      59.574  -0.171  28.459  0.00  0.00     0.000 A 
ATOM     12  C   UNL d   1      59.031  -0.725  28.714  0.00  0.00     0.000 A 
ATOM     13  C   UNL d   1      58.589  -0.587  29.406  0.00  0.00     0.003 A 
ENDBRANCH   1   8
BRANCH   2  14
ATOM     14  C   UNL d   1      56.963   0.676  32.580  0.00  0.00     0.080 C 
BRANCH  14  15
ATOM     15  C   UNL d   1      56.408   0.121  32.837  0.00  0.00     0.018 A 
ATOM     16  C   UNL d   1      56.620  -0.672  32.905  0.00  0.00     0.002 A 
ATOM     17  C   UNL d   1      56.065  -1.226  33.162  0.00  0.00     0.000 A 
ATOM     18  C   UNL d   1      55.300  -0.992  33.350  0.00  0.00     0.000 A 
ATOM     19  C   UNL d   1      55.088  -0.197  33.281  0.00  0.00     0.000 A 
ATOM     20  C   UNL d   1      55.641   0.361  33.025  0.00  0.00     0.002 A 
ENDBRANCH  14  15
ENDBRANCH   2  14
TORSDOF 3
ENDMDL
MODEL 4
REMARK VINA RESULT:      -3.4      1.101      4.409
REMARK  3 active torsions:
REMARK  status: ('A' for Active; 'I' for Inactive)
REMARK    1  A    between atoms: C_5  and  C_1 
REMARK    2  A    between atoms: C_8  and  N_2 
REMARK    3  A    between atoms: C_10  and  C_8 
ROOT
ATOM      1  C   UNL d   1      58.978  -0.196  29.888  0.00  0.00     0.166 A 
ATOM      2  N   UNL d   1      57.662   0.251  30.778  0.00  0.00    -0.302 N 
ATOM      3  C   UNL d   1      59.034   0.431  30.422  0.00  0.00     0.058 A 
ATOM      4  C   UNL d   1      58.265  -0.599  29.799  0.00  0.00     0.058 A 
ATOM      5  C   UNL d   1      57.606  -0.376  30.244  0.00  0.00     0.083 A 
ATOM      6  C   UNL d   1      58.375   0.654  30.867  0.00  0.00     0.083 A 
ATOM      7  O   UNL d   1      58.873  -0.870  29.331  0.00  0.00    -0.290 OA
ENDROOT
BRANCH   1   8
ATOM      8  C   UNL d   1      59.636  -0.419  29.444  0.00  0.00     0.036 A 
ATOM      9  C   UNL d   1      59.967   0.117  28.892  0.00  0.00     0.003 A 
ATOM     10  C   UNL d   1      60.622  -0.116  28.455  0.00  0.00     0.000 A 
ATOM     11  C   UNL d   1      60.954  -0.870  28.555  0.00  0.00     0.000 A 
ATOM     12  C   UNL d   1      60.633  -1.394  29.092  0.00  0.00     0.000 A 
ATOM     13  C   UNL d   1      59.968  -1.173  29.544  0.00  0.00     0.003 A 
ENDBRANCH   1   8
BRANCH   2  14
ATOM     14  C   UNL d   1      57.004   0.473  31.222  0.00  0.00     0.080 C 
BRANCH  14  15
ATOM     15  C   UNL d   1      56.849   0.102  31.943  0.00  0.00     0.018 A 
ATOM     16  C   UNL d   1      56.412  -0.596  31.962  0.00  0.00     0.002 A 
ATOM     17  C   UNL d   1      56.258  -0.967  32.683  0.00  0.00     0.000 A 
ATOM     18  C   UNL d   1      56.537  -0.642  33.384  0.00  0.00     0.000 A 
ATOM     19  C   UNL d   1      56.974   0.057  33.366  0.00  0.00     0.000 A 
ATOM     20  C   UNL d   1      57.131   0.432  32.646  0.00  0.00     0.002 A 
ENDBRANCH  14  15
ENDBRANCH   2  14
TORSDOF 3
ENDMDL
MODEL 5
REMARK VINA RESULT:      -2.5      1.781      4.272
REMARK  3 active torsions:
REMARK  status: ('A' for Active; 'I' for Inactive)
REMARK    1  A    between atoms: C_5  and  C_1 
REMARK    2  A    between atoms: C_8  and  N_2 
REMARK    3  A    between atoms: C_10  and  C_8 
ROOT
ATOM      1  C   UNL d   1      58.690  -1.783  29.531  0.00  0.00     0.166 A 
ATOM      2  N   UNL d   1      58.052  -0.400  30.165  0.00  0.00    -0.302 N 
ATOM      3  C   UNL d   1      58.057  -1.823  30.058  0.00  0.00     0.058 A 
ATOM      4  C   UNL d   1      59.005  -1.051  29.321  0.00  0.00     0.058 A 
ATOM      5  C   UNL d   1      58.686  -0.358  29.638  0.00  0.00     0.083 A 
ATOM      6  C   UNL d   1      57.738  -1.132  30.375  0.00  0.00     0.083 A 
ATOM      7  O   UNL d   1      59.365  -1.692  28.973  0.00  0.00    -0.290 OA
ENDROOT
BRANCH   1   8
ATOM      8  C   UNL d   1      59.009  -2.475  29.214  0.00  0.00     0.036 A 
ATOM      9  C   UNL d   1      58.524  -2.989  28.766  0.00  0.00     0.003 A 
ATOM     10  C   UNL d   1      58.852  -3.675  28.455  0.00  0.00     0.000 A 
ATOM     11  C   UNL d   1      59.651  -3.860  28.582  0.00  0.00     0.000 A 
ATOM     12  C   UNL d   1      60.125  -3.359  29.019  0.00  0.00     0.000 A 
ATOM     13  C   UNL d   1      59.808  -2.659  29.341  0.00  0.00     0.003 A 
ENDBRANCH   1   8
BRANCH   2  14
ATOM     14  C   UNL d   1      57.735   0.293  30.482  0.00  0.00     0.080 C 
BRANCH  14  15
ATOM     15  C   UNL d   1      57.617   0.358  31.297  0.00  0.00     0.018 A 
ATOM     16  C   UNL d   1      58.230   0.617  31.782  0.00  0.00     0.002 A 
ATOM     17  C   UNL d   1      58.112   0.682  32.596  0.00  0.00     0.000 A 
ATOM     18  C   UNL d   1      57.385   0.488  32.927  0.00  0.00     0.000 A 
ATOM     19  C   UNL d   1      56.771   0.228  32.441  0.00  0.00     0.000 A 
ATOM     20  C   UNL d   1      56.885   0.162  31.625  0.00  0.00     0.002 A 
ENDBRANCH  14  15
ENDBRANCH   2  14
TORSDOF 3
ENDMDL
