MODEL 1
REMARK VINA RESULT:      -6.6      0.000      0.000
REMARK  0 active torsions:
REMARK  status: ('A' for Active; 'I' for Inactive)
ROOT
ATOM      1  N   UNL d   1     -47.406  13.286  23.094  0.00  0.00    -0.187 N 
ATOM      2  C   UNL d   1     -46.582  13.343  23.096  0.00  0.00     0.200 A 
ATOM      3  N   UNL d   1     -46.117  12.691  23.296  0.00  0.00    -0.181 NA
ATOM      4  N   UNL d   1     -47.770  12.560  23.297  0.00  0.00    -0.157 NA
ATOM      5  C   UNL d   1     -47.712  14.021  22.874  0.00  0.00     0.194 A 
ATOM      6  C   UNL d   1     -46.474  11.975  23.496  0.00  0.00     0.300 A 
ATOM      7  C   UNL d   1     -47.305  11.909  23.496  0.00  0.00     0.159 A 
ATOM      8  S   UNL d   1     -46.382  14.113  22.877  0.00  0.00    -0.045 SA
ATOM      9  C   UNL d   1     -47.086  14.534  22.739  0.00  0.00     0.079 A 
ATOM     10  O   UNL d   1     -46.009  11.323  23.696  0.00  0.00    -0.263 OA
ATOM     11  N   UNL d   1     -48.512  14.205  22.803  0.00  0.00    -0.126 N 
ATOM     12  C   UNL d   1     -47.661  11.192  23.696  0.00  0.00     0.028 C 
ENDROOT
TORSDOF 0
ENDMDL
MODEL 2
REMARK VINA RESULT:      -6.4      1.253      2.176
REMARK  0 active torsions:
REMARK  status: ('A' for Active; 'I' for Inactive)
ROOT
ATOM      1  N   UNL d   1     -47.680  12.616  23.257  0.00  0.00    -0.187 N 
ATOM      2  C   UNL d   1     -46.995  12.190  23.429  0.00  0.00     0.200 A 
ATOM      3  N   UNL d   1     -46.251  12.531  23.319  0.00  0.00    -0.181 NA
ATOM      4  N   UNL d   1     -47.619  13.400  22.971  0.00  0.00    -0.157 NA
ATOM      5  C   UNL d   1     -48.329  12.132  23.421  0.00  0.00     0.194 A 
ATOM      6  C   UNL d   1     -46.188  13.303  23.037  0.00  0.00     0.300 A 
ATOM      7  C   UNL d   1     -46.876  13.740  22.862  0.00  0.00     0.159 A 
ATOM      8  S   UNL d   1     -47.221  11.444  23.698  0.00  0.00    -0.045 SA
ATOM      9  C   UNL d   1     -48.053  11.409  23.693  0.00  0.00     0.079 A 
ATOM     10  O   UNL d   1     -45.444  13.644  22.928  0.00  0.00    -0.263 OA
ATOM     11  N   UNL d   1     -49.120  12.342  23.327  0.00  0.00    -0.126 N 
ATOM     12  C   UNL d   1     -46.813  14.513  22.579  0.00  0.00     0.028 C 
ENDROOT
TORSDOF 0
ENDMDL
MODEL 3
REMARK VINA RESULT:      -6.2      1.568      2.088
REMARK  0 active torsions:
REMARK  status: ('A' for Active; 'I' for Inactive)
ROOT
ATOM      1  N   UNL d   1     -48.143  12.850  22.345  0.00  0.00    -0.187 N 
ATOM      2  C   UNL d   1     -48.081  12.230  22.885  0.00  0.00     0.200 A 
ATOM      3  N   UNL d   1     -47.397  12.131  23.335  0.00  0.00    -0.181 NA
ATOM      4  N   UNL d   1     -47.504  13.384  22.254  0.00  0.00    -0.157 NA
ATOM      5  C   UNL d   1     -48.884  12.802  21.984  0.00  0.00     0.194 A 
ATOM      6  C   UNL d   1     -46.767  12.655  23.248  0.00  0.00     0.300 A 
ATOM      7  C   UNL d   1     -46.821  13.286  22.704  0.00  0.00     0.159 A 
ATOM      8  S   UNL d   1     -48.785  11.799  22.856  0.00  0.00    -0.045 SA
ATOM      9  C   UNL d   1     -49.284  12.157  22.294  0.00  0.00     0.079 A 
ATOM     10  O   UNL d   1     -46.082  12.557  23.698  0.00  0.00    -0.263 OA
ATOM     11  N   UNL d   1     -49.172  13.318  21.408  0.00  0.00    -0.126 N 
ATOM     12  C   UNL d   1     -46.189  13.810  22.617  0.00  0.00     0.028 C 
ENDROOT
TORSDOF 0
ENDMDL
MODEL 4
REMARK VINA RESULT:      -6.0      1.273      1.638
REMARK  0 active torsions:
REMARK  status: ('A' for Active; 'I' for Inactive)
ROOT
ATOM      1  N   UNL d   1     -47.578  13.285  22.953  0.00  0.00    -0.187 N 
ATOM      2  C   UNL d   1     -48.364  13.175  22.728  0.00  0.00     0.200 A 
ATOM      3  N   UNL d   1     -48.730  12.441  22.823  0.00  0.00    -0.181 NA
ATOM      4  N   UNL d   1     -47.149  12.645  23.281  0.00  0.00    -0.157 NA
ATOM      5  C   UNL d   1     -47.373  14.068  22.791  0.00  0.00     0.194 A 
ATOM      6  C   UNL d   1     -48.309  11.809  23.145  0.00  0.00     0.300 A 
ATOM      7  C   UNL d   1     -47.514  11.912  23.376  0.00  0.00     0.159 A 
ATOM      8  S   UNL d   1     -48.643  13.891  22.427  0.00  0.00    -0.045 SA
ATOM      9  C   UNL d   1     -48.025  14.446  22.468  0.00  0.00     0.079 A 
ATOM     10  O   UNL d   1     -48.674  11.075  23.240  0.00  0.00    -0.263 OA
ATOM     11  N   UNL d   1     -46.637  14.410  22.932  0.00  0.00    -0.126 N 
ATOM     12  C   UNL d   1     -47.094  11.279  23.698  0.00  0.00     0.028 C 
ENDROOT
TORSDOF 0
ENDMDL
MODEL 5
REMARK VINA RESULT:      -5.9      1.747      2.822
REMARK  0 active torsions:
REMARK  status: ('A' for Active; 'I' for Inactive)
ROOT
ATOM      1  N   UNL d   1     -47.811  12.698  23.259  0.00  0.00    -0.187 N 
ATOM      2  C   UNL d   1     -48.570  12.976  23.096  0.00  0.00     0.200 A 
ATOM      3  N   UNL d   1     -48.688  13.756  22.853  0.00  0.00    -0.181 NA
ATOM      4  N   UNL d   1     -47.156  13.213  23.176  0.00  0.00    -0.157 NA
ATOM      5  C   UNL d   1     -47.872  11.906  23.486  0.00  0.00     0.194 A 
ATOM      6  C   UNL d   1     -48.045  14.265  22.771  0.00  0.00     0.300 A 
ATOM      7  C   UNL d   1     -47.274  13.992  22.933  0.00  0.00     0.159 A 
ATOM      8  S   UNL d   1     -49.099  12.356  23.223  0.00  0.00    -0.045 SA
ATOM      9  C   UNL d   1     -48.663  11.690  23.466  0.00  0.00     0.079 A 
ATOM     10  O   UNL d   1     -48.163  15.045  22.528  0.00  0.00    -0.263 OA
ATOM     11  N   UNL d   1     -47.243  11.418  23.697  0.00  0.00    -0.126 N 
ATOM     12  C   UNL d   1     -46.630  14.502  22.851  0.00  0.00     0.028 C 
ENDROOT
TORSDOF 0
ENDMDL
MODEL 6
REMARK VINA RESULT:      -5.8      1.772      2.698
REMARK  0 active torsions:
REMARK  status: ('A' for Active; 'I' for Inactive)
ROOT
ATOM      1  N   UNL d   1     -47.329  13.729  22.887  0.00  0.00    -0.187 N 
ATOM      2  C   UNL d   1     -47.778  13.085  23.140  0.00  0.00     0.200 A 
ATOM      3  N   UNL d   1     -48.599  13.145  23.204  0.00  0.00    -0.181 NA
ATOM      4  N   UNL d   1     -47.711  14.449  22.694  0.00  0.00    -0.157 NA
ATOM      5  C   UNL d   1     -46.536  13.500  22.880  0.00  0.00     0.194 A 
ATOM      6  C   UNL d   1     -48.977  13.852  23.015  0.00  0.00     0.300 A 
ATOM      7  C   UNL d   1     -48.531  14.508  22.758  0.00  0.00     0.159 A 
ATOM      8  S   UNL d   1     -47.261  12.459  23.289  0.00  0.00    -0.045 SA
ATOM      9  C   UNL d   1     -46.488  12.720  23.127  0.00  0.00     0.079 A 
ATOM     10  O   UNL d   1     -49.798  13.912  23.079  0.00  0.00    -0.263 OA
ATOM     11  N   UNL d   1     -45.901  13.978  22.661  0.00  0.00    -0.126 N 
ATOM     12  C   UNL d   1     -48.910  15.216  22.568  0.00  0.00     0.028 C 
ENDROOT
TORSDOF 0
ENDMDL
MODEL 7
REMARK VINA RESULT:      -5.8      1.881      2.441
REMARK  0 active torsions:
REMARK  status: ('A' for Active; 'I' for Inactive)
ROOT
ATOM      1  N   UNL d   1     -47.739  12.651  22.871  0.00  0.00    -0.187 N 
ATOM      2  C   UNL d   1     -47.637  13.422  22.595  0.00  0.00     0.200 A 
ATOM      3  N   UNL d   1     -48.214  13.779  22.126  0.00  0.00    -0.181 NA
ATOM      4  N   UNL d   1     -48.434  12.229  22.671  0.00  0.00    -0.157 NA
ATOM      5  C   UNL d   1     -47.075  12.451  23.320  0.00  0.00     0.194 A 
ATOM      6  C   UNL d   1     -48.899  13.366  21.928  0.00  0.00     0.300 A 
ATOM      7  C   UNL d   1     -49.010  12.587  22.202  0.00  0.00     0.159 A 
ATOM      8  S   UNL d   1     -46.911  13.697  22.875  0.00  0.00    -0.045 SA
ATOM      9  C   UNL d   1     -46.562  13.090  23.326  0.00  0.00     0.079 A 
ATOM     10  O   UNL d   1     -49.476  13.724  21.458  0.00  0.00    -0.263 OA
ATOM     11  N   UNL d   1     -46.952  11.729  23.698  0.00  0.00    -0.126 N 
ATOM     12  C   UNL d   1     -49.696  12.174  22.004  0.00  0.00     0.028 C 
ENDROOT
TORSDOF 0
ENDMDL
MODEL 8
REMARK VINA RESULT:      -4.8      9.417     10.092
REMARK  0 active torsions:
REMARK  status: ('A' for Active; 'I' for Inactive)
ROOT
ATOM      1  N   UNL d   1     -39.045  14.271  16.830  0.00  0.00    -0.187 N 
ATOM      2  C   UNL d   1     -39.098  13.624  17.339  0.00  0.00     0.200 A 
ATOM      3  N   UNL d   1     -39.743  13.541  17.846  0.00  0.00    -0.181 NA
ATOM      4  N   UNL d   1     -39.653  14.846  16.828  0.00  0.00    -0.157 NA
ATOM      5  C   UNL d   1     -38.344  14.199  16.398  0.00  0.00     0.194 A 
ATOM      6  C   UNL d   1     -40.343  14.106  17.847  0.00  0.00     0.300 A 
ATOM      7  C   UNL d   1     -40.298  14.763  17.335  0.00  0.00     0.159 A 
ATOM      8  S   UNL d   1     -38.429  13.154  17.222  0.00  0.00    -0.045 SA
ATOM      9  C   UNL d   1     -37.961  13.514  16.635  0.00  0.00     0.079 A 
ATOM     10  O   UNL d   1     -40.989  14.023  18.354  0.00  0.00    -0.263 OA
ATOM     11  N   UNL d   1     -38.077  14.729  15.826  0.00  0.00    -0.126 N 
ATOM     12  C   UNL d   1     -40.898  15.329  17.336  0.00  0.00     0.028 C 
ENDROOT
TORSDOF 0
ENDMDL
MODEL 9
REMARK VINA RESULT:      -4.7      9.157      9.716
REMARK  0 active torsions:
REMARK  status: ('A' for Active; 'I' for Inactive)
ROOT
ATOM      1  N   UNL d   1     -39.852  14.092  17.719  0.00  0.00    -0.187 N 
ATOM      2  C   UNL d   1     -39.656  14.540  17.054  0.00  0.00     0.200 A 
ATOM      3  N   UNL d   1     -39.034  14.311  16.562  0.00  0.00    -0.181 NA
ATOM      4  N   UNL d   1     -39.414  13.400  17.894  0.00  0.00    -0.157 NA
ATOM      5  C   UNL d   1     -40.489  14.458  18.095  0.00  0.00     0.194 A 
ATOM      6  C   UNL d   1     -38.602  13.630  16.733  0.00  0.00     0.300 A 
ATOM      7  C   UNL d   1     -38.793  13.172  17.403  0.00  0.00     0.159 A 
ATOM      8  S   UNL d   1     -40.173  15.182  17.021  0.00  0.00    -0.045 SA
ATOM      9  C   UNL d   1     -40.692  15.129  17.670  0.00  0.00     0.079 A 
ATOM     10  O   UNL d   1     -37.980  13.401  16.241  0.00  0.00    -0.263 OA
ATOM     11  N   UNL d   1     -40.858  14.192  18.782  0.00  0.00    -0.126 N 
ATOM     12  C   UNL d   1     -38.360  12.490  17.573  0.00  0.00     0.028 C 
ENDROOT
TORSDOF 0
ENDMDL
