MODEL 1
REMARK VINA RESULT:       2.6      0.000      0.000
REMARK  8 active torsions:
REMARK  status: ('A' for Active; 'I' for Inactive)
REMARK    1  A    between atoms: N_3  and  S_1 
REMARK    2  A    between atoms: C_5  and  S_1 
REMARK    3  A    between atoms: N_2  and  C_7 
REMARK    4  A    between atoms: C_6  and  N_3 
REMARK    5  A    between atoms: C_18  and  N_4 
REMARK    6  A    between atoms: C_7  and  C_6 
REMARK    7  A    between atoms: C_12  and  C_7 
REMARK    8  A    between atoms: O_23  and  C_17 
ROOT
ATOM      1  C   UNL d   1     -41.343-121.829 -51.817  0.00  0.00     0.086 C 
ENDROOT
BRANCH   1   2
ATOM      2  N   UNL d   1     -41.632-122.160 -51.110  0.00  0.00    -0.300 N 
ATOM      3  C   UNL d   1     -42.321-121.863 -50.775  0.00  0.00     0.100 A 
ATOM      4  C   UNL d   1     -42.612-122.189 -50.075  0.00  0.00     0.100 A 
ATOM      5  N   UNL d   1     -42.212-122.811 -49.713  0.00  0.00    -0.301 N 
ATOM      6  C   UNL d   1     -41.520-123.107 -50.052  0.00  0.00     0.100 A 
ATOM      7  C   UNL d   1     -41.232-122.782 -50.749  0.00  0.00     0.100 A 
BRANCH   5   8
ATOM      8  C   UNL d   1     -42.500-123.136 -49.017  0.00  0.00     0.064 A 
ATOM      9  C   UNL d   1     -43.248-123.488 -49.001  0.00  0.00     0.018 A 
ATOM     10  C   UNL d   1     -43.535-123.814 -48.303  0.00  0.00     0.002 A 
ATOM     11  C   UNL d   1     -43.076-123.790 -47.614  0.00  0.00     0.000 A 
ATOM     12  C   UNL d   1     -42.328-123.438 -47.630  0.00  0.00     0.002 A 
ATOM     13  C   UNL d   1     -42.041-123.112 -48.327  0.00  0.00     0.018 A 
ENDBRANCH   5   8
ENDBRANCH   1   2
BRANCH   1  14
ATOM     14  C   UNL d   1     -41.123-122.322 -52.441  0.00  0.00     0.130 C 
BRANCH  14  15
ATOM     15  N   UNL d   1     -41.661-122.482 -53.053  0.00  0.00    -0.155 NA
BRANCH  15  16
ATOM     16  S   UNL d   1     -41.601-123.179 -53.483  0.00  0.00     0.285 S 
ATOM     17  O   UNL d   1     -41.393-123.637 -52.723  0.00  0.00    -0.198 OA
ATOM     18  O   UNL d   1     -41.550-123.816 -53.899  0.00  0.00    -0.198 OA
BRANCH  16  19
ATOM     19  C   UNL d   1     -41.789-122.768 -54.175  0.00  0.00     0.105 A 
ATOM     20  C   UNL d   1     -42.575-122.613 -54.358  0.00  0.00     0.015 A 
ATOM     21  C   UNL d   1     -42.769-122.202 -55.050  0.00  0.00     0.023 A 
ATOM     22  C   UNL d   1     -43.560-122.046 -55.233  0.00  0.00     0.002 C 
ATOM     23  C   UNL d   1     -42.164-121.945 -55.561  0.00  0.00     0.094 A 
ATOM     24  C   UNL d   1     -41.373-122.103 -55.373  0.00  0.00     0.025 A 
ATOM     25  C   UNL d   1     -41.185-122.511 -54.686  0.00  0.00     0.015 A 
BRANCH  23  26
ATOM     26  O   UNL d   1     -42.352-121.534 -56.253  0.00  0.00    -0.328 OA
ATOM     27  C   UNL d   1     -41.842-120.944 -56.541  0.00  0.00     0.181 C 
ENDBRANCH  23  26
ENDBRANCH  16  19
ENDBRANCH  15  16
ENDBRANCH  14  15
ENDBRANCH   1  14
BRANCH   1  28
ATOM     28  C   UNL d   1     -41.275-121.012 -51.895  0.00  0.00     0.037 A 
ATOM     29  C   UNL d   1     -41.291-120.668 -52.645  0.00  0.00     0.100 A 
ATOM     30  N   UNL d   1     -41.223-119.847 -52.723  0.00  0.00    -0.242 NA
ATOM     31  C   UNL d   1     -41.139-119.375 -52.052  0.00  0.00     0.099 A 
ATOM     32  C   UNL d   1     -41.123-119.720 -51.307  0.00  0.00     0.021 A 
ATOM     33  C   UNL d   1     -41.191-120.541 -51.229  0.00  0.00     0.005 A 
ENDBRANCH   1  28
TORSDOF 8
ENDMDL
