MODEL 1
REMARK VINA RESULT:      49.1      0.000      0.000
REMARK  4 active torsions:
REMARK  status: ('A' for Active; 'I' for Inactive)
REMARK    1  A    between atoms: N_6  and  S_1 
REMARK    2  A    between atoms: C_7  and  S_1 
REMARK    3  A    between atoms: C_13  and  N_6 
REMARK    4  A    between atoms: O_18  and  C_15 
ROOT
ATOM      1  S   UNL d   1     -51.330  26.215  33.454  0.00  0.00     0.285 S 
ATOM      2  O   UNL d   1     -52.134  26.248  33.316  0.00  0.00    -0.198 OA
ATOM      3  O   UNL d   1     -51.305  27.038  33.505  0.00  0.00    -0.198 OA
ENDROOT
BRANCH   1   4
ATOM      4  N   UNL d   1     -50.517  26.186  33.594  0.00  0.00    -0.158 NA
BRANCH   4   5
ATOM      5  C   UNL d   1     -50.106  26.878  33.800  0.00  0.00     0.095 A 
ATOM      6  C   UNL d   1     -49.670  26.902  34.500  0.00  0.00     0.040 A 
ATOM      7  C   UNL d   1     -49.266  27.589  34.696  0.00  0.00     0.089 A 
ATOM      8  N   UNL d   1     -48.790  27.774  35.351  0.00  0.00    -0.238 NA
ATOM      9  C   UNL d   1     -49.289  28.249  34.211  0.00  0.00     0.049 A 
ATOM     10  C   UNL d   1     -48.525  28.546  35.262  0.00  0.00     0.111 A 
ATOM     11  C   UNL d   1     -48.031  28.964  35.789  0.00  0.00     0.028 C 
ATOM     12  S   UNL d   1     -48.834  28.843  34.555  0.00  0.00    -0.066 SA
ATOM     13  C   UNL d   1     -49.731  28.221  33.505  0.00  0.00     0.010 A 
ATOM     14  C   UNL d   1     -50.138  27.529  33.306  0.00  0.00     0.021 A 
ENDBRANCH   4   5
ENDBRANCH   1   4
BRANCH   1  15
ATOM     15  C   UNL d   1     -51.347  25.392  33.405  0.00  0.00     0.107 A 
ATOM     16  C   UNL d   1     -52.068  24.988  33.388  0.00  0.00     0.037 A 
ATOM     17  C   UNL d   1     -52.077  24.164  33.339  0.00  0.00     0.095 A 
ATOM     18  C   UNL d   1     -51.364  23.745  33.307  0.00  0.00     0.024 A 
ATOM     19  C   UNL d   1     -50.647  24.150  33.323  0.00  0.00     0.003 A 
ATOM     20  C   UNL d   1     -50.638  24.973  33.373  0.00  0.00     0.013 A 
BRANCH  17  21
ATOM     21  O   UNL d   1     -52.793  23.759  33.322  0.00  0.00    -0.328 OA
ATOM     22  C   UNL d   1     -53.400  23.969  33.841  0.00  0.00     0.181 C 
ENDBRANCH  17  21
ENDBRANCH   1  15
TORSDOF 4
ENDMDL
