MODEL 1
REMARK VINA RESULT:      -7.4      0.000      0.000
REMARK  8 active torsions:
REMARK  status: ('A' for Active; 'I' for Inactive)
REMARK    1  A    between atoms: C_8  and  N_1 
REMARK    2  A    between atoms: C_6  and  C_2 
REMARK    3  A    between atoms: S_7  and  C_4 
REMARK    4  A    between atoms: C_12  and  S_7 
REMARK    5  A    between atoms: C_9  and  C_12 
REMARK    6  A    between atoms: O_14  and  C_9 
REMARK    7  A    between atoms: O_16  and  C_13 
REMARK    8  A    between atoms: C_21  and  O_14 
ROOT
ATOM      1  N   UNL d   1      53.240  32.486  53.450  0.00  0.00    -0.269 N 
ATOM      2  C   UNL d   1      52.739  33.044  53.113  0.00  0.00     0.171 A 
ATOM      3  N   UNL d   1      52.171  32.617  52.677  0.00  0.00    -0.128 NA
ATOM      4  C   UNL d   1      52.982  31.734  53.224  0.00  0.00     0.201 A 
ATOM      5  N   UNL d   1      52.306  31.830  52.736  0.00  0.00    -0.121 NA
ENDROOT
BRANCH   2   6
ATOM      6  C   UNL d   1      52.841  33.831  53.227  0.00  0.00     0.038 A 
ATOM      7  C   UNL d   1      52.429  34.223  53.824  0.00  0.00     0.027 A 
ATOM      8  C   UNL d   1      52.511  35.006  53.960  0.00  0.00     0.094 A 
ATOM      9  C   UNL d   1      53.039  35.456  53.477  0.00  0.00     0.024 A 
ATOM     10  C   UNL d   1      53.451  35.065  52.880  0.00  0.00     0.002 A 
ATOM     11  C   UNL d   1      53.346  34.255  52.763  0.00  0.00     0.003 A 
BRANCH   8  12
ATOM     12  O   UNL d   1      52.073  35.378  54.581  0.00  0.00    -0.328 OA
ATOM     13  C   UNL d   1      52.377  36.059  54.935  0.00  0.00     0.181 C 
ENDBRANCH   8  12
ENDBRANCH   2   6
BRANCH   1  14
ATOM     14  C   UNL d   1      53.859  32.779  53.916  0.00  0.00     0.067 A 
ATOM     15  C   UNL d   1      53.751  32.833  54.728  0.00  0.00     0.018 A 
ATOM     16  C   UNL d   1      54.376  33.127  55.191  0.00  0.00     0.002 A 
ATOM     17  C   UNL d   1      55.092  33.362  54.857  0.00  0.00     0.000 A 
ATOM     18  C   UNL d   1      55.194  33.305  54.036  0.00  0.00     0.002 A 
ATOM     19  C   UNL d   1      54.570  33.011  53.573  0.00  0.00     0.018 A 
ENDBRANCH   1  14
BRANCH   4  20
ATOM     20  S   UNL d   1      53.347  30.997  53.453  0.00  0.00    -0.042 SA
BRANCH  20  21
ATOM     21  C   UNL d   1      52.941  30.274  53.438  0.00  0.00     0.107 C 
BRANCH  21  22
ATOM     22  C   UNL d   1      53.285  29.588  53.725  0.00  0.00     0.307 C 
ATOM     23  O   UNL d   1      53.950  29.239  53.357  0.00  0.00    -0.258 OA
BRANCH  22  24
ATOM     24  O   UNL d   1      52.961  29.231  54.400  0.00  0.00    -0.271 OA
BRANCH  24  25
ATOM     25  C   UNL d   1      53.384  28.657  54.831  0.00  0.00     0.126 C 
ATOM     26  C   UNL d   1      53.244  28.536  55.639  0.00  0.00     0.029 C 
ENDBRANCH  24  25
ENDBRANCH  22  24
ENDBRANCH  21  22
ENDBRANCH  20  21
ENDBRANCH   4  20
TORSDOF 8
ENDMDL
MODEL 2
REMARK VINA RESULT:      -7.0      2.318      4.337
REMARK  8 active torsions:
REMARK  status: ('A' for Active; 'I' for Inactive)
REMARK    1  A    between atoms: C_8  and  N_1 
REMARK    2  A    between atoms: C_6  and  C_2 
REMARK    3  A    between atoms: S_7  and  C_4 
REMARK    4  A    between atoms: C_12  and  S_7 
REMARK    5  A    between atoms: C_9  and  C_12 
REMARK    6  A    between atoms: O_14  and  C_9 
REMARK    7  A    between atoms: O_16  and  C_13 
REMARK    8  A    between atoms: C_21  and  O_14 
ROOT
ATOM      1  N   UNL d   1      52.076  33.716  53.479  0.00  0.00    -0.269 N 
ATOM      2  C   UNL d   1      52.475  33.000  53.535  0.00  0.00     0.171 A 
ATOM      3  N   UNL d   1      51.966  32.422  53.216  0.00  0.00    -0.128 NA
ATOM      4  C   UNL d   1      51.338  33.578  53.134  0.00  0.00     0.201 A 
ATOM      5  N   UNL d   1      51.281  32.756  52.972  0.00  0.00    -0.121 NA
ENDROOT
BRANCH   2   6
ATOM      6  C   UNL d   1      53.212  32.947  53.848  0.00  0.00     0.038 A 
ATOM      7  C   UNL d   1      53.871  32.896  53.355  0.00  0.00     0.027 A 
ATOM      8  C   UNL d   1      54.616  32.842  53.639  0.00  0.00     0.094 A 
ATOM      9  C   UNL d   1      54.740  32.836  54.475  0.00  0.00     0.024 A 
ATOM     10  C   UNL d   1      54.081  32.887  54.968  0.00  0.00     0.002 A 
ATOM     11  C   UNL d   1      53.323  32.942  54.646  0.00  0.00     0.003 A 
BRANCH   8  12
ATOM     12  O   UNL d   1      55.271  32.791  53.107  0.00  0.00    -0.328 OA
ATOM     13  C   UNL d   1      55.938  33.260  53.243  0.00  0.00     0.181 C 
ENDBRANCH   8  12
ENDBRANCH   2   6
BRANCH   1  14
ATOM     14  C   UNL d   1      52.474  34.385  53.765  0.00  0.00     0.067 A 
ATOM     15  C   UNL d   1      52.420  34.567  54.563  0.00  0.00     0.018 A 
ATOM     16  C   UNL d   1      52.821  35.238  54.844  0.00  0.00     0.002 A 
ATOM     17  C   UNL d   1      53.266  35.720  54.344  0.00  0.00     0.000 A 
ATOM     18  C   UNL d   1      53.316  35.531  53.537  0.00  0.00     0.002 A 
ATOM     19  C   UNL d   1      52.915  34.859  53.257  0.00  0.00     0.018 A 
ENDBRANCH   1  14
BRANCH   4  20
ATOM     20  S   UNL d   1      50.747  34.172  52.974  0.00  0.00    -0.042 SA
BRANCH  20  21
ATOM     21  C   UNL d   1      50.035  34.001  52.585  0.00  0.00     0.107 C 
BRANCH  21  22
ATOM     22  C   UNL d   1      49.510  34.596  52.380  0.00  0.00     0.307 C 
ATOM     23  O   UNL d   1      49.252  35.168  52.932  0.00  0.00    -0.258 OA
BRANCH  22  24
ATOM     24  O   UNL d   1      49.229  34.629  51.600  0.00  0.00    -0.271 OA
BRANCH  24  25
ATOM     25  C   UNL d   1      48.457  34.892  51.429  0.00  0.00     0.126 C 
ATOM     26  C   UNL d   1      48.131  34.806  50.672  0.00  0.00     0.029 C 
ENDBRANCH  24  25
ENDBRANCH  22  24
ENDBRANCH  21  22
ENDBRANCH  20  21
ENDBRANCH   4  20
TORSDOF 8
ENDMDL
MODEL 3
REMARK VINA RESULT:      -6.8      0.955      1.856
REMARK  8 active torsions:
REMARK  status: ('A' for Active; 'I' for Inactive)
REMARK    1  A    between atoms: C_8  and  N_1 
REMARK    2  A    between atoms: C_6  and  C_2 
REMARK    3  A    between atoms: S_7  and  C_4 
REMARK    4  A    between atoms: C_12  and  S_7 
REMARK    5  A    between atoms: C_9  and  C_12 
REMARK    6  A    between atoms: O_14  and  C_9 
REMARK    7  A    between atoms: O_16  and  C_13 
REMARK    8  A    between atoms: C_21  and  O_14 
ROOT
ATOM      1  N   UNL d   1      53.040  32.660  53.418  0.00  0.00    -0.269 N 
ATOM      2  C   UNL d   1      53.602  33.216  53.640  0.00  0.00     0.171 A 
ATOM      3  N   UNL d   1      54.301  32.793  53.803  0.00  0.00    -0.128 NA
ATOM      4  C   UNL d   1      53.389  31.911  53.445  0.00  0.00     0.201 A 
ATOM      5  N   UNL d   1      54.186  32.009  53.689  0.00  0.00    -0.121 NA
ENDROOT
BRANCH   2   6
ATOM      6  C   UNL d   1      53.435  34.000  53.671  0.00  0.00     0.038 A 
ATOM      7  C   UNL d   1      53.298  34.369  54.396  0.00  0.00     0.027 A 
ATOM      8  C   UNL d   1      53.130  35.148  54.457  0.00  0.00     0.094 A 
ATOM      9  C   UNL d   1      53.088  35.618  53.755  0.00  0.00     0.024 A 
ATOM     10  C   UNL d   1      53.224  35.249  53.030  0.00  0.00     0.002 A 
ATOM     11  C   UNL d   1      53.396  34.442  52.998  0.00  0.00     0.003 A 
BRANCH   8  12
ATOM     12  O   UNL d   1      52.996  35.496  55.215  0.00  0.00    -0.328 OA
ATOM     13  C   UNL d   1      52.868  36.311  55.267  0.00  0.00     0.181 C 
ENDBRANCH   8  12
ENDBRANCH   2   6
BRANCH   1  14
ATOM     14  C   UNL d   1      52.287  32.949  53.227  0.00  0.00     0.067 A 
ATOM     15  C   UNL d   1      51.711  32.971  53.811  0.00  0.00     0.018 A 
ATOM     16  C   UNL d   1      50.958  33.262  53.613  0.00  0.00     0.002 A 
ATOM     17  C   UNL d   1      50.780  33.526  52.852  0.00  0.00     0.000 A 
ATOM     18  C   UNL d   1      51.367  33.501  52.267  0.00  0.00     0.002 A 
ATOM     19  C   UNL d   1      52.119  33.210  52.464  0.00  0.00     0.018 A 
ENDBRANCH   1  14
BRANCH   4  20
ATOM     20  S   UNL d   1      52.999  31.176  53.255  0.00  0.00    -0.042 SA
BRANCH  20  21
ATOM     21  C   UNL d   1      53.351  30.437  53.388  0.00  0.00     0.107 C 
BRANCH  21  22
ATOM     22  C   UNL d   1      52.895  29.768  53.521  0.00  0.00     0.307 C 
ATOM     23  O   UNL d   1      52.423  29.428  52.920  0.00  0.00    -0.258 OA
BRANCH  22  24
ATOM     24  O   UNL d   1      52.907  29.421  54.274  0.00  0.00    -0.271 OA
BRANCH  24  25
ATOM     25  C   UNL d   1      53.338  28.724  54.422  0.00  0.00     0.126 C 
ATOM     26  C   UNL d   1      53.448  28.442  55.194  0.00  0.00     0.029 C 
ENDBRANCH  24  25
ENDBRANCH  22  24
ENDBRANCH  21  22
ENDBRANCH  20  21
ENDBRANCH   4  20
TORSDOF 8
ENDMDL
MODEL 4
REMARK VINA RESULT:      -6.7      1.474      4.384
REMARK  8 active torsions:
REMARK  status: ('A' for Active; 'I' for Inactive)
REMARK    1  A    between atoms: C_8  and  N_1 
REMARK    2  A    between atoms: C_6  and  C_2 
REMARK    3  A    between atoms: S_7  and  C_4 
REMARK    4  A    between atoms: C_12  and  S_7 
REMARK    5  A    between atoms: C_9  and  C_12 
REMARK    6  A    between atoms: O_14  and  C_9 
REMARK    7  A    between atoms: O_16  and  C_13 
REMARK    8  A    between atoms: C_21  and  O_14 
ROOT
ATOM      1  N   UNL d   1      52.725  32.331  53.241  0.00  0.00    -0.269 N 
ATOM      2  C   UNL d   1      52.650  31.544  53.018  0.00  0.00     0.171 A 
ATOM      3  N   UNL d   1      51.980  31.504  52.523  0.00  0.00    -0.128 NA
ATOM      4  C   UNL d   1      52.114  32.762  52.890  0.00  0.00     0.201 A 
ATOM      5  N   UNL d   1      51.650  32.228  52.439  0.00  0.00    -0.121 NA
ENDROOT
BRANCH   2   6
ATOM      6  C   UNL d   1      53.162  30.980  53.268  0.00  0.00     0.038 A 
ATOM      7  C   UNL d   1      52.950  30.466  53.877  0.00  0.00     0.027 A 
ATOM      8  C   UNL d   1      53.439  29.895  54.147  0.00  0.00     0.094 A 
ATOM      9  C   UNL d   1      54.205  29.808  53.798  0.00  0.00     0.024 A 
ATOM     10  C   UNL d   1      54.417  30.322  53.189  0.00  0.00     0.002 A 
ATOM     11  C   UNL d   1      53.890  30.903  52.932  0.00  0.00     0.003 A 
BRANCH   8  12
ATOM     12  O   UNL d   1      53.192  29.384  54.773  0.00  0.00    -0.328 OA
ATOM     13  C   UNL d   1      53.438  28.595  54.770  0.00  0.00     0.181 C 
ENDBRANCH   8  12
ENDBRANCH   2   6
BRANCH   1  14
ATOM     14  C   UNL d   1      53.360  32.515  53.742  0.00  0.00     0.067 A 
ATOM     15  C   UNL d   1      54.077  32.734  53.407  0.00  0.00     0.018 A 
ATOM     16  C   UNL d   1      54.710  32.917  53.913  0.00  0.00     0.002 A 
ATOM     17  C   UNL d   1      54.635  32.883  54.733  0.00  0.00     0.000 A 
ATOM     18  C   UNL d   1      53.908  32.661  55.065  0.00  0.00     0.002 A 
ATOM     19  C   UNL d   1      53.275  32.478  54.559  0.00  0.00     0.018 A 
ENDBRANCH   1  14
BRANCH   4  20
ATOM     20  S   UNL d   1      51.986  33.602  52.978  0.00  0.00    -0.042 SA
BRANCH  20  21
ATOM     21  C   UNL d   1      51.360  34.000  52.608  0.00  0.00     0.107 C 
BRANCH  21  22
ATOM     22  C   UNL d   1      50.931  34.576  53.003  0.00  0.00     0.307 C 
ATOM     23  O   UNL d   1      51.303  35.163  53.468  0.00  0.00    -0.258 OA
BRANCH  22  24
ATOM     24  O   UNL d   1      50.104  34.573  52.938  0.00  0.00    -0.271 OA
BRANCH  24  25
ATOM     25  C   UNL d   1      49.654  35.251  53.115  0.00  0.00     0.126 C 
ATOM     26  C   UNL d   1      48.846  35.291  52.933  0.00  0.00     0.029 C 
ENDBRANCH  24  25
ENDBRANCH  22  24
ENDBRANCH  21  22
ENDBRANCH  20  21
ENDBRANCH   4  20
TORSDOF 8
ENDMDL
MODEL 5
REMARK VINA RESULT:      -6.5      2.409      4.332
REMARK  8 active torsions:
REMARK  status: ('A' for Active; 'I' for Inactive)
REMARK    1  A    between atoms: C_8  and  N_1 
REMARK    2  A    between atoms: C_6  and  C_2 
REMARK    3  A    between atoms: S_7  and  C_4 
REMARK    4  A    between atoms: C_12  and  S_7 
REMARK    5  A    between atoms: C_9  and  C_12 
REMARK    6  A    between atoms: O_14  and  C_9 
REMARK    7  A    between atoms: O_16  and  C_13 
REMARK    8  A    between atoms: C_21  and  O_14 
ROOT
ATOM      1  N   UNL d   1      52.202  33.686  53.212  0.00  0.00    -0.269 N 
ATOM      2  C   UNL d   1      52.848  34.074  53.540  0.00  0.00     0.171 A 
ATOM      3  N   UNL d   1      52.653  34.885  53.554  0.00  0.00    -0.128 NA
ATOM      4  C   UNL d   1      51.625  34.249  53.030  0.00  0.00     0.201 A 
ATOM      5  N   UNL d   1      51.922  35.002  53.251  0.00  0.00    -0.121 NA
ENDROOT
BRANCH   2   6
ATOM      6  C   UNL d   1      53.505  33.680  53.777  0.00  0.00     0.038 A 
ATOM      7  C   UNL d   1      53.631  33.524  54.577  0.00  0.00     0.027 A 
ATOM      8  C   UNL d   1      54.277  33.133  54.841  0.00  0.00     0.094 A 
ATOM      9  C   UNL d   1      54.855  32.867  54.286  0.00  0.00     0.024 A 
ATOM     10  C   UNL d   1      54.729  33.023  53.486  0.00  0.00     0.002 A 
ATOM     11  C   UNL d   1      54.053  33.429  53.242  0.00  0.00     0.003 A 
BRANCH   8  12
ATOM     12  O   UNL d   1      54.377  32.989  55.668  0.00  0.00    -0.328 OA
ATOM     13  C   UNL d   1      54.852  33.500  56.111  0.00  0.00     0.181 C 
ENDBRANCH   8  12
ENDBRANCH   2   6
BRANCH   1  14
ATOM     14  C   UNL d   1      52.262  32.863  53.137  0.00  0.00     0.067 A 
ATOM     15  C   UNL d   1      51.931  32.388  53.719  0.00  0.00     0.018 A 
ATOM     16  C   UNL d   1      51.995  31.563  53.640  0.00  0.00     0.002 A 
ATOM     17  C   UNL d   1      52.379  31.216  52.997  0.00  0.00     0.000 A 
ATOM     18  C   UNL d   1      52.711  31.702  52.413  0.00  0.00     0.002 A 
ATOM     19  C   UNL d   1      52.647  32.527  52.492  0.00  0.00     0.018 A 
ENDBRANCH   1  14
BRANCH   4  20
ATOM     20  S   UNL d   1      50.864  34.083  52.679  0.00  0.00    -0.042 SA
BRANCH  20  21
ATOM     21  C   UNL d   1      50.253  34.642  52.652  0.00  0.00     0.107 C 
BRANCH  21  22
ATOM     22  C   UNL d   1      49.620  34.555  52.138  0.00  0.00     0.307 C 
ATOM     23  O   UNL d   1      49.694  34.149  51.410  0.00  0.00    -0.258 OA
BRANCH  22  24
ATOM     24  O   UNL d   1      48.887  34.879  52.350  0.00  0.00    -0.271 OA
BRANCH  24  25
ATOM     25  C   UNL d   1      48.373  35.198  51.777  0.00  0.00     0.126 C 
ATOM     26  C   UNL d   1      47.687  35.609  51.995  0.00  0.00     0.029 C 
ENDBRANCH  24  25
ENDBRANCH  22  24
ENDBRANCH  21  22
ENDBRANCH  20  21
ENDBRANCH   4  20
TORSDOF 8
ENDMDL
