MODEL 1
REMARK VINA RESULT:      -0.7      0.000      0.000
REMARK  5 active torsions:
REMARK  status: ('A' for Active; 'I' for Inactive)
REMARK    1  A    between atoms: N_10  and  C_3 
REMARK    2  A    between atoms: N_11  and  C_6 
REMARK    3  A    between atoms: C_12  and  N_10 
REMARK    4  A    between atoms: C_13  and  N_11 
REMARK    5  A    between atoms: C_21  and  C_13 
ROOT
ATOM      1  C   UNL d   1     -41.657-121.600 -51.761  0.00  0.00     0.187 A 
ATOM      2  C   UNL d   1     -41.394-121.763 -52.485  0.00  0.00     0.094 A 
ATOM      3  C   UNL d   1     -41.396-122.508 -52.750  0.00  0.00     0.185 A 
ATOM      4  N   UNL d   1     -41.922-122.174 -51.298  0.00  0.00    -0.040 NA
ATOM      5  N   UNL d   1     -41.663-123.079 -52.280  0.00  0.00    -0.040 NA
ATOM      6  C   UNL d   1     -41.926-122.912 -51.556  0.00  0.00     0.753 A 
ATOM      7  N   UNL d   1     -41.385-120.273 -51.968  0.00  0.00    -0.162 NA
ATOM      8  N   UNL d   1     -41.655-120.856 -51.496  0.00  0.00    -0.208 N 
ATOM      9  C   UNL d   1     -41.123-120.440 -52.692  0.00  0.00     0.127 A 
ATOM     10  C   UNL d   1     -41.917-120.690 -50.776  0.00  0.00     0.123 C 
ENDROOT
BRANCH   3  11
ATOM     11  N   UNL d   1     -41.124-122.689 -53.502  0.00  0.00    -0.226 NA
BRANCH  11  12
ATOM     12  C   UNL d   1     -41.617-122.602 -54.153  0.00  0.00     0.083 A 
ATOM     13  C   UNL d   1     -41.506-121.979 -54.693  0.00  0.00     0.021 A 
ATOM     14  C   UNL d   1     -42.000-121.890 -55.347  0.00  0.00     0.031 A 
ATOM     15  C   UNL d   1     -42.618-122.434 -55.468  0.00  0.00     0.140 A 
ATOM     16  C   UNL d   1     -42.732-123.052 -54.939  0.00  0.00     0.031 A 
ATOM     17  F   UNL d   1     -43.116-122.354 -56.118  0.00  0.00    -0.204 F 
ATOM     18  C   UNL d   1     -42.231-123.137 -54.280  0.00  0.00     0.021 A 
ENDBRANCH  11  12
ENDBRANCH   3  11
BRANCH   6  19
ATOM     19  N   UNL d   1     -42.206-123.523 -51.069  0.00  0.00    -0.058 NA
BRANCH  19  20
ATOM     20  C   UNL d   1     -41.812-123.698 -50.357  0.00  0.00     0.118 C 
BRANCH  20  21
ATOM     21  C   UNL d   1     -42.026-123.724 -49.560  0.00  0.00     0.020 A 
ATOM     22  C   UNL d   1     -42.822-123.792 -49.337  0.00  0.00     0.002 A 
ATOM     23  C   UNL d   1     -43.022-123.818 -48.530  0.00  0.00     0.000 A 
ATOM     24  C   UNL d   1     -42.437-123.776 -47.956  0.00  0.00     0.000 A 
ATOM     25  C   UNL d   1     -41.648-123.708 -48.175  0.00  0.00     0.000 A 
ATOM     26  C   UNL d   1     -41.444-123.682 -48.975  0.00  0.00     0.002 A 
ENDBRANCH  20  21
ENDBRANCH  19  20
ENDBRANCH   6  19
TORSDOF 5
ENDMDL
