MODEL 1
REMARK VINA RESULT:      51.9      0.000      0.000
REMARK  7 active torsions:
REMARK  status: ('A' for Active; 'I' for Inactive)
REMARK    1  A    between atoms: N_2  and  S_1 
REMARK    2  A    between atoms: C_6  and  S_1 
REMARK    3  A    between atoms: C_3  and  N_2 
REMARK       I    between atoms: C_7  and  N_10 
REMARK    4  A    between atoms: C_17  and  C_7 
REMARK    5  A    between atoms: N_10  and  C_18 
REMARK    6  A    between atoms: C_19  and  C_17 
REMARK    7  A    between atoms: O_27  and  C_20 
ROOT
ATOM      1  C   UNL d   1      13.236  12.964  -4.109  0.00  0.00     0.106 A 
ATOM      2  C   UNL d   1      12.909  13.723  -4.008  0.00  0.00     0.015 A 
ATOM      3  C   UNL d   1      13.652  12.768  -4.785  0.00  0.00     0.015 A 
ATOM      4  C   UNL d   1      13.434  14.091  -5.297  0.00  0.00     0.085 A 
ATOM      5  C   UNL d   1      13.018  14.270  -4.609  0.00  0.00     0.020 A 
ATOM      6  C   UNL d   1      13.750  13.337  -5.379  0.00  0.00     0.020 A 
ENDROOT
BRANCH   1   7
ATOM      7  S   UNL d   1      13.135  12.386  -3.501  0.00  0.00     0.300 S 
ATOM      8  O   UNL d   1      13.228  11.780  -4.090  0.00  0.00    -0.198 OA
ATOM      9  O   UNL d   1      13.046  12.997  -2.943  0.00  0.00    -0.198 OA
BRANCH   7  10
ATOM     10  N   UNL d   1      13.038  11.802  -2.920  0.00  0.00     0.034 NA
BRANCH  10  11
ATOM     11  C   UNL d   1      13.524  11.859  -2.212  0.00  0.00     0.760 A 
ATOM     12  N   UNL d   1      14.347  11.802  -2.290  0.00  0.00    -0.059 NA
ATOM     13  C   UNL d   1      14.819  11.857  -1.610  0.00  0.00     0.101 A 
ATOM     14  C   UNL d   1      15.676  11.801  -1.665  0.00  0.00     0.021 C 
ATOM     15  C   UNL d   1      14.470  11.965  -0.879  0.00  0.00     0.040 A 
ATOM     16  C   UNL d   1      13.662  12.017  -0.834  0.00  0.00     0.101 A 
ATOM     17  N   UNL d   1      13.183  11.965  -1.494  0.00  0.00    -0.059 NA
ATOM     18  C   UNL d   1      13.325  12.129  -0.067  0.00  0.00     0.021 C 
ENDBRANCH  10  11
ENDBRANCH   7  10
ENDBRANCH   1   7
BRANCH   4  19
ATOM     19  N   UNL d   1      13.546  14.641  -5.906  0.00  0.00    -0.208 NA
ATOM     20  C   UNL d   1      13.767  15.427  -5.729  0.00  0.00     0.279 C 
ATOM     21  O   UNL d   1      13.877  15.667  -4.925  0.00  0.00    -0.265 OA
BRANCH  20  22
ATOM     22  C   UNL d   1      13.876  15.965  -6.341  0.00  0.00     0.062 C 
BRANCH  22  23
ATOM     23  C   UNL d   1      13.898  16.810  -6.180  0.00  0.00     0.005 A 
ATOM     24  C   UNL d   1      14.559  17.137  -5.809  0.00  0.00     0.002 A 
ATOM     25  C   UNL d   1      14.578  17.943  -5.657  0.00  0.00     0.024 A 
ATOM     26  C   UNL d   1      13.951  18.435  -5.867  0.00  0.00     0.094 A 
ATOM     27  C   UNL d   1      13.300  18.123  -6.230  0.00  0.00     0.024 A 
ATOM     28  C   UNL d   1      13.267  17.318  -6.389  0.00  0.00     0.002 A 
BRANCH  26  29
ATOM     29  O   UNL d   1      14.010  19.265  -5.692  0.00  0.00    -0.328 OA
ATOM     30  C   UNL d   1      13.849  19.848  -6.254  0.00  0.00     0.181 C 
ENDBRANCH  26  29
ENDBRANCH  22  23
ENDBRANCH  20  22
ENDBRANCH   4  19
TORSDOF 7
ENDMDL
