MODEL 1
REMARK VINA RESULT:      10.0      0.000      0.000
REMARK  3 active torsions:
REMARK  status: ('A' for Active; 'I' for Inactive)
REMARK    1  A    between atoms: C_10  and  C_5 
REMARK    2  A    between atoms: S_9  and  C_10 
REMARK    3  A    between atoms: C_11  and  S_9 
ROOT
ATOM      1  C   UNL d   1      46.311 -18.960  43.106  0.00  0.00     0.179 A 
ATOM      2  N   UNL d   1      46.391 -19.035  43.920  0.00  0.00    -0.283 N 
ATOM      3  N   UNL d   1      46.175 -18.173  42.942  0.00  0.00    -0.220 NA
ATOM      4  S   UNL d   1      46.399 -19.702  42.780  0.00  0.00    -0.048 SA
ATOM      5  C   UNL d   1      46.170 -17.755  43.647  0.00  0.00     0.107 A 
ATOM      6  C   UNL d   1      46.304 -18.293  44.254  0.00  0.00     0.102 A 
ATOM      7  C   UNL d   1      46.528 -19.823  44.092  0.00  0.00     0.073 A 
ATOM      8  C   UNL d   1      46.530 -20.221  43.385  0.00  0.00     0.056 A 
ATOM      9  C   UNL d   1      46.642 -20.146  44.852  0.00  0.00     0.020 C 
ENDROOT
BRANCH   5  10
ATOM     10  C   UNL d   1      46.048 -16.933  43.718  0.00  0.00     0.056 C 
BRANCH  10  11
ATOM     11  S   UNL d   1      45.772 -16.639  44.436  0.00  0.00    -0.085 SA
BRANCH  11  12
ATOM     12  C   UNL d   1      45.654 -15.830  44.523  0.00  0.00     0.030 A 
ATOM     13  C   UNL d   1      44.954 -15.537  44.868  0.00  0.00     0.007 A 
ATOM     14  C   UNL d   1      44.837 -14.732  44.955  0.00  0.00     0.012 A 
ATOM     15  C   UNL d   1      45.418 -14.205  44.699  0.00  0.00     0.058 A 
ATOM     16  C   UNL d   1      46.118 -14.481  44.354  0.00  0.00     0.012 A 
ATOM     17 CL   UNL d   1      45.315 -13.402  44.778  0.00  0.00    -0.082 Cl
ATOM     18  C   UNL d   1      46.238 -15.307  44.265  0.00  0.00     0.007 A 
ENDBRANCH  11  12
ENDBRANCH  10  11
ENDBRANCH   5  10
TORSDOF 3
ENDMDL
