MODEL 1
REMARK VINA RESULT:      -5.4      0.000      0.000
REMARK  4 active torsions:
REMARK  status: ('A' for Active; 'I' for Inactive)
REMARK    1  A    between atoms: C_2  and  C_1 
REMARK       I    between atoms: N_3  and  C_1 
REMARK       I    between atoms: N_4  and  C_2 
REMARK    2  A    between atoms: C_8  and  N_3 
REMARK    3  A    between atoms: C_9  and  N_4 
REMARK    4  A    between atoms: C_10  and  C_9 
ROOT
ATOM      1  C   UNL d   1     -41.383-121.624 -51.804  0.00  0.00     0.337 C 
ATOM      2  N   UNL d   1     -41.642-121.433 -51.044  0.00  0.00    -0.204 NA
ATOM      3  O   UNL d   1     -41.123-121.028 -52.312  0.00  0.00    -0.260 OA
ENDROOT
BRANCH   1   4
ATOM      4  C   UNL d   1     -41.384-122.407 -52.053  0.00  0.00     0.337 C 
ATOM      5  N   UNL d   1     -41.585-122.594 -52.835  0.00  0.00    -0.201 NA
ATOM      6  O   UNL d   1     -41.184-123.009 -51.525  0.00  0.00    -0.260 OA
BRANCH   5   7
ATOM      7  C   UNL d   1     -41.784-121.992 -53.362  0.00  0.00     0.121 C 
BRANCH   7   8
ATOM      8  C   UNL d   1     -41.936-122.160 -54.144  0.00  0.00     0.101 A 
ATOM      9  N   UNL d   1     -42.516-121.732 -54.546  0.00  0.00    -0.242 NA
ATOM     10  C   UNL d   1     -42.675-121.899 -55.339  0.00  0.00     0.099 A 
ATOM     11  C   UNL d   1     -42.257-122.489 -55.727  0.00  0.00     0.021 A 
ATOM     12  C   UNL d   1     -41.677-122.917 -55.324  0.00  0.00     0.003 A 
ATOM     13  C   UNL d   1     -41.518-122.750 -54.531  0.00  0.00     0.021 A 
ENDBRANCH   7   8
ENDBRANCH   5   7
ENDBRANCH   1   4
BRANCH   2  14
ATOM     14  C   UNL d   1     -41.902-122.029 -50.536  0.00  0.00     0.085 A 
ATOM     15  C   UNL d   1     -41.357-122.452 -50.082  0.00  0.00     0.019 A 
ATOM     16  C   UNL d   1     -41.617-123.048 -49.574  0.00  0.00     0.002 A 
ATOM     17  C   UNL d   1     -42.422-123.220 -49.519  0.00  0.00     0.000 A 
ATOM     18  C   UNL d   1     -42.959-122.799 -49.969  0.00  0.00     0.002 A 
ATOM     19  C   UNL d   1     -42.682-123.816 -49.011  0.00  0.00     0.000 C 
ATOM     20  C   UNL d   1     -42.699-122.203 -50.477  0.00  0.00     0.019 A 
ENDBRANCH   2  14
TORSDOF 4
ENDMDL
MODEL 2
REMARK VINA RESULT:      -4.5      0.978      4.281
REMARK  4 active torsions:
REMARK  status: ('A' for Active; 'I' for Inactive)
REMARK    1  A    between atoms: C_2  and  C_1 
REMARK       I    between atoms: N_3  and  C_1 
REMARK       I    between atoms: N_4  and  C_2 
REMARK    2  A    between atoms: C_8  and  N_3 
REMARK    3  A    between atoms: C_9  and  N_4 
REMARK    4  A    between atoms: C_10  and  C_9 
ROOT
ATOM      1  C   UNL d   1     -41.352-121.968 -51.958  0.00  0.00     0.337 C 
ATOM      2  N   UNL d   1     -41.452-121.521 -52.644  0.00  0.00    -0.204 NA
ATOM      3  O   UNL d   1     -41.124-121.600 -51.256  0.00  0.00    -0.260 OA
ENDROOT
BRANCH   1   4
ATOM      4  C   UNL d   1     -41.481-122.780 -51.975  0.00  0.00     0.337 C 
ATOM      5  N   UNL d   1     -41.870-123.152 -51.345  0.00  0.00    -0.201 NA
ATOM      6  O   UNL d   1     -41.224-123.226 -52.619  0.00  0.00    -0.260 OA
BRANCH   5   7
ATOM      7  C   UNL d   1     -42.127-122.706 -50.700  0.00  0.00     0.121 C 
BRANCH   7   8
ATOM      8  C   UNL d   1     -42.418-123.071 -50.034  0.00  0.00     0.101 A 
ATOM      9  N   UNL d   1     -43.160-123.432 -50.060  0.00  0.00    -0.242 NA
ATOM     10  C   UNL d   1     -43.462-123.805 -49.388  0.00  0.00     0.099 A 
ATOM     11  C   UNL d   1     -43.023-123.817 -48.695  0.00  0.00     0.021 A 
ATOM     12  C   UNL d   1     -42.281-123.457 -48.669  0.00  0.00     0.003 A 
ATOM     13  C   UNL d   1     -41.980-123.084 -49.341  0.00  0.00     0.021 A 
ENDBRANCH   7   8
ENDBRANCH   5   7
ENDBRANCH   1   4
BRANCH   2  14
ATOM     14  C   UNL d   1     -41.680-121.889 -53.347  0.00  0.00     0.085 A 
ATOM     15  C   UNL d   1     -41.128-122.316 -53.788  0.00  0.00     0.019 A 
ATOM     16  C   UNL d   1     -41.357-122.684 -54.490  0.00  0.00     0.002 A 
ATOM     17  C   UNL d   1     -42.137-122.625 -54.751  0.00  0.00     0.000 A 
ATOM     18  C   UNL d   1     -42.681-122.201 -54.311  0.00  0.00     0.002 A 
ATOM     19  C   UNL d   1     -42.366-122.993 -55.453  0.00  0.00     0.000 C 
ATOM     20  C   UNL d   1     -42.453-121.833 -53.609  0.00  0.00     0.019 A 
ENDBRANCH   2  14
TORSDOF 4
ENDMDL
MODEL 3
REMARK VINA RESULT:      -3.9      1.190      1.532
REMARK  4 active torsions:
REMARK  status: ('A' for Active; 'I' for Inactive)
REMARK    1  A    between atoms: C_2  and  C_1 
REMARK       I    between atoms: N_3  and  C_1 
REMARK       I    between atoms: N_4  and  C_2 
REMARK    2  A    between atoms: C_8  and  N_3 
REMARK    3  A    between atoms: C_9  and  N_4 
REMARK    4  A    between atoms: C_10  and  C_9 
ROOT
ATOM      1  C   UNL d   1     -42.865-122.101 -51.028  0.00  0.00     0.337 C 
ATOM      2  N   UNL d   1     -43.170-122.479 -50.361  0.00  0.00    -0.204 NA
ATOM      3  O   UNL d   1     -43.377-121.805 -51.603  0.00  0.00    -0.260 OA
ENDROOT
BRANCH   1   4
ATOM      4  C   UNL d   1     -42.053-122.021 -51.119  0.00  0.00     0.337 C 
ATOM      5  N   UNL d   1     -41.687-122.263 -51.823  0.00  0.00    -0.201 NA
ATOM      6  O   UNL d   1     -41.598-121.700 -50.511  0.00  0.00    -0.260 OA
BRANCH   5   7
ATOM      7  C   UNL d   1     -42.142-122.585 -52.431  0.00  0.00     0.121 C 
BRANCH   7   8
ATOM      8  C   UNL d   1     -41.805-122.760 -53.151  0.00  0.00     0.101 A 
ATOM      9  N   UNL d   1     -41.792-122.185 -53.744  0.00  0.00    -0.242 NA
ATOM     10  C   UNL d   1     -41.451-122.356 -54.476  0.00  0.00     0.099 A 
ATOM     11  C   UNL d   1     -41.125-123.096 -54.615  0.00  0.00     0.021 A 
ATOM     12  C   UNL d   1     -41.138-123.670 -54.022  0.00  0.00     0.003 A 
ATOM     13  C   UNL d   1     -41.479-123.500 -53.289  0.00  0.00     0.021 A 
ENDBRANCH   7   8
ENDBRANCH   5   7
ENDBRANCH   1   4
BRANCH   2  14
ATOM     14  C   UNL d   1     -42.658-122.776 -49.786  0.00  0.00     0.085 A 
ATOM     15  C   UNL d   1     -42.315-123.521 -49.883  0.00  0.00     0.019 A 
ATOM     16  C   UNL d   1     -41.803-123.817 -49.308  0.00  0.00     0.002 A 
ATOM     17  C   UNL d   1     -41.635-123.369 -48.636  0.00  0.00     0.000 A 
ATOM     18  C   UNL d   1     -41.976-122.632 -48.543  0.00  0.00     0.002 A 
ATOM     19  C   UNL d   1     -41.123-123.666 -48.061  0.00  0.00     0.000 C 
ATOM     20  C   UNL d   1     -42.488-122.335 -49.118  0.00  0.00     0.019 A 
ENDBRANCH   2  14
TORSDOF 4
ENDMDL
MODEL 4
REMARK VINA RESULT:      -3.9      1.039      4.479
REMARK  4 active torsions:
REMARK  status: ('A' for Active; 'I' for Inactive)
REMARK    1  A    between atoms: C_2  and  C_1 
REMARK       I    between atoms: N_3  and  C_1 
REMARK       I    between atoms: N_4  and  C_2 
REMARK    2  A    between atoms: C_8  and  N_3 
REMARK    3  A    between atoms: C_9  and  N_4 
REMARK    4  A    between atoms: C_10  and  C_9 
ROOT
ATOM      1  C   UNL d   1     -41.393-123.308 -52.693  0.00  0.00     0.337 C 
ATOM      2  N   UNL d   1     -41.363-123.540 -53.485  0.00  0.00    -0.204 NA
ATOM      3  O   UNL d   1     -41.123-123.817 -52.104  0.00  0.00    -0.260 OA
ENDROOT
BRANCH   1   4
ATOM      4  C   UNL d   1     -41.694-122.569 -52.494  0.00  0.00     0.337 C 
ATOM      5  N   UNL d   1     -41.945-122.418 -51.719  0.00  0.00    -0.201 NA
ATOM      6  O   UNL d   1     -41.745-121.976 -53.065  0.00  0.00    -0.260 OA
BRANCH   5   7
ATOM      7  C   UNL d   1     -41.893-123.011 -51.148  0.00  0.00     0.121 C 
BRANCH   7   8
ATOM      8  C   UNL d   1     -42.213-122.901 -50.408  0.00  0.00     0.101 A 
ATOM      9  N   UNL d   1     -43.025-122.778 -50.330  0.00  0.00    -0.242 NA
ATOM     10  C   UNL d   1     -43.356-122.666 -49.582  0.00  0.00     0.099 A 
ATOM     11  C   UNL d   1     -42.877-122.676 -48.917  0.00  0.00     0.021 A 
ATOM     12  C   UNL d   1     -42.065-122.799 -48.994  0.00  0.00     0.003 A 
ATOM     13  C   UNL d   1     -41.734-122.912 -49.742  0.00  0.00     0.021 A 
ENDBRANCH   7   8
ENDBRANCH   5   7
ENDBRANCH   1   4
BRANCH   2  14
ATOM     14  C   UNL d   1     -41.634-123.031 -54.074  0.00  0.00     0.085 A 
ATOM     15  C   UNL d   1     -41.123-122.473 -54.405  0.00  0.00     0.019 A 
ATOM     16  C   UNL d   1     -41.393-121.964 -54.995  0.00  0.00     0.002 A 
ATOM     17  C   UNL d   1     -42.175-122.013 -55.254  0.00  0.00     0.000 A 
ATOM     18  C   UNL d   1     -42.678-122.566 -54.925  0.00  0.00     0.002 A 
ATOM     19  C   UNL d   1     -42.446-121.503 -55.844  0.00  0.00     0.000 C 
ATOM     20  C   UNL d   1     -42.408-123.076 -54.335  0.00  0.00     0.019 A 
ENDBRANCH   2  14
TORSDOF 4
ENDMDL
