MODEL 1
REMARK VINA RESULT:      30.8      0.000      0.000
REMARK  8 active torsions:
REMARK  status: ('A' for Active; 'I' for Inactive)
REMARK    1  A    between atoms: N_5  and  C_1 
REMARK    2  A    between atoms: C_2  and  N_5 
REMARK    3  A    between atoms: N_3  and  C_2 
REMARK       I    between atoms: C_6  and  N_3 
REMARK    4  A    between atoms: C_13  and  C_6 
REMARK    5  A    between atoms: C_9  and  C_7 
REMARK    6  A    between atoms: C_11  and  C_9 
REMARK    7  A    between atoms: O_21  and  C_11 
REMARK    8  A    between atoms: C_23  and  O_21 
ROOT
ATOM      1  C   UNL d   1      14.956  13.560  -0.640  0.00  0.00     0.225 C 
ATOM      2  S   UNL d   1      15.472  13.633  -0.015  0.00  0.00    -0.037 SA
ENDROOT
BRANCH   1   3
ATOM      3  N   UNL d   1      14.457  12.904  -0.682  0.00  0.00    -0.192 NA
BRANCH   3   4
ATOM      4  C   UNL d   1      14.299  12.550  -1.424  0.00  0.00     0.196 A 
ATOM      5  N   UNL d   1      13.624  12.623  -1.861  0.00  0.00    -0.220 NA
ATOM      6  C   UNL d   1      13.723  12.186  -2.529  0.00  0.00     0.095 A 
ATOM      7  C   UNL d   1      14.471  11.841  -2.495  0.00  0.00     0.058 A 
ATOM      8  S   UNL d   1      14.816  12.072  -1.811  0.00  0.00    -0.046 SA
BRANCH   6   9
ATOM      9  C   UNL d   1      13.150  12.111  -3.137  0.00  0.00     0.088 C 
BRANCH   9  10
ATOM     10  C   UNL d   1      13.296  12.354  -3.894  0.00  0.00     0.302 C 
ATOM     11  O   UNL d   1      13.266  13.142  -4.113  0.00  0.00    -0.259 OA
BRANCH  10  12
ATOM     12  O   UNL d   1      13.485  11.786  -4.483  0.00  0.00    -0.271 OA
BRANCH  12  13
ATOM     13  C   UNL d   1      13.204  11.903  -5.253  0.00  0.00     0.126 C 
ATOM     14  C   UNL d   1      13.734  12.205  -5.804  0.00  0.00     0.029 C 
ENDBRANCH  12  13
ENDBRANCH  10  12
ENDBRANCH   9  10
ENDBRANCH   6   9
ENDBRANCH   3   4
ENDBRANCH   1   3
BRANCH   1  15
ATOM     15  N   UNL d   1      14.923  14.119  -1.222  0.00  0.00    -0.179 NA
ATOM     16  C   UNL d   1      14.927  14.924  -1.014  0.00  0.00     0.281 C 
ATOM     17  O   UNL d   1      14.964  15.144  -0.227  0.00  0.00    -0.265 OA
BRANCH  16  18
ATOM     18  C   UNL d   1      14.893  15.506  -1.608  0.00  0.00     0.058 A 
ATOM     19  C   UNL d   1      14.323  15.461  -2.212  0.00  0.00     0.007 A 
ATOM     20  C   UNL d   1      14.308  16.052  -2.792  0.00  0.00     0.030 A 
ATOM     21  C   UNL d   1      14.855  16.680  -2.771  0.00  0.00     0.140 A 
ATOM     22  C   UNL d   1      15.409  16.712  -2.174  0.00  0.00     0.030 A 
ATOM     23  F   UNL d   1      14.840  17.256  -3.337  0.00  0.00    -0.204 F 
ATOM     24  C   UNL d   1      15.436  16.135  -1.592  0.00  0.00     0.007 A 
ENDBRANCH  16  18
ENDBRANCH   1  15
TORSDOF 8
ENDMDL
MODEL 2
REMARK VINA RESULT:      32.9      1.726      2.514
REMARK  8 active torsions:
REMARK  status: ('A' for Active; 'I' for Inactive)
REMARK    1  A    between atoms: N_5  and  C_1 
REMARK    2  A    between atoms: C_2  and  N_5 
REMARK    3  A    between atoms: N_3  and  C_2 
REMARK       I    between atoms: C_6  and  N_3 
REMARK    4  A    between atoms: C_13  and  C_6 
REMARK    5  A    between atoms: C_9  and  C_7 
REMARK    6  A    between atoms: C_11  and  C_9 
REMARK    7  A    between atoms: O_21  and  C_11 
REMARK    8  A    between atoms: C_23  and  O_21 
ROOT
ATOM      1  C   UNL d   1      15.284  15.653  -0.512  0.00  0.00     0.225 C 
ATOM      2  S   UNL d   1      15.839  16.157  -0.197  0.00  0.00    -0.037 SA
ENDROOT
BRANCH   1   3
ATOM      3  N   UNL d   1      14.888  15.122  -0.019  0.00  0.00    -0.192 NA
BRANCH   3   4
ATOM      4  C   UNL d   1      15.084  14.309  -0.042  0.00  0.00     0.196 A 
ATOM      5  N   UNL d   1      14.569  13.689  -0.092  0.00  0.00    -0.220 NA
ATOM      6  C   UNL d   1      15.008  13.014  -0.097  0.00  0.00     0.095 A 
ATOM      7  C   UNL d   1      15.802  13.229  -0.047  0.00  0.00     0.058 A 
ATOM      8  S   UNL d   1      15.836  14.029  -0.014  0.00  0.00    -0.046 SA
BRANCH   6   9
ATOM      9  C   UNL d   1      14.687  12.240  -0.144  0.00  0.00     0.088 C 
BRANCH   9  10
ATOM     10  C   UNL d   1      14.094  12.054  -0.661  0.00  0.00     0.302 C 
ATOM     11  O   UNL d   1      13.303  12.121  -0.461  0.00  0.00    -0.259 OA
BRANCH  10  12
ATOM     12  O   UNL d   1      14.286  11.782  -1.432  0.00  0.00    -0.271 OA
BRANCH  12  13
ATOM     13  C   UNL d   1      13.722  11.859  -2.033  0.00  0.00     0.126 C 
ATOM     14  C   UNL d   1      13.825  12.474  -2.569  0.00  0.00     0.029 C 
ENDBRANCH  12  13
ENDBRANCH  10  12
ENDBRANCH   9  10
ENDBRANCH   6   9
ENDBRANCH   3   4
ENDBRANCH   1   3
BRANCH   1  15
ATOM     15  N   UNL d   1      15.112  15.661  -1.302  0.00  0.00    -0.179 NA
ATOM     16  C   UNL d   1      15.045  16.390  -1.696  0.00  0.00     0.281 C 
ATOM     17  O   UNL d   1      15.152  17.089  -1.285  0.00  0.00    -0.265 OA
BRANCH  16  18
ATOM     18  C   UNL d   1      14.868  16.407  -2.509  0.00  0.00     0.058 A 
ATOM     19  C   UNL d   1      15.128  17.037  -2.985  0.00  0.00     0.007 A 
ATOM     20  C   UNL d   1      14.940  17.032  -3.792  0.00  0.00     0.030 A 
ATOM     21  C   UNL d   1      14.499  16.407  -4.120  0.00  0.00     0.140 A 
ATOM     22  C   UNL d   1      14.250  15.795  -3.642  0.00  0.00     0.030 A 
ATOM     23  F   UNL d   1      14.316  16.403  -4.907  0.00  0.00    -0.204 F 
ATOM     24  C   UNL d   1      14.428  15.786  -2.841  0.00  0.00     0.007 A 
ENDBRANCH  16  18
ENDBRANCH   1  15
TORSDOF 8
ENDMDL
