MODEL 1
REMARK VINA RESULT:      13.6      0.000      0.000
REMARK  6 active torsions:
REMARK  status: ('A' for Active; 'I' for Inactive)
REMARK    1  A    between atoms: C_16  and  N_1 
REMARK    2  A    between atoms: C_11  and  C_2 
REMARK    3  A    between atoms: S_15  and  C_3 
REMARK    4  A    between atoms: C_8  and  C_11 
REMARK    5  A    between atoms: C_13  and  C_17 
REMARK       I    between atoms: N_14  and  C_13 
REMARK    6  A    between atoms: C_17  and  S_15 
ROOT
ATOM      1  N   UNL d   1     -41.757-121.786 -52.010  0.00  0.00    -0.269 N 
ATOM      2  C   UNL d   1     -41.466-121.011 -51.934  0.00  0.00     0.172 A 
ATOM      3  C   UNL d   1     -41.966-122.043 -51.258  0.00  0.00     0.201 A 
ATOM      4  N   UNL d   1     -41.499-120.802 -51.144  0.00  0.00    -0.128 NA
ATOM      5  N   UNL d   1     -41.811-121.447 -50.725  0.00  0.00    -0.121 NA
ENDROOT
BRANCH   3   6
ATOM      6  S   UNL d   1     -42.287-122.791 -51.059  0.00  0.00    -0.043 SA
BRANCH   6   7
ATOM      7  C   UNL d   1     -42.052-123.169 -50.355  0.00  0.00     0.099 C 
BRANCH   7   8
ATOM      8  C   UNL d   1     -42.617-123.350 -49.787  0.00  0.00     0.271 C 
ATOM      9  N   UNL d   1     -42.390-123.491 -49.007  0.00  0.00    -0.272 N 
ATOM     10  C   UNL d   1     -42.959-123.674 -48.432  0.00  0.00     0.083 A 
ATOM     11  C   UNL d   1     -41.594-123.451 -48.792  0.00  0.00     0.083 A 
ATOM     12  C   UNL d   1     -42.732-123.816 -47.652  0.00  0.00     0.019 A 
ATOM     13  C   UNL d   1     -41.932-123.773 -47.445  0.00  0.00     0.003 A 
ATOM     14  C   UNL d   1     -41.367-123.592 -48.012  0.00  0.00     0.019 A 
ATOM     15  O   UNL d   1     -43.422-123.393 -49.996  0.00  0.00    -0.266 OA
ENDBRANCH   7   8
ENDBRANCH   6   7
ENDBRANCH   3   6
BRANCH   1  16
ATOM     16  C   UNL d   1     -41.836-122.241 -52.690  0.00  0.00     0.067 A 
ATOM     17  C   UNL d   1     -41.200-122.724 -52.934  0.00  0.00     0.018 A 
ATOM     18  C   UNL d   1     -41.272-123.188 -53.620  0.00  0.00     0.002 A 
ATOM     19  C   UNL d   1     -41.977-123.159 -54.049  0.00  0.00     0.000 A 
ATOM     20  C   UNL d   1     -42.602-122.688 -53.815  0.00  0.00     0.002 A 
ATOM     21  C   UNL d   1     -42.531-122.225 -53.128  0.00  0.00     0.018 A 
ENDBRANCH   1  16
BRANCH   2  22
ATOM     22  C   UNL d   1     -41.209-120.603 -52.613  0.00  0.00     0.059 C 
BRANCH  22  23
ATOM     23  C   UNL d   1     -41.183-119.772 -52.605  0.00  0.00     0.094 A 
ATOM     24  C   UNL d   1     -41.169-119.345 -53.312  0.00  0.00     0.082 A 
ATOM     25  C   UNL d   1     -41.144-118.524 -53.295  0.00  0.00     0.285 A 
ATOM     26  O   UNL d   1     -41.131-118.098 -54.002  0.00  0.00    -0.265 OA
ATOM     27  N   UNL d   1     -41.133-118.128 -52.572  0.00  0.00    -0.152 NA
ATOM     28  C   UNL d   1     -41.146-118.542 -51.873  0.00  0.00     0.371 A 
ATOM     29  N   UNL d   1     -41.172-119.375 -51.883  0.00  0.00    -0.191 NA
ATOM     30  O   UNL d   1     -41.134-118.117 -51.149  0.00  0.00    -0.242 OA
ENDBRANCH  22  23
ENDBRANCH   2  22
TORSDOF 6
ENDMDL
