MODEL 1
REMARK VINA RESULT:      48.7      0.000      0.000
REMARK  5 active torsions:
REMARK  status: ('A' for Active; 'I' for Inactive)
REMARK    1  A    between atoms: C_5  and  N_1 
REMARK    2  A    between atoms: C_7  and  C_5 
REMARK    3  A    between atoms: O_14  and  C_10 
REMARK    4  A    between atoms: C_18  and  O_14 
REMARK    5  A    between atoms: C_19  and  C_18 
ROOT
ATOM      1  N   UNL d   1     -51.693  25.126  33.770  0.00  0.00    -0.251 N 
ATOM      2  C   UNL d   1     -50.980  24.782  33.524  0.00  0.00     0.378 A 
ATOM      3  C   UNL d   1     -52.290  24.556  33.708  0.00  0.00     0.092 A 
ATOM      4  O   UNL d   1     -51.139  23.997  33.309  0.00  0.00    -0.258 OA
ATOM      5  C   UNL d   1     -51.948  23.859  33.423  0.00  0.00     0.121 A 
ATOM      6  O   UNL d   1     -50.245  25.149  33.496  0.00  0.00    -0.237 OA
ATOM      7  C   UNL d   1     -53.094  24.590  33.874  0.00  0.00     0.020 A 
ATOM      8  C   UNL d   1     -52.426  23.192  33.306  0.00  0.00     0.026 A 
ATOM      9  C   UNL d   1     -53.564  23.927  33.758  0.00  0.00     0.002 A 
ATOM     10  C   UNL d   1     -53.229  23.226  33.473  0.00  0.00     0.002 A 
ATOM     11  C   UNL d   1     -54.372  23.959  33.925  0.00  0.00     0.000 C 
ENDROOT
BRANCH   1  12
ATOM     12  C   UNL d   1     -51.827  25.896  34.037  0.00  0.00     0.087 C 
BRANCH  12  13
ATOM     13  C   UNL d   1     -51.210  26.450  34.039  0.00  0.00     0.041 A 
ATOM     14  C   UNL d   1     -50.958  26.778  34.738  0.00  0.00     0.102 A 
ATOM     15  C   UNL d   1     -50.349  27.326  34.738  0.00  0.00     0.025 A 
ATOM     16  C   UNL d   1     -49.991  27.545  34.030  0.00  0.00     0.002 A 
ATOM     17  C   UNL d   1     -50.248  27.210  33.321  0.00  0.00     0.000 A 
ATOM     18  C   UNL d   1     -50.863  26.659  33.326  0.00  0.00     0.004 A 
BRANCH  14  19
ATOM     19  O   UNL d   1     -51.316  26.561  35.454  0.00  0.00    -0.305 OA
BRANCH  19  20
ATOM     20  C   UNL d   1     -50.888  26.601  36.159  0.00  0.00     0.123 C 
BRANCH  20  21
ATOM     21  C   UNL d   1     -51.249  26.869  36.844  0.00  0.00     0.027 C 
ATOM     22  C   UNL d   1     -50.791  27.142  37.475  0.00  0.00     0.002 C 
ENDBRANCH  20  21
ENDBRANCH  19  20
ENDBRANCH  14  19
ENDBRANCH  12  13
ENDBRANCH   1  12
TORSDOF 5
ENDMDL
