MODEL 1
REMARK VINA RESULT:      29.2      0.000      0.000
REMARK  3 active torsions:
REMARK  status: ('A' for Active; 'I' for Inactive)
REMARK    1  A    between atoms: C_3  and  C_1 
REMARK    2  A    between atoms: C_5  and  C_3 
REMARK    3  A    between atoms: C_11  and  C_5 
ROOT
ATOM      1  C   UNL d   1     -55.650 -99.415 -44.301  0.00  0.00     0.109 C 
ATOM      2  C   UNL d   1     -55.206 -99.085 -43.695  0.00  0.00     0.105 C 
ATOM      3  N   UNL d   1     -54.754 -98.756 -43.089  0.00  0.00    -0.191 NA
ENDROOT
BRANCH   1   4
ATOM      4  C   UNL d   1     -56.462 -99.263 -44.341  0.00  0.00     0.192 A 
ATOM      5  N   UNL d   1     -56.984 -99.174 -43.693  0.00  0.00    -0.220 NA
ATOM      6  C   UNL d   1     -57.746 -99.029 -43.991  0.00  0.00     0.106 A 
ATOM      7  C   UNL d   1     -58.467 -98.899 -43.613  0.00  0.00     0.021 A 
ATOM      8  C   UNL d   1     -57.704 -99.026 -44.821  0.00  0.00     0.119 A 
ATOM      9  C   UNL d   1     -59.148 -98.767 -44.061  0.00  0.00     0.002 A 
ATOM     10  C   UNL d   1     -59.106 -98.765 -44.890  0.00  0.00     0.002 A 
ATOM     11  C   UNL d   1     -58.384 -98.894 -45.268  0.00  0.00     0.026 A 
ATOM     12  O   UNL d   1     -56.916 -99.170 -45.041  0.00  0.00    -0.287 OA
ENDBRANCH   1   4
BRANCH   1  13
ATOM     13  C   UNL d   1     -55.291 -99.896 -44.867  0.00  0.00     0.014 C 
BRANCH  13  14
ATOM     14  C   UNL d   1     -55.101-100.679 -44.684  0.00  0.00     0.004 A 
ATOM     15  C   UNL d   1     -55.024-101.230 -45.293  0.00  0.00     0.021 A 
ATOM     16  C   UNL d   1     -54.835-102.014 -45.110  0.00  0.00     0.099 A 
ATOM     17  N   UNL d   1     -54.724-102.240 -44.324  0.00  0.00    -0.242 NA
ATOM     18  C   UNL d   1     -54.802-101.679 -43.709  0.00  0.00     0.099 A 
ATOM     19  C   UNL d   1     -54.992-100.898 -43.900  0.00  0.00     0.021 A 
ENDBRANCH  13  14
ENDBRANCH   1  13
TORSDOF 3
ENDMDL
