MODEL 1
REMARK VINA RESULT:      -6.9      0.000      0.000
REMARK  4 active torsions:
REMARK  status: ('A' for Active; 'I' for Inactive)
REMARK    1  A    between atoms: C_5  and  C_3 
REMARK    2  A    between atoms: C_8  and  C_5 
REMARK    3  A    between atoms: C_7  and  C_9 
REMARK    4  A    between atoms: C_9  and  C_8 
ROOT
ATOM      1  C   UNL d   1     -48.645  13.510  22.949  0.00  0.00     0.042 C 
ENDROOT
BRANCH   1   2
ATOM      2  C   UNL d   1     -47.882  13.231  22.822  0.00  0.00     0.006 C 
BRANCH   2   3
ATOM      3  C   UNL d   1     -47.651  12.500  23.149  0.00  0.00     0.039 A 
ATOM      4  C   UNL d   1     -48.092  11.860  23.455  0.00  0.00     0.122 A 
ATOM      5  N   UNL d   1     -47.561  11.293  23.698  0.00  0.00    -0.164 NA
ATOM      6  N   UNL d   1     -46.796  11.555  23.555  0.00  0.00    -0.227 N 
ATOM      7  C   UNL d   1     -46.854  12.312  23.211  0.00  0.00     0.085 A 
ATOM      8  C   UNL d   1     -46.067  11.195  23.698  0.00  0.00     0.121 C 
ATOM      9  C   UNL d   1     -46.285  12.849  22.948  0.00  0.00     0.021 C 
ENDBRANCH   2   3
ENDBRANCH   1   2
BRANCH   1  10
ATOM     10  C   UNL d   1     -48.928  14.141  22.492  0.00  0.00     0.199 C 
ATOM     11  O   UNL d   1     -48.586  14.309  21.748  0.00  0.00    -0.286 OA
BRANCH  10  12
ATOM     12  C   UNL d   1     -49.556  14.613  22.773  0.00  0.00     0.078 A 
ATOM     13  C   UNL d   1     -50.314  14.521  22.467  0.00  0.00     0.199 A 
ATOM     14  O   UNL d   1     -50.450  13.962  21.883  0.00  0.00    -0.286 OA
ATOM     15  C   UNL d   1     -50.927  14.993  22.753  0.00  0.00     0.042 A 
ATOM     16  C   UNL d   1     -50.784  15.557  23.345  0.00  0.00     0.003 A 
ATOM     17  C   UNL d   1     -50.033  15.644  23.644  0.00  0.00     0.000 A 
ATOM     18  C   UNL d   1     -49.413  15.176  23.364  0.00  0.00     0.006 A 
ENDBRANCH  10  12
ENDBRANCH   1  10
TORSDOF 4
ENDMDL
MODEL 2
REMARK VINA RESULT:      -6.3      1.345      1.588
REMARK  4 active torsions:
REMARK  status: ('A' for Active; 'I' for Inactive)
REMARK    1  A    between atoms: C_5  and  C_3 
REMARK    2  A    between atoms: C_8  and  C_5 
REMARK    3  A    between atoms: C_7  and  C_9 
REMARK    4  A    between atoms: C_9  and  C_8 
ROOT
ATOM      1  C   UNL d   1     -48.102  13.097  22.972  0.00  0.00     0.042 C 
ENDROOT
BRANCH   1   2
ATOM      2  C   UNL d   1     -47.321  13.346  23.039  0.00  0.00     0.006 C 
BRANCH   2   3
ATOM      3  C   UNL d   1     -46.720  12.785  23.175  0.00  0.00     0.039 A 
ATOM      4  C   UNL d   1     -46.683  12.114  23.670  0.00  0.00     0.122 A 
ATOM      5  N   UNL d   1     -45.949  11.777  23.570  0.00  0.00    -0.164 NA
ATOM      6  N   UNL d   1     -45.519  12.215  23.025  0.00  0.00    -0.227 N 
ATOM      7  C   UNL d   1     -46.004  12.847  22.778  0.00  0.00     0.085 A 
ATOM      8  C   UNL d   1     -44.755  12.110  22.733  0.00  0.00     0.121 C 
ATOM      9  C   UNL d   1     -45.882  13.465  22.246  0.00  0.00     0.021 C 
ENDBRANCH   2   3
ENDBRANCH   1   2
BRANCH   1  10
ATOM     10  C   UNL d   1     -48.705  13.664  22.919  0.00  0.00     0.199 C 
ATOM     11  O   UNL d   1     -48.529  14.475  23.004  0.00  0.00    -0.286 OA
BRANCH  10  12
ATOM     12  C   UNL d   1     -49.492  13.424  22.781  0.00  0.00     0.078 A 
ATOM     13  C   UNL d   1     -49.828  13.510  22.035  0.00  0.00     0.199 A 
ATOM     14  O   UNL d   1     -49.384  13.833  21.426  0.00  0.00    -0.286 OA
ATOM     15  C   UNL d   1     -50.607  13.269  21.910  0.00  0.00     0.042 A 
ATOM     16  C   UNL d   1     -51.052  12.943  22.530  0.00  0.00     0.003 A 
ATOM     17  C   UNL d   1     -50.715  12.860  23.265  0.00  0.00     0.000 A 
ATOM     18  C   UNL d   1     -49.937  13.098  23.400  0.00  0.00     0.006 A 
ENDBRANCH  10  12
ENDBRANCH   1  10
TORSDOF 4
ENDMDL
MODEL 3
REMARK VINA RESULT:      -4.9      9.003      9.810
REMARK  4 active torsions:
REMARK  status: ('A' for Active; 'I' for Inactive)
REMARK    1  A    between atoms: C_5  and  C_3 
REMARK    2  A    between atoms: C_8  and  C_5 
REMARK    3  A    between atoms: C_7  and  C_9 
REMARK    4  A    between atoms: C_9  and  C_8 
ROOT
ATOM      1  C   UNL d   1     -40.088  14.717  20.059  0.00  0.00     0.042 C 
ENDROOT
BRANCH   1   2
ATOM      2  C   UNL d   1     -40.574  14.946  19.437  0.00  0.00     0.006 C 
BRANCH   2   3
ATOM      3  C   UNL d   1     -40.384  14.717  18.659  0.00  0.00     0.039 A 
ATOM      4  C   UNL d   1     -40.004  14.040  18.353  0.00  0.00     0.122 A 
ATOM      5  N   UNL d   1     -39.973  14.123  17.544  0.00  0.00    -0.164 NA
ATOM      6  N   UNL d   1     -40.322  14.834  17.327  0.00  0.00    -0.227 N 
ATOM      7  C   UNL d   1     -40.580  15.205  18.029  0.00  0.00     0.085 A 
ATOM      8  C   UNL d   1     -40.432  15.177  16.585  0.00  0.00     0.121 C 
ATOM      9  C   UNL d   1     -40.965  15.922  18.169  0.00  0.00     0.021 C 
ENDBRANCH   2   3
ENDBRANCH   1   2
BRANCH   1  10
ATOM     10  C   UNL d   1     -40.340  14.843  20.839  0.00  0.00     0.199 C 
ATOM     11  O   UNL d   1     -41.153  14.816  21.028  0.00  0.00    -0.286 OA
BRANCH  10  12
ATOM     12  C   UNL d   1     -39.781  14.997  21.439  0.00  0.00     0.078 A 
ATOM     13  C   UNL d   1     -39.517  14.390  21.928  0.00  0.00     0.199 A 
ATOM     14  O   UNL d   1     -39.807  13.630  21.822  0.00  0.00    -0.286 OA
ATOM     15  C   UNL d   1     -38.964  14.554  22.517  0.00  0.00     0.042 A 
ATOM     16  C   UNL d   1     -38.674  15.325  22.620  0.00  0.00     0.003 A 
ATOM     17  C   UNL d   1     -38.938  15.921  22.134  0.00  0.00     0.000 A 
ATOM     18  C   UNL d   1     -39.491  15.767  21.541  0.00  0.00     0.006 A 
ENDBRANCH  10  12
ENDBRANCH   1  10
TORSDOF 4
ENDMDL
MODEL 4
REMARK VINA RESULT:      -3.9      1.919      4.215
REMARK  4 active torsions:
REMARK  status: ('A' for Active; 'I' for Inactive)
REMARK    1  A    between atoms: C_5  and  C_3 
REMARK    2  A    between atoms: C_8  and  C_5 
REMARK    3  A    between atoms: C_7  and  C_9 
REMARK    4  A    between atoms: C_9  and  C_8 
ROOT
ATOM      1  C   UNL d   1     -47.837  13.436  22.620  0.00  0.00     0.042 C 
ENDROOT
BRANCH   1   2
ATOM      2  C   UNL d   1     -48.325  14.097  22.644  0.00  0.00     0.006 C 
BRANCH   2   3
ATOM      3  C   UNL d   1     -49.063  14.079  22.257  0.00  0.00     0.039 A 
ATOM      4  C   UNL d   1     -49.334  13.656  21.590  0.00  0.00     0.122 A 
ATOM      5  N   UNL d   1     -50.112  13.864  21.470  0.00  0.00    -0.164 NA
ATOM      6  N   UNL d   1     -50.342  14.407  22.041  0.00  0.00    -0.227 N 
ATOM      7  C   UNL d   1     -49.682  14.541  22.534  0.00  0.00     0.085 A 
ATOM      8  C   UNL d   1     -51.063  14.787  22.164  0.00  0.00     0.121 C 
ATOM      9  C   UNL d   1     -49.571  15.022  23.195  0.00  0.00     0.021 C 
ENDBRANCH   2   3
ENDBRANCH   1   2
BRANCH   1  10
ATOM     10  C   UNL d   1     -47.078  13.479  22.952  0.00  0.00     0.199 C 
ATOM     11  O   UNL d   1     -46.743  14.220  23.141  0.00  0.00    -0.286 OA
BRANCH  10  12
ATOM     12  C   UNL d   1     -46.646  12.781  23.098  0.00  0.00     0.078 A 
ATOM     13  C   UNL d   1     -45.886  12.691  22.795  0.00  0.00     0.199 A 
ATOM     14  O   UNL d   1     -45.555  13.293  22.347  0.00  0.00    -0.286 OA
ATOM     15  C   UNL d   1     -45.468  11.996  22.947  0.00  0.00     0.042 A 
ATOM     16  C   UNL d   1     -45.808  11.390  23.401  0.00  0.00     0.003 A 
ATOM     17  C   UNL d   1     -46.559  11.485  23.698  0.00  0.00     0.000 A 
ATOM     18  C   UNL d   1     -46.985  12.176  23.552  0.00  0.00     0.006 A 
ENDBRANCH  10  12
ENDBRANCH   1  10
TORSDOF 4
ENDMDL
