MODEL 1
REMARK VINA RESULT:      -4.7      0.000      0.000
REMARK  0 active torsions:
REMARK  status: ('A' for Active; 'I' for Inactive)
ROOT
ATOM      1  C   UNL d   1     -41.339-122.504 -52.753  0.00  0.00     0.311 A 
ATOM      2  N   UNL d   1     -41.803-121.897 -53.078  0.00  0.00    -0.202 NA
ATOM      3  S   UNL d   1     -41.132-123.025 -53.354  0.00  0.00    -0.024 SA
ATOM      4  C   UNL d   1     -41.880-122.051 -53.893  0.00  0.00     0.091 A 
ATOM      5  C   UNL d   1     -41.467-122.746 -54.063  0.00  0.00     0.052 A 
ATOM      6  O   UNL d   1     -41.123-122.570 -51.953  0.00  0.00    -0.258 OA
ATOM      7  C   UNL d   1     -42.273-121.646 -54.495  0.00  0.00     0.020 A 
ATOM      8  C   UNL d   1     -41.446-123.036 -54.834  0.00  0.00     0.008 A 
ATOM      9  C   UNL d   1     -41.839-122.631 -55.437  0.00  0.00     0.001 A 
ATOM     10  C   UNL d   1     -42.253-121.936 -55.268  0.00  0.00     0.002 A 
ENDROOT
TORSDOF 0
ENDMDL
MODEL 2
REMARK VINA RESULT:      -4.0      0.664      1.117
REMARK  0 active torsions:
REMARK  status: ('A' for Active; 'I' for Inactive)
ROOT
ATOM      1  C   UNL d   1     -41.344-122.895 -52.744  0.00  0.00     0.311 A 
ATOM      2  N   UNL d   1     -41.171-123.314 -53.440  0.00  0.00    -0.202 NA
ATOM      3  S   UNL d   1     -41.770-122.220 -52.944  0.00  0.00    -0.024 SA
ATOM      4  C   UNL d   1     -41.498-122.887 -54.075  0.00  0.00     0.091 A 
ATOM      5  C   UNL d   1     -41.867-122.214 -53.770  0.00  0.00     0.052 A 
ATOM      6  O   UNL d   1     -41.123-123.121 -51.975  0.00  0.00    -0.258 OA
ATOM      7  C   UNL d   1     -41.504-123.028 -54.888  0.00  0.00     0.020 A 
ATOM      8  C   UNL d   1     -42.241-121.682 -54.277  0.00  0.00     0.008 A 
ATOM      9  C   UNL d   1     -42.248-121.823 -55.091  0.00  0.00     0.001 A 
ATOM     10  C   UNL d   1     -41.879-122.497 -55.396  0.00  0.00     0.002 A 
ENDROOT
TORSDOF 0
ENDMDL
MODEL 3
REMARK VINA RESULT:      -3.9      1.822      2.495
REMARK  0 active torsions:
REMARK  status: ('A' for Active; 'I' for Inactive)
ROOT
ATOM      1  C   UNL d   1     -42.186-122.020 -55.427  0.00  0.00     0.311 A 
ATOM      2  N   UNL d   1     -41.692-122.681 -55.324  0.00  0.00    -0.202 NA
ATOM      3  S   UNL d   1     -42.401-121.736 -54.686  0.00  0.00    -0.024 SA
ATOM      4  C   UNL d   1     -41.605-122.801 -54.505  0.00  0.00     0.091 A 
ATOM      5  C   UNL d   1     -42.041-122.220 -54.112  0.00  0.00     0.052 A 
ATOM      6  O   UNL d   1     -42.421-121.702 -56.158  0.00  0.00    -0.258 OA
ATOM      7  C   UNL d   1     -41.185-123.364 -54.074  0.00  0.00     0.020 A 
ATOM      8  C   UNL d   1     -42.057-122.202 -53.288  0.00  0.00     0.008 A 
ATOM      9  C   UNL d   1     -41.637-122.766 -52.855  0.00  0.00     0.001 A 
ATOM     10  C   UNL d   1     -41.201-123.347 -53.248  0.00  0.00     0.002 A 
ENDROOT
TORSDOF 0
ENDMDL
MODEL 4
REMARK VINA RESULT:      -3.7      2.377      3.697
REMARK  0 active torsions:
REMARK  status: ('A' for Active; 'I' for Inactive)
ROOT
ATOM      1  C   UNL d   1     -41.370-122.301 -51.965  0.00  0.00     0.311 A 
ATOM      2  N   UNL d   1     -41.846-121.966 -51.372  0.00  0.00    -0.202 NA
ATOM      3  S   UNL d   1     -41.123-123.044 -51.712  0.00  0.00    -0.024 SA
ATOM      4  C   UNL d   1     -41.890-122.515 -50.748  0.00  0.00     0.091 A 
ATOM      5  C   UNL d   1     -41.444-123.178 -50.957  0.00  0.00     0.052 A 
ATOM      6  O   UNL d   1     -41.177-121.943 -52.690  0.00  0.00    -0.258 OA
ATOM      7  C   UNL d   1     -42.278-122.490 -50.020  0.00  0.00     0.020 A 
ATOM      8  C   UNL d   1     -41.387-123.817 -50.439  0.00  0.00     0.008 A 
ATOM      9  C   UNL d   1     -41.775-123.793 -49.710  0.00  0.00     0.001 A 
ATOM     10  C   UNL d   1     -42.220-123.130 -49.501  0.00  0.00     0.002 A 
ENDROOT
TORSDOF 0
ENDMDL
MODEL 5
REMARK VINA RESULT:      -3.4      2.102      2.574
REMARK  0 active torsions:
REMARK  status: ('A' for Active; 'I' for Inactive)
ROOT
ATOM      1  C   UNL d   1     -41.260-123.325 -50.345  0.00  0.00     0.311 A 
ATOM      2  N   UNL d   1     -41.261-122.531 -50.592  0.00  0.00    -0.202 NA
ATOM      3  S   UNL d   1     -41.215-123.805 -51.011  0.00  0.00    -0.024 SA
ATOM      4  C   UNL d   1     -41.216-122.529 -51.423  0.00  0.00     0.091 A 
ATOM      5  C   UNL d   1     -41.188-123.313 -51.681  0.00  0.00     0.052 A 
ATOM      6  O   UNL d   1     -41.298-123.585 -49.557  0.00  0.00    -0.258 OA
ATOM      7  C   UNL d   1     -41.198-121.913 -51.971  0.00  0.00     0.020 A 
ATOM      8  C   UNL d   1     -41.141-123.481 -52.487  0.00  0.00     0.008 A 
ATOM      9  C   UNL d   1     -41.123-122.865 -53.037  0.00  0.00     0.001 A 
ATOM     10  C   UNL d   1     -41.151-122.081 -52.779  0.00  0.00     0.002 A 
ENDROOT
TORSDOF 0
ENDMDL
MODEL 6
REMARK VINA RESULT:      -3.2      3.232      4.584
REMARK  0 active torsions:
REMARK  status: ('A' for Active; 'I' for Inactive)
ROOT
ATOM      1  C   UNL d   1     -41.472-122.453 -51.031  0.00  0.00     0.311 A 
ATOM      2  N   UNL d   1     -41.123-123.001 -50.514  0.00  0.00    -0.202 NA
ATOM      3  S   UNL d   1     -42.200-122.228 -50.721  0.00  0.00    -0.024 SA
ATOM      4  C   UNL d   1     -41.647-123.112 -49.877  0.00  0.00     0.091 A 
ATOM      5  C   UNL d   1     -42.310-122.636 -50.005  0.00  0.00     0.052 A 
ATOM      6  O   UNL d   1     -41.139-122.180 -51.742  0.00  0.00    -0.258 OA
ATOM      7  C   UNL d   1     -41.602-123.585 -49.203  0.00  0.00     0.020 A 
ATOM      8  C   UNL d   1     -42.928-122.633 -49.458  0.00  0.00     0.008 A 
ATOM      9  C   UNL d   1     -42.883-123.106 -48.783  0.00  0.00     0.001 A 
ATOM     10  C   UNL d   1     -42.220-123.582 -48.655  0.00  0.00     0.002 A 
ENDROOT
TORSDOF 0
ENDMDL
MODEL 7
REMARK VINA RESULT:      -3.1      3.649      4.244
REMARK  0 active torsions:
REMARK  status: ('A' for Active; 'I' for Inactive)
ROOT
ATOM      1  C   UNL d   1     -42.769-123.405 -49.033  0.00  0.00     0.311 A 
ATOM      2  N   UNL d   1     -42.144-123.816 -49.393  0.00  0.00    -0.202 NA
ATOM      3  S   UNL d   1     -42.888-122.700 -49.441  0.00  0.00    -0.024 SA
ATOM      4  C   UNL d   1     -41.877-123.354 -50.031  0.00  0.00     0.091 A 
ATOM      5  C   UNL d   1     -42.335-122.667 -50.061  0.00  0.00     0.052 A 
ATOM      6  O   UNL d   1     -43.201-123.665 -48.371  0.00  0.00    -0.258 OA
ATOM      7  C   UNL d   1     -41.277-123.474 -50.585  0.00  0.00     0.020 A 
ATOM      8  C   UNL d   1     -42.193-122.101 -50.643  0.00  0.00     0.008 A 
ATOM      9  C   UNL d   1     -41.593-122.221 -51.198  0.00  0.00     0.001 A 
ATOM     10  C   UNL d   1     -41.135-122.907 -51.168  0.00  0.00     0.002 A 
ENDROOT
TORSDOF 0
ENDMDL
MODEL 8
REMARK VINA RESULT:      -2.4      4.754      5.412
REMARK  0 active torsions:
REMARK  status: ('A' for Active; 'I' for Inactive)
ROOT
ATOM      1  C   UNL d   1     -42.059-123.530 -47.498  0.00  0.00     0.311 A 
ATOM      2  N   UNL d   1     -41.362-123.430 -47.938  0.00  0.00    -0.202 NA
ATOM      3  S   UNL d   1     -42.701-123.465 -48.007  0.00  0.00    -0.024 SA
ATOM      4  C   UNL d   1     -41.584-123.302 -48.730  0.00  0.00     0.091 A 
ATOM      5  C   UNL d   1     -42.408-123.324 -48.773  0.00  0.00     0.052 A 
ATOM      6  O   UNL d   1     -42.097-123.671 -46.679  0.00  0.00    -0.258 OA
ATOM      7  C   UNL d   1     -41.138-123.170 -49.412  0.00  0.00     0.020 A 
ATOM      8  C   UNL d   1     -42.787-123.214 -49.497  0.00  0.00     0.008 A 
ATOM      9  C   UNL d   1     -42.342-123.082 -50.179  0.00  0.00     0.001 A 
ATOM     10  C   UNL d   1     -41.517-123.060 -50.137  0.00  0.00     0.002 A 
ENDROOT
TORSDOF 0
ENDMDL
