MODEL 1
REMARK VINA RESULT:      22.8      0.000      0.000
REMARK  2 active torsions:
REMARK  status: ('A' for Active; 'I' for Inactive)
REMARK    1  A    between atoms: C_7  and  C_1 
REMARK    2  A    between atoms: C_5  and  C_3 
ROOT
ATOM      1  C   UNL d   1      59.994  49.639  50.262  0.00  0.00     0.067 A 
ATOM      2  N   UNL d   1      58.725  49.692  51.316  0.00  0.00    -0.244 NA
ATOM      3  C   UNL d   1      58.580  49.671  50.506  0.00  0.00     0.104 A 
ATOM      4  C   UNL d   1      59.211  49.645  49.977  0.00  0.00     0.027 A 
ATOM      5  C   UNL d   1      60.138  49.659  51.072  0.00  0.00     0.024 A 
ATOM      6  C   UNL d   1      59.508  49.686  51.601  0.00  0.00     0.082 A 
ATOM      7  C   UNL d   1      60.914  49.654  51.354  0.00  0.00     0.002 A 
ATOM      8  C   UNL d   1      59.650  49.707  52.419  0.00  0.00     0.019 A 
ATOM      9  C   UNL d   1      61.059  49.674  52.164  0.00  0.00     0.000 A 
ATOM     10  C   UNL d   1      60.425  49.701  52.700  0.00  0.00     0.002 A 
ENDROOT
BRANCH   3  11
ATOM     11  C   UNL d   1      57.801  49.677  50.223  0.00  0.00     0.118 A 
ATOM     12  O   UNL d   1      57.098  49.696  50.655  0.00  0.00    -0.304 OA
ATOM     13  C   UNL d   1      56.474  49.695  50.114  0.00  0.00     0.123 A 
ATOM     14  C   UNL d   1      56.787  49.675  49.363  0.00  0.00     0.029 A 
ATOM     15  C   UNL d   1      57.609  49.664  49.432  0.00  0.00     0.028 A 
ENDBRANCH   3  11
BRANCH   1  16
ATOM     16  C   UNL d   1      60.633  49.612  49.723  0.00  0.00     0.211 C 
ATOM     17  O   UNL d   1      61.400  49.506  50.010  0.00  0.00    -0.644 OA
ATOM     18  O   UNL d   1      60.495  49.689  48.912  0.00  0.00    -0.644 OA
ENDBRANCH   1  16
TORSDOF 2
ENDMDL
