MODEL 1
REMARK VINA RESULT:      -6.0      0.000      0.000
REMARK  2 active torsions:
REMARK  status: ('A' for Active; 'I' for Inactive)
REMARK    1  A    between atoms: C_7  and  C_2 
REMARK    2  A    between atoms: C_6  and  N_3 
ROOT
ATOM      1  C   UNL d   1     -41.437-122.519 -52.667  0.00  0.00     0.085 A 
ATOM      2  C   UNL d   1     -41.548-123.181 -52.208  0.00  0.00     0.019 A 
ATOM      3  C   UNL d   1     -41.452-123.142 -51.390  0.00  0.00     0.002 A 
ATOM      4  C   UNL d   1     -41.221-121.789 -52.293  0.00  0.00     0.019 A 
ATOM      5  C   UNL d   1     -41.241-122.431 -51.026  0.00  0.00     0.000 A 
ATOM      6  C   UNL d   1     -41.123-121.744 -51.473  0.00  0.00     0.002 A 
ATOM      7  C   UNL d   1     -41.568-123.816 -50.955  0.00  0.00     0.000 A 
ATOM      8  C   UNL d   1     -41.142-122.379 -50.220  0.00  0.00     0.000 A 
ATOM      9  C   UNL d   1     -41.477-123.796 -50.148  0.00  0.00     0.000 A 
ATOM     10  C   UNL d   1     -41.261-123.066 -49.774  0.00  0.00     0.000 A 
ENDROOT
BRANCH   1  11
ATOM     11  N   UNL d   1     -41.528-122.533 -53.485  0.00  0.00    -0.210 N 
ATOM     12  C   UNL d   1     -41.983-122.069 -53.979  0.00  0.00     0.191 A 
ATOM     13  C   UNL d   1     -41.864-122.321 -54.730  0.00  0.00     0.118 A 
ATOM     14  N   UNL d   1     -42.472-121.457 -53.737  0.00  0.00    -0.127 N 
ATOM     15  C   UNL d   1     -41.330-122.949 -54.720  0.00  0.00     0.129 A 
ATOM     16  N   UNL d   1     -41.129-123.073 -53.960  0.00  0.00    -0.162 NA
BRANCH  13  17
ATOM     17  C   UNL d   1     -42.224-121.996 -55.400  0.00  0.00     0.301 C 
ATOM     18  O   UNL d   1     -41.872-121.367 -55.743  0.00  0.00    -0.263 OA
ATOM     19  N   UNL d   1     -42.901-122.306 -55.688  0.00  0.00    -0.102 N 
ENDBRANCH  13  17
ENDBRANCH   1  11
TORSDOF 2
ENDMDL
MODEL 2
REMARK VINA RESULT:      -5.7      2.066      4.108
REMARK  2 active torsions:
REMARK  status: ('A' for Active; 'I' for Inactive)
REMARK    1  A    between atoms: C_7  and  C_2 
REMARK    2  A    between atoms: C_6  and  N_3 
ROOT
ATOM      1  C   UNL d   1     -41.494-122.575 -52.623  0.00  0.00     0.085 A 
ATOM      2  C   UNL d   1     -41.862-122.036 -53.109  0.00  0.00     0.019 A 
ATOM      3  C   UNL d   1     -41.873-122.151 -53.926  0.00  0.00     0.002 A 
ATOM      4  C   UNL d   1     -41.123-123.255 -52.967  0.00  0.00     0.019 A 
ATOM      5  C   UNL d   1     -41.511-122.814 -54.261  0.00  0.00     0.000 A 
ATOM      6  C   UNL d   1     -41.130-123.375 -53.785  0.00  0.00     0.002 A 
ATOM      7  C   UNL d   1     -42.246-121.600 -54.388  0.00  0.00     0.000 A 
ATOM      8  C   UNL d   1     -41.514-122.939 -55.065  0.00  0.00     0.000 A 
ATOM      9  C   UNL d   1     -42.266-121.697 -55.195  0.00  0.00     0.000 A 
ATOM     10  C   UNL d   1     -41.894-122.378 -55.539  0.00  0.00     0.000 A 
ENDROOT
BRANCH   1  11
ATOM     11  N   UNL d   1     -41.471-122.481 -51.805  0.00  0.00    -0.210 N 
ATOM     12  C   UNL d   1     -41.694-122.987 -51.204  0.00  0.00     0.191 A 
ATOM     13  C   UNL d   1     -41.553-122.617 -50.509  0.00  0.00     0.118 A 
ATOM     14  N   UNL d   1     -42.007-123.737 -51.309  0.00  0.00    -0.127 N 
ATOM     15  C   UNL d   1     -41.236-121.871 -50.661  0.00  0.00     0.129 A 
ATOM     16  N   UNL d   1     -41.189-121.794 -51.451  0.00  0.00    -0.162 NA
BRANCH  13  17
ATOM     17  C   UNL d   1     -41.703-122.942 -49.762  0.00  0.00     0.301 C 
ATOM     18  O   UNL d   1     -41.123-123.371 -49.421  0.00  0.00    -0.263 OA
ATOM     19  N   UNL d   1     -42.405-122.824 -49.402  0.00  0.00    -0.102 N 
ENDBRANCH  13  17
ENDBRANCH   1  11
TORSDOF 2
ENDMDL
MODEL 3
REMARK VINA RESULT:      -5.6      2.838      4.364
REMARK  2 active torsions:
REMARK  status: ('A' for Active; 'I' for Inactive)
REMARK    1  A    between atoms: C_7  and  C_2 
REMARK    2  A    between atoms: C_6  and  N_3 
ROOT
ATOM      1  C   UNL d   1     -41.571-122.871 -50.931  0.00  0.00     0.085 A 
ATOM      2  C   UNL d   1     -41.478-123.441 -51.503  0.00  0.00     0.019 A 
ATOM      3  C   UNL d   1     -41.359-123.226 -52.291  0.00  0.00     0.002 A 
ATOM      4  C   UNL d   1     -41.544-122.053 -51.154  0.00  0.00     0.019 A 
ATOM      5  C   UNL d   1     -41.333-122.430 -52.508  0.00  0.00     0.000 A 
ATOM      6  C   UNL d   1     -41.425-121.832 -51.942  0.00  0.00     0.002 A 
ATOM      7  C   UNL d   1     -41.270-123.813 -52.842  0.00  0.00     0.000 A 
ATOM      8  C   UNL d   1     -41.216-122.204 -53.281  0.00  0.00     0.000 A 
ATOM      9  C   UNL d   1     -41.152-123.619 -53.622  0.00  0.00     0.000 A 
ATOM     10  C   UNL d   1     -41.125-122.802 -53.846  0.00  0.00     0.000 A 
ENDROOT
BRANCH   1  11
ATOM     11  N   UNL d   1     -41.690-123.061 -50.139  0.00  0.00    -0.210 N 
ATOM     12  C   UNL d   1     -42.329-122.925 -49.648  0.00  0.00     0.191 A 
ATOM     13  C   UNL d   1     -42.153-123.226 -48.928  0.00  0.00     0.118 A 
ATOM     14  N   UNL d   1     -43.021-122.544 -49.867  0.00  0.00    -0.127 N 
ATOM     15  C   UNL d   1     -41.398-123.559 -48.954  0.00  0.00     0.129 A 
ATOM     16  N   UNL d   1     -41.123-123.456 -49.693  0.00  0.00    -0.162 NA
BRANCH  13  17
ATOM     17  C   UNL d   1     -42.654-123.203 -48.270  0.00  0.00     0.301 C 
ATOM     18  O   UNL d   1     -42.629-122.553 -47.808  0.00  0.00    -0.263 OA
ATOM     19  N   UNL d   1     -43.143-123.813 -48.110  0.00  0.00    -0.102 N 
ENDBRANCH  13  17
ENDBRANCH   1  11
TORSDOF 2
ENDMDL
MODEL 4
REMARK VINA RESULT:      -5.3      2.134      3.318
REMARK  2 active torsions:
REMARK  status: ('A' for Active; 'I' for Inactive)
REMARK    1  A    between atoms: C_7  and  C_2 
REMARK    2  A    between atoms: C_6  and  N_3 
ROOT
ATOM      1  C   UNL d   1     -41.933-123.297 -49.638  0.00  0.00     0.085 A 
ATOM      2  C   UNL d   1     -41.424-123.189 -49.014  0.00  0.00     0.019 A 
ATOM      3  C   UNL d   1     -41.682-123.307 -48.239  0.00  0.00     0.002 A 
ATOM      4  C   UNL d   1     -42.733-123.533 -49.482  0.00  0.00     0.019 A 
ATOM      5  C   UNL d   1     -42.461-123.537 -48.088  0.00  0.00     0.000 A 
ATOM      6  C   UNL d   1     -42.998-123.653 -48.708  0.00  0.00     0.002 A 
ATOM      7  C   UNL d   1     -41.155-123.193 -47.635  0.00  0.00     0.000 A 
ATOM      8  C   UNL d   1     -42.729-123.656 -47.329  0.00  0.00     0.000 A 
ATOM      9  C   UNL d   1     -41.392-123.305 -46.865  0.00  0.00     0.000 A 
ATOM     10  C   UNL d   1     -42.192-123.540 -46.710  0.00  0.00     0.000 A 
ENDROOT
BRANCH   1  11
ATOM     11  N   UNL d   1     -41.698-123.186 -50.419  0.00  0.00    -0.210 N 
ATOM     12  C   UNL d   1     -41.821-122.559 -50.928  0.00  0.00     0.191 A 
ATOM     13  C   UNL d   1     -41.472-122.739 -51.626  0.00  0.00     0.118 A 
ATOM     14  N   UNL d   1     -42.231-121.873 -50.745  0.00  0.00    -0.127 N 
ATOM     15  C   UNL d   1     -41.123-123.484 -51.567  0.00  0.00     0.129 A 
ATOM     16  N   UNL d   1     -41.264-123.750 -50.831  0.00  0.00    -0.162 NA
BRANCH  13  17
ATOM     17  C   UNL d   1     -41.468-122.248 -52.292  0.00  0.00     0.301 C 
ATOM     18  O   UNL d   1     -41.818-122.522 -52.956  0.00  0.00    -0.263 OA
ATOM     19  N   UNL d   1     -41.125-121.529 -52.265  0.00  0.00    -0.102 N 
ENDBRANCH  13  17
ENDBRANCH   1  11
TORSDOF 2
ENDMDL
