MODEL 1
REMARK VINA RESULT:      -6.5      0.000      0.000
REMARK  1 active torsions:
REMARK  status: ('A' for Active; 'I' for Inactive)
REMARK    1  A    between atoms: C_2  and  C_1 
ROOT
ATOM      1  C   UNL d   1     -41.596-122.709 -51.491  0.00  0.00     0.087 A 
ATOM      2  C   UNL d   1     -41.472-121.937 -51.754  0.00  0.00     0.302 A 
ATOM      3  C   UNL d   1     -41.602-123.342 -52.026  0.00  0.00     0.009 A 
ATOM      4  O   UNL d   1     -41.353-121.795 -52.553  0.00  0.00    -0.273 OA
ATOM      5  C   UNL d   1     -41.356-122.412 -53.095  0.00  0.00     0.106 A 
ATOM      6  C   UNL d   1     -41.481-123.184 -52.832  0.00  0.00     0.023 A 
ATOM      7  C   UNL d   1     -41.238-122.271 -53.894  0.00  0.00     0.067 A 
ATOM      8  O   UNL d   1     -41.469-121.320 -51.212  0.00  0.00    -0.259 OA
ATOM      9  C   UNL d   1     -41.487-123.817 -53.367  0.00  0.00     0.005 A 
ATOM     10  C   UNL d   1     -41.241-122.887 -54.435  0.00  0.00     0.198 A 
ATOM     11  C   UNL d   1     -41.365-123.659 -54.172  0.00  0.00     0.042 A 
ATOM     12  O   UNL d   1     -41.123-122.746 -55.234  0.00  0.00    -0.286 OA
ENDROOT
BRANCH   1  13
ATOM     13  C   UNL d   1     -41.716-122.872 -50.700  0.00  0.00     0.116 A 
ATOM     14  N   UNL d   1     -42.372-122.754 -50.234  0.00  0.00    -0.238 NA
ATOM     15  C   UNL d   1     -42.212-123.011 -49.476  0.00  0.00     0.088 A 
ATOM     16  C   UNL d   1     -42.684-123.017 -48.793  0.00  0.00     0.020 A 
ATOM     17  C   UNL d   1     -41.456-123.290 -49.469  0.00  0.00     0.049 A 
ATOM     18  C   UNL d   1     -42.349-123.323 -48.095  0.00  0.00     0.002 A 
ATOM     19  C   UNL d   1     -41.576-123.607 -48.087  0.00  0.00     0.001 A 
ATOM     20  C   UNL d   1     -41.126-123.591 -48.783  0.00  0.00     0.008 A 
ATOM     21  S   UNL d   1     -41.125-123.216 -50.216  0.00  0.00    -0.066 SA
ENDBRANCH   1  13
TORSDOF 1
ENDMDL
MODEL 2
REMARK VINA RESULT:      -6.4      1.511      4.334
REMARK  1 active torsions:
REMARK  status: ('A' for Active; 'I' for Inactive)
REMARK    1  A    between atoms: C_2  and  C_1 
ROOT
ATOM      1  C   UNL d   1     -41.466-122.314 -51.981  0.00  0.00     0.087 A 
ATOM      2  C   UNL d   1     -41.238-121.640 -51.564  0.00  0.00     0.302 A 
ATOM      3  C   UNL d   1     -41.583-123.035 -51.589  0.00  0.00     0.009 A 
ATOM      4  O   UNL d   1     -41.125-121.685 -50.753  0.00  0.00    -0.273 OA
ATOM      5  C   UNL d   1     -41.237-122.392 -50.351  0.00  0.00     0.106 A 
ATOM      6  C   UNL d   1     -41.465-123.066 -50.768  0.00  0.00     0.023 A 
ATOM      7  C   UNL d   1     -41.124-122.437 -49.540  0.00  0.00     0.067 A 
ATOM      8  O   UNL d   1     -41.126-120.933 -51.966  0.00  0.00    -0.259 OA
ATOM      9  C   UNL d   1     -41.582-123.787 -50.376  0.00  0.00     0.005 A 
ATOM     10  C   UNL d   1     -41.235-123.144 -49.138  0.00  0.00     0.198 A 
ATOM     11  C   UNL d   1     -41.464-123.817 -49.555  0.00  0.00     0.042 A 
ATOM     12  O   UNL d   1     -41.123-123.188 -48.327  0.00  0.00    -0.286 OA
ENDROOT
BRANCH   1  13
ATOM     13  C   UNL d   1     -41.584-122.292 -52.790  0.00  0.00     0.116 A 
ATOM     14  N   UNL d   1     -42.105-121.850 -53.231  0.00  0.00    -0.238 NA
ATOM     15  C   UNL d   1     -42.006-122.029 -54.020  0.00  0.00     0.088 A 
ATOM     16  C   UNL d   1     -42.392-121.740 -54.696  0.00  0.00     0.020 A 
ATOM     17  C   UNL d   1     -41.422-122.584 -54.072  0.00  0.00     0.049 A 
ATOM     18  C   UNL d   1     -42.155-122.044 -55.436  0.00  0.00     0.002 A 
ATOM     19  C   UNL d   1     -41.559-122.609 -55.488  0.00  0.00     0.001 A 
ATOM     20  C   UNL d   1     -41.190-122.881 -54.798  0.00  0.00     0.008 A 
ATOM     21  S   UNL d   1     -41.143-122.764 -53.322  0.00  0.00    -0.066 SA
ENDBRANCH   1  13
TORSDOF 1
ENDMDL
MODEL 3
REMARK VINA RESULT:      -5.1      1.423      4.435
REMARK  1 active torsions:
REMARK  status: ('A' for Active; 'I' for Inactive)
REMARK    1  A    between atoms: C_2  and  C_1 
ROOT
ATOM      1  C   UNL d   1     -41.941-122.934 -50.632  0.00  0.00     0.087 A 
ATOM      2  C   UNL d   1     -42.549-122.448 -50.360  0.00  0.00     0.302 A 
ATOM      3  C   UNL d   1     -41.493-123.389 -50.102  0.00  0.00     0.009 A 
ATOM      4  O   UNL d   1     -42.713-122.416 -49.557  0.00  0.00    -0.273 OA
ATOM      5  C   UNL d   1     -42.279-122.860 -49.020  0.00  0.00     0.106 A 
ATOM      6  C   UNL d   1     -41.670-123.346 -49.293  0.00  0.00     0.023 A 
ATOM      7  C   UNL d   1     -42.443-122.828 -48.218  0.00  0.00     0.067 A 
ATOM      8  O   UNL d   1     -42.983-122.004 -50.896  0.00  0.00    -0.259 OA
ATOM      9  C   UNL d   1     -41.223-123.801 -48.763  0.00  0.00     0.005 A 
ATOM     10  C   UNL d   1     -42.009-123.273 -47.681  0.00  0.00     0.198 A 
ATOM     11  C   UNL d   1     -41.400-123.758 -47.954  0.00  0.00     0.042 A 
ATOM     12  O   UNL d   1     -42.172-123.240 -46.878  0.00  0.00    -0.286 OA
ENDROOT
BRANCH   1  13
ATOM     13  C   UNL d   1     -41.761-122.981 -51.428  0.00  0.00     0.116 A 
ATOM     14  N   UNL d   1     -41.700-123.631 -51.913  0.00  0.00    -0.238 NA
ATOM     15  C   UNL d   1     -41.507-123.384 -52.666  0.00  0.00     0.088 A 
ATOM     16  C   UNL d   1     -41.380-123.816 -53.364  0.00  0.00     0.020 A 
ATOM     17  C   UNL d   1     -41.448-122.580 -52.651  0.00  0.00     0.049 A 
ATOM     18  C   UNL d   1     -41.188-123.389 -54.053  0.00  0.00     0.002 A 
ATOM     19  C   UNL d   1     -41.127-122.568 -54.037  0.00  0.00     0.001 A 
ATOM     20  C   UNL d   1     -41.259-122.160 -53.328  0.00  0.00     0.008 A 
ATOM     21  S   UNL d   1     -41.600-122.304 -51.894  0.00  0.00    -0.066 SA
ENDBRANCH   1  13
TORSDOF 1
ENDMDL
MODEL 4
REMARK VINA RESULT:      -3.6      1.132      1.613
REMARK  1 active torsions:
REMARK  status: ('A' for Active; 'I' for Inactive)
REMARK    1  A    between atoms: C_2  and  C_1 
ROOT
ATOM      1  C   UNL d   1     -41.789-122.561 -52.457  0.00  0.00     0.087 A 
ATOM      2  C   UNL d   1     -41.420-123.177 -52.862  0.00  0.00     0.302 A 
ATOM      3  C   UNL d   1     -42.094-121.908 -52.867  0.00  0.00     0.009 A 
ATOM      4  O   UNL d   1     -41.353-123.143 -53.678  0.00  0.00    -0.273 OA
ATOM      5  C   UNL d   1     -41.649-122.503 -54.098  0.00  0.00     0.106 A 
ATOM      6  C   UNL d   1     -42.019-121.887 -53.694  0.00  0.00     0.023 A 
ATOM      7  C   UNL d   1     -41.582-122.469 -54.915  0.00  0.00     0.067 A 
ATOM      8  O   UNL d   1     -41.123-123.817 -52.442  0.00  0.00    -0.259 OA
ATOM      9  C   UNL d   1     -42.323-121.234 -54.104  0.00  0.00     0.005 A 
ATOM     10  C   UNL d   1     -41.879-121.829 -55.335  0.00  0.00     0.198 A 
ATOM     11  C   UNL d   1     -42.249-121.213 -54.930  0.00  0.00     0.042 A 
ATOM     12  O   UNL d   1     -41.812-121.795 -56.152  0.00  0.00    -0.286 OA
ENDROOT
BRANCH   1  13
ATOM     13  C   UNL d   1     -41.867-122.575 -51.644  0.00  0.00     0.116 A 
ATOM     14  N   UNL d   1     -42.517-122.730 -51.182  0.00  0.00    -0.238 NA
ATOM     15  C   UNL d   1     -42.307-122.675 -50.396  0.00  0.00     0.088 A 
ATOM     16  C   UNL d   1     -42.755-122.780 -49.704  0.00  0.00     0.020 A 
ATOM     17  C   UNL d   1     -41.524-122.485 -50.367  0.00  0.00     0.049 A 
ATOM     18  C   UNL d   1     -42.366-122.681 -48.974  0.00  0.00     0.002 A 
ATOM     19  C   UNL d   1     -41.566-122.487 -48.945  0.00  0.00     0.001 A 
ATOM     20  C   UNL d   1     -41.142-122.388 -49.649  0.00  0.00     0.008 A 
ATOM     21  S   UNL d   1     -41.226-122.417 -51.128  0.00  0.00    -0.066 SA
ENDBRANCH   1  13
TORSDOF 1
ENDMDL
