MODEL 1
REMARK VINA RESULT:      -2.9      0.000      0.000
REMARK  3 active torsions:
REMARK  status: ('A' for Active; 'I' for Inactive)
REMARK    1  A    between atoms: N_7  and  S_1 
REMARK    2  A    between atoms: C_3  and  C_8 
REMARK    3  A    between atoms: C_13  and  N_7 
ROOT
ATOM      1  C   UNL d   1      31.590  17.320 -23.960  0.00  0.00     0.018 A 
ATOM      2  C   UNL d   1      30.927  17.463 -24.418  0.00  0.00     0.003 A 
ATOM      3  C   UNL d   1      31.676  16.597 -23.570  0.00  0.00     0.003 A 
ATOM      4  C   UNL d   1      30.419  16.172 -24.114  0.00  0.00     0.093 A 
ATOM      5  C   UNL d   1      30.340  16.891 -24.497  0.00  0.00     0.020 A 
ATOM      6  C   UNL d   1      31.093  16.024 -23.646  0.00  0.00     0.020 A 
ENDROOT
BRANCH   1   7
ATOM      7  C   UNL d   1      32.178  17.893 -23.881  0.00  0.00     0.088 A 
ATOM      8  N   UNL d   1      32.290  18.383 -23.228  0.00  0.00    -0.239 NA
ATOM      9  C   UNL d   1      32.934  18.866 -23.380  0.00  0.00     0.111 A 
ATOM     10  C   UNL d   1      33.240  19.446 -22.866  0.00  0.00     0.028 C 
ATOM     11  S   UNL d   1      33.226  18.679 -24.129  0.00  0.00    -0.066 SA
ATOM     12  C   UNL d   1      32.756  18.073 -24.441  0.00  0.00     0.056 A 
ENDBRANCH   1   7
BRANCH   4  13
ATOM     13  N   UNL d   1      29.834  15.593 -24.188  0.00  0.00    -0.162 NA
BRANCH  13  14
ATOM     14  S   UNL d   1      29.113  15.733 -23.810  0.00  0.00     0.266 S 
ATOM     15  O   UNL d   1      29.471  15.543 -23.037  0.00  0.00    -0.203 OA
ATOM     16  O   UNL d   1      28.757  15.945 -24.765  0.00  0.00    -0.203 OA
ATOM     17  C   UNL d   1      28.078  15.959 -23.472  0.00  0.00     0.165 C 
ENDBRANCH  13  14
ENDBRANCH   4  13
TORSDOF 3
ENDMDL
MODEL 2
REMARK VINA RESULT:      -2.8      3.825      5.646
REMARK  3 active torsions:
REMARK  status: ('A' for Active; 'I' for Inactive)
REMARK    1  A    between atoms: N_7  and  S_1 
REMARK    2  A    between atoms: C_3  and  C_8 
REMARK    3  A    between atoms: C_13  and  N_7 
ROOT
ATOM      1  C   UNL d   1      33.002  20.239 -22.229  0.00  0.00     0.018 A 
ATOM      2  C   UNL d   1      32.741  20.211 -21.454  0.00  0.00     0.003 A 
ATOM      3  C   UNL d   1      33.241  20.958 -22.561  0.00  0.00     0.003 A 
ATOM      4  C   UNL d   1      32.949  21.609 -21.317  0.00  0.00     0.093 A 
ATOM      5  C   UNL d   1      32.714  20.895 -20.996  0.00  0.00     0.020 A 
ATOM      6  C   UNL d   1      33.215  21.641 -22.107  0.00  0.00     0.020 A 
ENDROOT
BRANCH   1   7
ATOM      7  C   UNL d   1      33.030  19.556 -22.690  0.00  0.00     0.088 A 
ATOM      8  N   UNL d   1      32.865  19.509 -23.495  0.00  0.00    -0.239 NA
ATOM      9  C   UNL d   1      32.959  18.730 -23.730  0.00  0.00     0.111 A 
ATOM     10  C   UNL d   1      32.848  18.436 -24.501  0.00  0.00     0.028 C 
ATOM     11  S   UNL d   1      33.183  18.287 -23.070  0.00  0.00    -0.066 SA
ATOM     12  C   UNL d   1      33.227  18.801 -22.422  0.00  0.00     0.056 A 
ENDBRANCH   1   7
BRANCH   4  13
ATOM     13  N   UNL d   1      32.924  22.300 -20.864  0.00  0.00    -0.162 NA
BRANCH  13  14
ATOM     14  S   UNL d   1      32.329  22.846 -21.038  0.00  0.00     0.266 S 
ATOM     15  O   UNL d   1      31.732  22.322 -20.676  0.00  0.00    -0.203 OA
ATOM     16  O   UNL d   1      33.096  23.416 -21.451  0.00  0.00    -0.203 OA
ATOM     17  C   UNL d   1      31.664  23.683 -21.346  0.00  0.00     0.165 C 
ENDBRANCH  13  14
ENDBRANCH   4  13
TORSDOF 3
ENDMDL
MODEL 3
REMARK VINA RESULT:      -2.8      1.712      3.904
REMARK  3 active torsions:
REMARK  status: ('A' for Active; 'I' for Inactive)
REMARK    1  A    between atoms: N_7  and  S_1 
REMARK    2  A    between atoms: C_3  and  C_8 
REMARK    3  A    between atoms: C_13  and  N_7 
ROOT
ATOM      1  C   UNL d   1      30.692  16.592 -24.103  0.00  0.00     0.018 A 
ATOM      2  C   UNL d   1      30.801  17.335 -24.428  0.00  0.00     0.003 A 
ATOM      3  C   UNL d   1      31.308  16.224 -23.694  0.00  0.00     0.003 A 
ATOM      4  C   UNL d   1      32.138  17.365 -23.950  0.00  0.00     0.093 A 
ATOM      5  C   UNL d   1      31.523  17.724 -24.353  0.00  0.00     0.020 A 
ATOM      6  C   UNL d   1      32.030  16.609 -23.617  0.00  0.00     0.020 A 
ENDROOT
BRANCH   1   7
ATOM      7  C   UNL d   1      29.969  16.202 -24.177  0.00  0.00     0.088 A 
ATOM      8  N   UNL d   1      29.354  16.216 -23.630  0.00  0.00    -0.239 NA
ATOM      9  C   UNL d   1      28.743  15.756 -23.921  0.00  0.00     0.111 A 
ATOM     10  C   UNL d   1      28.013  15.619 -23.543  0.00  0.00     0.028 C 
ATOM     11  S   UNL d   1      28.974  15.453 -24.653  0.00  0.00    -0.066 SA
ATOM     12  C   UNL d   1      29.738  15.730 -24.813  0.00  0.00     0.056 A 
ENDBRANCH   1   7
BRANCH   4  13
ATOM     13  N   UNL d   1      32.866  17.749 -23.870  0.00  0.00    -0.162 NA
BRANCH  13  14
ATOM     14  S   UNL d   1      32.914  18.358 -23.314  0.00  0.00     0.266 S 
ATOM     15  O   UNL d   1      32.956  17.775 -22.667  0.00  0.00    -0.203 OA
ATOM     16  O   UNL d   1      32.859  18.993 -24.138  0.00  0.00    -0.203 OA
ATOM     17  C   UNL d   1      32.968  19.292 -22.713  0.00  0.00     0.165 C 
ENDBRANCH  13  14
ENDBRANCH   4  13
TORSDOF 3
ENDMDL
MODEL 4
REMARK VINA RESULT:      -2.4      2.640      4.233
REMARK  3 active torsions:
REMARK  status: ('A' for Active; 'I' for Inactive)
REMARK    1  A    between atoms: N_7  and  S_1 
REMARK    2  A    between atoms: C_3  and  C_8 
REMARK    3  A    between atoms: C_13  and  N_7 
ROOT
ATOM      1  C   UNL d   1      32.975  20.377 -22.060  0.00  0.00     0.018 A 
ATOM      2  C   UNL d   1      32.876  19.605 -21.806  0.00  0.00     0.003 A 
ATOM      3  C   UNL d   1      33.159  20.533 -22.850  0.00  0.00     0.003 A 
ATOM      4  C   UNL d   1      33.139  19.124 -23.116  0.00  0.00     0.093 A 
ATOM      5  C   UNL d   1      32.958  18.977 -22.332  0.00  0.00     0.020 A 
ATOM      6  C   UNL d   1      33.241  19.909 -23.378  0.00  0.00     0.020 A 
ENDROOT
BRANCH   1   7
ATOM      7  C   UNL d   1      32.894  21.007 -21.534  0.00  0.00     0.088 A 
ATOM      8  N   UNL d   1      32.456  21.692 -21.665  0.00  0.00    -0.239 NA
ATOM      9  C   UNL d   1      32.525  22.169 -21.004  0.00  0.00     0.111 A 
ATOM     10  C   UNL d   1      32.170  22.916 -20.902  0.00  0.00     0.028 C 
ATOM     11  S   UNL d   1      33.007  21.783 -20.456  0.00  0.00    -0.066 SA
ATOM     12  C   UNL d   1      33.236  21.059 -20.786  0.00  0.00     0.056 A 
ENDBRANCH   1   7
BRANCH   4  13
ATOM     13  N   UNL d   1      33.223  18.499 -23.651  0.00  0.00    -0.162 NA
BRANCH  13  14
ATOM     14  S   UNL d   1      32.601  17.957 -23.700  0.00  0.00     0.266 S 
ATOM     15  O   UNL d   1      32.153  18.505 -24.209  0.00  0.00    -0.203 OA
ATOM     16  O   UNL d   1      33.195  17.358 -23.089  0.00  0.00    -0.203 OA
ATOM     17  C   UNL d   1      31.870  17.120 -23.656  0.00  0.00     0.165 C 
ENDBRANCH  13  14
ENDBRANCH   4  13
TORSDOF 3
ENDMDL
MODEL 5
REMARK VINA RESULT:      -2.3      2.203      3.502
REMARK  3 active torsions:
REMARK  status: ('A' for Active; 'I' for Inactive)
REMARK    1  A    between atoms: N_7  and  S_1 
REMARK    2  A    between atoms: C_3  and  C_8 
REMARK    3  A    between atoms: C_13  and  N_7 
ROOT
ATOM      1  C   UNL d   1      33.137  19.599 -22.465  0.00  0.00     0.018 A 
ATOM      2  C   UNL d   1      33.026  19.635 -23.275  0.00  0.00     0.003 A 
ATOM      3  C   UNL d   1      33.239  18.869 -22.092  0.00  0.00     0.003 A 
ATOM      4  C   UNL d   1      33.114  18.220 -23.365  0.00  0.00     0.093 A 
ATOM      5  C   UNL d   1      33.014  18.947 -23.727  0.00  0.00     0.020 A 
ATOM      6  C   UNL d   1      33.227  18.181 -22.540  0.00  0.00     0.020 A 
ENDROOT
BRANCH   1   7
ATOM      7  C   UNL d   1      33.149  20.288 -22.011  0.00  0.00     0.088 A 
ATOM      8  N   UNL d   1      33.078  21.057 -22.298  0.00  0.00    -0.239 NA
ATOM      9  C   UNL d   1      33.119  21.571 -21.662  0.00  0.00     0.111 A 
ATOM     10  C   UNL d   1      33.070  22.402 -21.703  0.00  0.00     0.028 C 
ATOM     11  S   UNL d   1      33.216  21.124 -20.975  0.00  0.00    -0.066 SA
ATOM     12  C   UNL d   1      33.235  20.325 -21.192  0.00  0.00     0.056 A 
ENDBRANCH   1   7
BRANCH   4  13
ATOM     13  N   UNL d   1      33.103  17.525 -23.811  0.00  0.00    -0.162 NA
BRANCH  13  14
ATOM     14  S   UNL d   1      32.432  17.047 -23.752  0.00  0.00     0.266 S 
ATOM     15  O   UNL d   1      31.964  17.636 -24.195  0.00  0.00    -0.203 OA
ATOM     16  O   UNL d   1      33.054  16.393 -23.231  0.00  0.00    -0.203 OA
ATOM     17  C   UNL d   1      31.639  16.287 -23.578  0.00  0.00     0.165 C 
ENDBRANCH  13  14
ENDBRANCH   4  13
TORSDOF 3
ENDMDL
MODEL 6
REMARK VINA RESULT:      -1.9      3.001      4.795
REMARK  3 active torsions:
REMARK  status: ('A' for Active; 'I' for Inactive)
REMARK    1  A    between atoms: N_7  and  S_1 
REMARK    2  A    between atoms: C_3  and  C_8 
REMARK    3  A    between atoms: C_13  and  N_7 
ROOT
ATOM      1  C   UNL d   1      32.768  19.156 -22.909  0.00  0.00     0.018 A 
ATOM      2  C   UNL d   1      32.690  19.939 -23.131  0.00  0.00     0.003 A 
ATOM      3  C   UNL d   1      33.005  18.964 -22.141  0.00  0.00     0.003 A 
ATOM      4  C   UNL d   1      33.082  20.362 -21.833  0.00  0.00     0.093 A 
ATOM      5  C   UNL d   1      32.847  20.544 -22.595  0.00  0.00     0.020 A 
ATOM      6  C   UNL d   1      33.162  19.564 -21.604  0.00  0.00     0.020 A 
ENDROOT
BRANCH   1   7
ATOM      7  C   UNL d   1      32.612  18.549 -23.445  0.00  0.00     0.088 A 
ATOM      8  N   UNL d   1      32.223  17.843 -23.275  0.00  0.00    -0.239 NA
ATOM      9  C   UNL d   1      32.186  17.400 -23.963  0.00  0.00     0.111 A 
ATOM     10  C   UNL d   1      31.839  16.646 -24.040  0.00  0.00     0.028 C 
ATOM     11  S   UNL d   1      32.553  17.828 -24.565  0.00  0.00    -0.066 SA
ATOM     12  C   UNL d   1      32.818  18.544 -24.243  0.00  0.00     0.056 A 
ENDBRANCH   1   7
BRANCH   4  13
ATOM     13  N   UNL d   1      33.241  20.964 -21.289  0.00  0.00    -0.162 NA
BRANCH  13  14
ATOM     14  S   UNL d   1      32.646  21.523 -21.158  0.00  0.00     0.266 S 
ATOM     15  O   UNL d   1      32.214  20.957 -20.653  0.00  0.00    -0.203 OA
ATOM     16  O   UNL d   1      33.218  22.141 -21.772  0.00  0.00    -0.203 OA
ATOM     17  C   UNL d   1      31.948  22.386 -21.093  0.00  0.00     0.165 C 
ENDBRANCH  13  14
ENDBRANCH   4  13
TORSDOF 3
ENDMDL
MODEL 7
REMARK VINA RESULT:      -1.3      4.323      6.085
REMARK  3 active torsions:
REMARK  status: ('A' for Active; 'I' for Inactive)
REMARK    1  A    between atoms: N_7  and  S_1 
REMARK    2  A    between atoms: C_3  and  C_8 
REMARK    3  A    between atoms: C_13  and  N_7 
ROOT
ATOM      1  C   UNL d   1      32.982  20.868 -22.031  0.00  0.00     0.018 A 
ATOM      2  C   UNL d   1      32.653  20.900 -21.283  0.00  0.00     0.003 A 
ATOM      3  C   UNL d   1      33.241  21.562 -22.400  0.00  0.00     0.003 A 
ATOM      4  C   UNL d   1      32.829  22.308 -21.247  0.00  0.00     0.093 A 
ATOM      5  C   UNL d   1      32.575  21.618 -20.889  0.00  0.00     0.020 A 
ATOM      6  C   UNL d   1      33.165  22.280 -22.010  0.00  0.00     0.020 A 
ENDROOT
BRANCH   1   7
ATOM      7  C   UNL d   1      33.061  20.149 -22.427  0.00  0.00     0.088 A 
ATOM      8  N   UNL d   1      33.090  19.405 -22.075  0.00  0.00    -0.239 NA
ATOM      9  C   UNL d   1      33.171  18.846 -22.668  0.00  0.00     0.111 A 
ATOM     10  C   UNL d   1      33.222  18.022 -22.557  0.00  0.00     0.028 C 
ATOM     11  S   UNL d   1      33.192  19.240 -23.393  0.00  0.00    -0.066 SA
ATOM     12  C   UNL d   1      33.124  20.051 -23.243  0.00  0.00     0.056 A 
ENDBRANCH   1   7
BRANCH   4  13
ATOM     13  N   UNL d   1      32.754  23.034 -20.858  0.00  0.00    -0.162 NA
BRANCH  13  14
ATOM     14  S   UNL d   1      32.533  23.016 -20.062  0.00  0.00     0.266 S 
ATOM     15  O   UNL d   1      33.241  22.544 -19.868  0.00  0.00    -0.203 OA
ATOM     16  O   UNL d   1      31.713  23.579 -20.370  0.00  0.00    -0.203 OA
ATOM     17  C   UNL d   1      32.089  23.092 -19.046  0.00  0.00     0.165 C 
ENDBRANCH  13  14
ENDBRANCH   4  13
TORSDOF 3
ENDMDL
