MODEL 1
REMARK VINA RESULT:      -4.2      0.000      0.000
REMARK  3 active torsions:
REMARK  status: ('A' for Active; 'I' for Inactive)
REMARK    1  A    between atoms: C_7  and  C_1 
REMARK    2  A    between atoms: C_13  and  C_7 
REMARK    3  A    between atoms: N_12  and  C_11 
ROOT
ATOM      1  C   UNL d   1      56.931  -0.682  32.831  0.00  0.00     0.010 C 
ENDROOT
BRANCH   1   2
ATOM      2  C   UNL d   1      56.278  -0.345  33.152  0.00  0.00     0.116 A 
ATOM      3  C   UNL d   1      55.530  -0.664  33.018  0.00  0.00     0.288 A 
ATOM      4  N   UNL d   1      54.854  -0.327  33.342  0.00  0.00    -0.152 NA
ATOM      5  O   UNL d   1      55.458  -1.339  32.545  0.00  0.00    -0.265 OA
ATOM      6  C   UNL d   1      54.924   0.336  33.807  0.00  0.00     0.374 A 
ATOM      7  N   UNL d   1      55.657   0.674  33.957  0.00  0.00    -0.152 NA
ATOM      8  O   UNL d   1      54.231   0.677  34.136  0.00  0.00    -0.242 OA
ATOM      9  C   UNL d   1      56.327   0.330  33.629  0.00  0.00     0.288 A 
ATOM     10  O   UNL d   1      57.075   0.668  33.777  0.00  0.00    -0.265 OA
ENDBRANCH   1   2
BRANCH   1  11
ATOM     11  C   UNL d   1      57.248  -0.384  32.127  0.00  0.00     0.000 A 
ATOM     12  C   UNL d   1      57.655   0.307  32.130  0.00  0.00     0.002 A 
ATOM     13  C   UNL d   1      57.972   0.617  31.454  0.00  0.00     0.018 A 
ATOM     14  C   UNL d   1      57.868   0.200  30.748  0.00  0.00     0.064 A 
ATOM     15  C   UNL d   1      57.448  -0.514  30.739  0.00  0.00     0.018 A 
ATOM     16  C   UNL d   1      57.139  -0.805  31.426  0.00  0.00     0.002 A 
BRANCH  14  17
ATOM     17  N   UNL d   1      58.190   0.511  30.052  0.00  0.00    -0.301 N 
ATOM     18  C   UNL d   1      57.701   0.682  29.422  0.00  0.00     0.100 C 
ATOM     19  C   UNL d   1      59.008   0.641  30.016  0.00  0.00     0.100 C 
ENDBRANCH  14  17
ENDBRANCH   1  11
TORSDOF 3
ENDMDL
MODEL 2
REMARK VINA RESULT:      -4.0      2.369      4.653
REMARK  3 active torsions:
REMARK  status: ('A' for Active; 'I' for Inactive)
REMARK    1  A    between atoms: C_7  and  C_1 
REMARK    2  A    between atoms: C_13  and  C_7 
REMARK    3  A    between atoms: N_12  and  C_11 
ROOT
ATOM      1  C   UNL d   1      58.233   0.243  29.864  0.00  0.00     0.010 C 
ENDROOT
BRANCH   1   2
ATOM      2  C   UNL d   1      58.890  -0.174  29.672  0.00  0.00     0.116 A 
ATOM      3  C   UNL d   1      59.626   0.035  29.980  0.00  0.00     0.288 A 
ATOM      4  N   UNL d   1      60.307  -0.385  29.789  0.00  0.00    -0.152 NA
ATOM      5  O   UNL d   1      59.681   0.682  30.492  0.00  0.00    -0.265 OA
ATOM      6  C   UNL d   1      60.253  -1.021  29.286  0.00  0.00     0.374 A 
ATOM      7  N   UNL d   1      59.534  -1.250  28.965  0.00  0.00    -0.152 NA
ATOM      8  O   UNL d   1      60.951  -1.447  29.094  0.00  0.00    -0.242 OA
ATOM      9  C   UNL d   1      58.859  -0.825  29.161  0.00  0.00     0.288 A 
ATOM     10  O   UNL d   1      58.124  -1.052  28.839  0.00  0.00    -0.265 OA
ENDBRANCH   1   2
BRANCH   1  11
ATOM     11  C   UNL d   1      57.825   0.075  30.564  0.00  0.00     0.000 A 
ATOM     12  C   UNL d   1      57.511  -0.654  30.682  0.00  0.00     0.002 A 
ATOM     13  C   UNL d   1      57.109  -0.840  31.358  0.00  0.00     0.018 A 
ATOM     14  C   UNL d   1      57.026  -0.255  31.935  0.00  0.00     0.064 A 
ATOM     15  C   UNL d   1      57.348   0.499  31.820  0.00  0.00     0.018 A 
ATOM     16  C   UNL d   1      57.746   0.664  31.136  0.00  0.00     0.002 A 
BRANCH  14  17
ATOM     17  N   UNL d   1      56.615  -0.439  32.631  0.00  0.00    -0.301 N 
ATOM     18  C   UNL d   1      56.639   0.078  33.261  0.00  0.00     0.100 C 
ATOM     19  C   UNL d   1      56.189  -1.149  32.664  0.00  0.00     0.100 C 
ENDBRANCH  14  17
ENDBRANCH   1  11
TORSDOF 3
ENDMDL
MODEL 3
REMARK VINA RESULT:      -4.0      2.368      4.501
REMARK  3 active torsions:
REMARK  status: ('A' for Active; 'I' for Inactive)
REMARK    1  A    between atoms: C_7  and  C_1 
REMARK    2  A    between atoms: C_13  and  C_7 
REMARK    3  A    between atoms: N_12  and  C_11 
ROOT
ATOM      1  C   UNL d   1      58.149   0.126  29.818  0.00  0.00     0.010 C 
ENDROOT
BRANCH   1   2
ATOM      2  C   UNL d   1      58.829  -0.265  29.653  0.00  0.00     0.116 A 
ATOM      3  C   UNL d   1      58.821  -0.947  29.188  0.00  0.00     0.288 A 
ATOM      4  N   UNL d   1      59.512  -1.356  29.013  0.00  0.00    -0.152 NA
ATOM      5  O   UNL d   1      58.100  -1.225  28.893  0.00  0.00    -0.265 OA
ATOM      6  C   UNL d   1      60.220  -1.083  29.304  0.00  0.00     0.374 A 
ATOM      7  N   UNL d   1      60.257  -0.407  29.768  0.00  0.00    -0.152 NA
ATOM      8  O   UNL d   1      60.923  -1.504  29.122  0.00  0.00    -0.242 OA
ATOM      9  C   UNL d   1      59.561  -0.005  29.939  0.00  0.00     0.288 A 
ATOM     10  O   UNL d   1      59.591   0.682  30.410  0.00  0.00    -0.265 OA
ENDBRANCH   1   2
BRANCH   1  11
ATOM     11  C   UNL d   1      57.768   0.008  30.543  0.00  0.00     0.000 A 
ATOM     12  C   UNL d   1      57.489  -0.719  30.738  0.00  0.00     0.002 A 
ATOM     13  C   UNL d   1      57.114  -0.856  31.440  0.00  0.00     0.018 A 
ATOM     14  C   UNL d   1      57.022  -0.224  31.963  0.00  0.00     0.064 A 
ATOM     15  C   UNL d   1      57.308   0.529  31.768  0.00  0.00     0.018 A 
ATOM     16  C   UNL d   1      57.680   0.645  31.060  0.00  0.00     0.002 A 
BRANCH  14  17
ATOM     17  N   UNL d   1      56.639  -0.357  32.685  0.00  0.00    -0.301 N 
ATOM     18  C   UNL d   1      56.762   0.154  33.308  0.00  0.00     0.100 C 
ATOM     19  C   UNL d   1      56.136  -1.013  32.752  0.00  0.00     0.100 C 
ENDBRANCH  14  17
ENDBRANCH   1  11
TORSDOF 3
ENDMDL
MODEL 4
REMARK VINA RESULT:      -3.3      1.252      2.173
REMARK  3 active torsions:
REMARK  status: ('A' for Active; 'I' for Inactive)
REMARK    1  A    between atoms: C_7  and  C_1 
REMARK    2  A    between atoms: C_13  and  C_7 
REMARK    3  A    between atoms: N_12  and  C_11 
ROOT
ATOM      1  C   UNL d   1      56.988   0.469  31.654  0.00  0.00     0.010 C 
ENDROOT
BRANCH   1   2
ATOM      2  C   UNL d   1      56.717  -0.148  32.090  0.00  0.00     0.116 A 
ATOM      3  C   UNL d   1      56.569  -0.061  32.897  0.00  0.00     0.288 A 
ATOM      4  N   UNL d   1      56.292  -0.686  33.353  0.00  0.00    -0.152 NA
ATOM      5  O   UNL d   1      56.703   0.672  33.255  0.00  0.00    -0.265 OA
ATOM      6  C   UNL d   1      56.160  -1.408  33.001  0.00  0.00     0.374 A 
ATOM      7  N   UNL d   1      56.299  -1.521  32.200  0.00  0.00    -0.152 NA
ATOM      8  O   UNL d   1      55.877  -2.043  33.471  0.00  0.00    -0.242 OA
ATOM      9  C   UNL d   1      56.576  -0.891  31.752  0.00  0.00     0.288 A 
ATOM     10  O   UNL d   1      56.720  -0.999  30.938  0.00  0.00    -0.265 OA
ENDBRANCH   1   2
BRANCH   1  11
ATOM     11  C   UNL d   1      57.782   0.499  31.428  0.00  0.00     0.000 A 
ATOM     12  C   UNL d   1      57.988   0.381  30.661  0.00  0.00     0.002 A 
ATOM     13  C   UNL d   1      58.758   0.406  30.418  0.00  0.00     0.018 A 
ATOM     14  C   UNL d   1      59.340   0.559  30.984  0.00  0.00     0.064 A 
ATOM     15  C   UNL d   1      59.135   0.682  31.777  0.00  0.00     0.018 A 
ATOM     16  C   UNL d   1      58.358   0.652  31.999  0.00  0.00     0.002 A 
BRANCH  14  17
ATOM     17  N   UNL d   1      60.132   0.586  30.742  0.00  0.00    -0.301 N 
ATOM     18  C   UNL d   1      60.721   0.666  31.300  0.00  0.00     0.100 C 
ATOM     19  C   UNL d   1      60.302   0.531  29.933  0.00  0.00     0.100 C 
ENDBRANCH  14  17
ENDBRANCH   1  11
TORSDOF 3
ENDMDL
MODEL 5
REMARK VINA RESULT:      -3.1      2.867      4.881
REMARK  3 active torsions:
REMARK  status: ('A' for Active; 'I' for Inactive)
REMARK    1  A    between atoms: C_7  and  C_1 
REMARK    2  A    between atoms: C_13  and  C_7 
REMARK    3  A    between atoms: N_12  and  C_11 
ROOT
ATOM      1  C   UNL d   1      58.574  -0.679  29.221  0.00  0.00     0.010 C 
ENDROOT
BRANCH   1   2
ATOM      2  C   UNL d   1      59.157  -1.230  29.215  0.00  0.00     0.116 A 
ATOM      3  C   UNL d   1      59.947  -1.007  29.136  0.00  0.00     0.288 A 
ATOM      4  N   UNL d   1      60.552  -1.563  29.128  0.00  0.00    -0.152 NA
ATOM      5  O   UNL d   1      60.134  -0.205  29.061  0.00  0.00    -0.265 OA
ATOM      6  C   UNL d   1      60.369  -2.351  29.201  0.00  0.00     0.374 A 
ATOM      7  N   UNL d   1      59.591  -2.601  29.282  0.00  0.00    -0.152 NA
ATOM      8  O   UNL d   1      60.991  -2.915  29.193  0.00  0.00    -0.242 OA
ATOM      9  C   UNL d   1      58.992  -2.038  29.288  0.00  0.00     0.288 A 
ATOM     10  O   UNL d   1      58.200  -2.285  29.369  0.00  0.00    -0.265 OA
ENDBRANCH   1   2
BRANCH   1  11
ATOM     11  C   UNL d   1      58.302  -0.371  29.939  0.00  0.00     0.000 A 
ATOM     12  C   UNL d   1      57.724  -0.750  30.346  0.00  0.00     0.002 A 
ATOM     13  C   UNL d   1      57.443  -0.467  31.049  0.00  0.00     0.018 A 
ATOM     14  C   UNL d   1      57.768   0.232  31.345  0.00  0.00     0.064 A 
ATOM     15  C   UNL d   1      58.366   0.628  30.929  0.00  0.00     0.018 A 
ATOM     16  C   UNL d   1      58.632   0.327  30.228  0.00  0.00     0.002 A 
BRANCH  14  17
ATOM     17  N   UNL d   1      57.486   0.529  32.065  0.00  0.00    -0.301 N 
ATOM     18  C   UNL d   1      56.687   0.662  32.161  0.00  0.00     0.100 C 
ATOM     19  C   UNL d   1      58.029   0.682  32.672  0.00  0.00     0.100 C 
ENDBRANCH  14  17
ENDBRANCH   1  11
TORSDOF 3
ENDMDL
MODEL 6
REMARK VINA RESULT:      -2.3      2.080      3.126
REMARK  3 active torsions:
REMARK  status: ('A' for Active; 'I' for Inactive)
REMARK    1  A    between atoms: C_7  and  C_1 
REMARK    2  A    between atoms: C_13  and  C_7 
REMARK    3  A    between atoms: N_12  and  C_11 
ROOT
ATOM      1  C   UNL d   1      58.546   0.681  30.287  0.00  0.00     0.010 C 
ENDROOT
BRANCH   1   2
ATOM      2  C   UNL d   1      57.964   0.655  30.839  0.00  0.00     0.116 A 
ATOM      3  C   UNL d   1      58.147   0.628  31.642  0.00  0.00     0.288 A 
ATOM      4  N   UNL d   1      57.559   0.602  32.216  0.00  0.00    -0.152 NA
ATOM      5  O   UNL d   1      58.940   0.628  31.876  0.00  0.00    -0.265 OA
ATOM      6  C   UNL d   1      56.779   0.603  31.987  0.00  0.00     0.374 A 
ATOM      7  N   UNL d   1      56.569   0.629  31.194  0.00  0.00    -0.152 NA
ATOM      8  O   UNL d   1      56.182   0.576  32.577  0.00  0.00    -0.242 OA
ATOM      9  C   UNL d   1      57.163   0.655  30.627  0.00  0.00     0.288 A 
ATOM     10  O   UNL d   1      56.958   0.682  29.820  0.00  0.00    -0.265 OA
ENDBRANCH   1   2
BRANCH   1  11
ATOM     11  C   UNL d   1      58.809  -0.017  29.930  0.00  0.00     0.000 A 
ATOM     12  C   UNL d   1      58.280  -0.550  29.647  0.00  0.00     0.002 A 
ATOM     13  C   UNL d   1      58.516  -1.238  29.295  0.00  0.00     0.018 A 
ATOM     14  C   UNL d   1      59.326  -1.386  29.231  0.00  0.00     0.064 A 
ATOM     15  C   UNL d   1      59.878  -0.840  29.521  0.00  0.00     0.018 A 
ATOM     16  C   UNL d   1      59.620  -0.158  29.870  0.00  0.00     0.002 A 
BRANCH  14  17
ATOM     17  N   UNL d   1      59.575  -2.089  28.871  0.00  0.00    -0.301 N 
ATOM     18  C   UNL d   1      59.113  -2.758  28.932  0.00  0.00     0.100 C 
ATOM     19  C   UNL d   1      60.293  -2.090  28.457  0.00  0.00     0.100 C 
ENDBRANCH  14  17
ENDBRANCH   1  11
TORSDOF 3
ENDMDL
