MODEL 1
REMARK VINA RESULT:      31.7      0.000      0.000
REMARK  5 active torsions:
REMARK  status: ('A' for Active; 'I' for Inactive)
REMARK    1  A    between atoms: C_7  and  C_4 
REMARK    2  A    between atoms: O_9  and  C_7 
REMARK    3  A    between atoms: O_15  and  C_8 
REMARK    4  A    between atoms: C_17  and  O_9 
REMARK    5  A    between atoms: O_16  and  C_11 
ROOT
ATOM      1  C   UNL d   1     -50.775  25.319  33.357  0.00  0.00     0.228 A 
ATOM      2  C   UNL d   1     -51.597  25.232  33.341  0.00  0.00     0.070 A 
ATOM      3  S   UNL d   1     -50.441  26.079  33.364  0.00  0.00    -0.040 SA
ATOM      4  C   UNL d   1     -50.937  26.749  33.354  0.00  0.00     0.096 A 
ATOM      5  C   UNL d   1     -52.088  25.895  33.331  0.00  0.00     0.006 A 
ATOM      6  C   UNL d   1     -51.762  26.651  33.337  0.00  0.00     0.012 A 
ATOM      7  C   UNL d   1     -51.919  24.470  33.334  0.00  0.00     0.120 A 
ATOM      8  O   UNL d   1     -50.284  24.656  33.367  0.00  0.00    -0.279 OA
ATOM      9  C   UNL d   1     -52.737  24.377  33.318  0.00  0.00     0.116 A 
ATOM     10  C   UNL d   1     -52.907  25.802  33.315  0.00  0.00     0.002 A 
ATOM     11  C   UNL d   1     -53.228  25.040  33.308  0.00  0.00     0.026 A 
ENDROOT
BRANCH   4  12
ATOM     12  C   UNL d   1     -50.603  27.501  33.360  0.00  0.00     0.306 C 
ATOM     13  O   UNL d   1     -51.091  28.162  33.309  0.00  0.00    -0.258 OA
BRANCH  12  14
ATOM     14  O   UNL d   1     -49.787  27.594  33.418  0.00  0.00    -0.273 OA
BRANCH  14  15
ATOM     15  C   UNL d   1     -49.471  28.207  33.870  0.00  0.00     0.103 C 
ATOM     16  C   UNL d   1     -48.833  28.062  34.371  0.00  0.00     0.027 C 
ATOM     17  C   UNL d   1     -49.795  28.966  33.820  0.00  0.00     0.027 C 
ENDBRANCH  14  15
ENDBRANCH  12  14
ENDBRANCH   4  12
BRANCH   7  18
ATOM     18  O   UNL d   1     -51.428  23.808  33.344  0.00  0.00    -0.326 OA
ATOM     19  C   UNL d   1     -50.603  23.905  33.332  0.00  0.00     0.181 C 
ENDBRANCH   7  18
BRANCH   9  20
ATOM     20  O   UNL d   1     -53.067  23.619  33.311  0.00  0.00    -0.326 OA
ATOM     21  C   UNL d   1     -53.884  23.526  33.339  0.00  0.00     0.181 C 
ENDBRANCH   9  20
TORSDOF 5
ENDMDL
MODEL 2
REMARK VINA RESULT:      34.2      0.965      4.230
REMARK  5 active torsions:
REMARK  status: ('A' for Active; 'I' for Inactive)
REMARK    1  A    between atoms: C_7  and  C_4 
REMARK    2  A    between atoms: O_9  and  C_7 
REMARK    3  A    between atoms: O_15  and  C_8 
REMARK    4  A    between atoms: C_17  and  O_9 
REMARK    5  A    between atoms: O_16  and  C_11 
ROOT
ATOM      1  C   UNL d   1     -51.735  26.069  33.527  0.00  0.00     0.228 A 
ATOM      2  C   UNL d   1     -50.913  26.114  33.458  0.00  0.00     0.070 A 
ATOM      3  S   UNL d   1     -52.106  25.327  33.556  0.00  0.00    -0.040 SA
ATOM      4  C   UNL d   1     -51.647  24.633  33.517  0.00  0.00     0.096 A 
ATOM      5  C   UNL d   1     -50.457  25.427  33.419  0.00  0.00     0.006 A 
ATOM      6  C   UNL d   1     -50.820  24.689  33.448  0.00  0.00     0.012 A 
ATOM      7  C   UNL d   1     -50.553  26.859  33.430  0.00  0.00     0.120 A 
ATOM      8  O   UNL d   1     -52.191  26.756  33.566  0.00  0.00    -0.279 OA
ATOM      9  C   UNL d   1     -49.735  26.910  33.362  0.00  0.00     0.116 A 
ATOM     10  C   UNL d   1     -49.638  25.478  33.351  0.00  0.00     0.002 A 
ATOM     11  C   UNL d   1     -49.279  26.223  33.322  0.00  0.00     0.026 A 
ENDROOT
BRANCH   4  12
ATOM     12  C   UNL d   1     -52.018  23.899  33.546  0.00  0.00     0.306 C 
ATOM     13  O   UNL d   1     -51.585  23.235  33.771  0.00  0.00    -0.258 OA
BRANCH  12  14
ATOM     14  O   UNL d   1     -52.815  23.827  33.354  0.00  0.00    -0.273 OA
BRANCH  14  15
ATOM     15  C   UNL d   1     -53.368  23.652  33.940  0.00  0.00     0.103 C 
ATOM     16  C   UNL d   1     -54.142  23.926  33.872  0.00  0.00     0.027 C 
ATOM     17  C   UNL d   1     -53.144  23.200  34.596  0.00  0.00     0.027 C 
ENDBRANCH  14  15
ENDBRANCH  12  14
ENDBRANCH   4  12
BRANCH   7  18
ATOM     18  O   UNL d   1     -51.008  27.545  33.469  0.00  0.00    -0.326 OA
ATOM     19  C   UNL d   1     -50.650  28.268  33.670  0.00  0.00     0.181 C 
ENDBRANCH   7  18
BRANCH   9  20
ATOM     20  O   UNL d   1     -49.367  27.650  33.332  0.00  0.00    -0.326 OA
ATOM     21  C   UNL d   1     -48.749  27.824  33.847  0.00  0.00     0.181 C 
ENDBRANCH   9  20
TORSDOF 5
ENDMDL
