MODEL 1
REMARK VINA RESULT:      21.9      0.000      0.000
REMARK  4 active torsions:
REMARK  status: ('A' for Active; 'I' for Inactive)
REMARK    1  A    between atoms: C_9  and  C_3 
REMARK    2  A    between atoms: C_6  and  C_10 
REMARK    3  A    between atoms: S_8  and  C_9 
REMARK    4  A    between atoms: C_10  and  S_8 
ROOT
ATOM      1  C   UNL d   1      13.234  11.851  -2.789  0.00  0.00     0.074 C 
ENDROOT
BRANCH   1   2
ATOM      2  S   UNL d   1      13.940  11.780  -2.367  0.00  0.00    -0.083 SA
BRANCH   2   3
ATOM      3  C   UNL d   1      13.903  11.789  -1.542  0.00  0.00     0.035 C 
BRANCH   3   4
ATOM      4  C   UNL d   1      14.342  12.358  -1.138  0.00  0.00     0.006 A 
ATOM      5  C   UNL d   1      14.023  12.672  -0.443  0.00  0.00     0.001 A 
ATOM      6  C   UNL d   1      13.290  12.432  -0.151  0.00  0.00     0.000 C 
ATOM      7  C   UNL d   1      14.449  13.252  -0.014  0.00  0.00     0.000 A 
ATOM      8  C   UNL d   1      15.175  13.501  -0.288  0.00  0.00     0.000 A 
ATOM      9  C   UNL d   1      15.468  13.173  -0.980  0.00  0.00     0.000 A 
ATOM     10  C   UNL d   1      15.039  12.592  -1.408  0.00  0.00     0.001 A 
ENDBRANCH   3   4
ENDBRANCH   2   3
ENDBRANCH   1   2
BRANCH   1  11
ATOM     11  C   UNL d   1      13.236  12.191  -3.540  0.00  0.00     0.169 A 
ATOM     12  N   UNL d   1      13.426  11.782  -4.236  0.00  0.00    -0.225 NA
ATOM     13  C   UNL d   1      13.359  12.330  -4.864  0.00  0.00     0.101 A 
ATOM     14  C   UNL d   1      13.126  13.075  -4.527  0.00  0.00     0.101 A 
ATOM     15  C   UNL d   1      13.467  12.285  -5.668  0.00  0.00     0.021 A 
ATOM     16  N   UNL d   1      13.056  12.962  -3.702  0.00  0.00    -0.225 NA
ATOM     17  C   UNL d   1      13.021  13.709  -5.023  0.00  0.00     0.021 A 
ATOM     18  C   UNL d   1      13.129  13.653  -5.801  0.00  0.00     0.002 A 
ATOM     19  C   UNL d   1      13.362  12.908  -6.138  0.00  0.00     0.002 A 
ENDBRANCH   1  11
TORSDOF 4
ENDMDL
MODEL 2
REMARK VINA RESULT:      23.8      1.083      4.345
REMARK  4 active torsions:
REMARK  status: ('A' for Active; 'I' for Inactive)
REMARK    1  A    between atoms: C_9  and  C_3 
REMARK    2  A    between atoms: C_6  and  C_10 
REMARK    3  A    between atoms: S_8  and  C_9 
REMARK    4  A    between atoms: C_10  and  S_8 
ROOT
ATOM      1  C   UNL d   1      13.148  11.806  -3.356  0.00  0.00     0.074 C 
ENDROOT
BRANCH   1   2
ATOM      2  S   UNL d   1      12.899  12.503  -3.721  0.00  0.00    -0.083 SA
BRANCH   2   3
ATOM      3  C   UNL d   1      12.785  12.497  -4.538  0.00  0.00     0.035 C 
BRANCH   3   4
ATOM      4  C   UNL d   1      13.161  13.076  -4.989  0.00  0.00     0.006 A 
ATOM      5  C   UNL d   1      13.610  12.831  -5.638  0.00  0.00     0.001 A 
ATOM      6  C   UNL d   1      13.689  12.035  -5.840  0.00  0.00     0.000 C 
ATOM      7  C   UNL d   1      14.002  13.401  -6.112  0.00  0.00     0.000 A 
ATOM      8  C   UNL d   1      13.935  14.192  -5.926  0.00  0.00     0.000 A 
ATOM      9  C   UNL d   1      13.483  14.407  -5.277  0.00  0.00     0.000 A 
ATOM     10  C   UNL d   1      13.092  13.834  -4.804  0.00  0.00     0.001 A 
ENDBRANCH   3   4
ENDBRANCH   2   3
ENDBRANCH   1   2
BRANCH   1  11
ATOM     11  C   UNL d   1      13.494  11.833  -2.608  0.00  0.00     0.169 A 
ATOM     12  N   UNL d   1      14.308  11.921  -2.475  0.00  0.00    -0.225 NA
ATOM     13  C   UNL d   1      14.417  11.921  -1.645  0.00  0.00     0.101 A 
ATOM     14  C   UNL d   1      13.651  11.832  -1.288  0.00  0.00     0.101 A 
ATOM     15  C   UNL d   1      15.066  11.985  -1.161  0.00  0.00     0.021 A 
ATOM     16  N   UNL d   1      13.094  11.779  -1.908  0.00  0.00    -0.225 NA
ATOM     17  C   UNL d   1      13.602  11.815  -0.478  0.00  0.00     0.021 A 
ATOM     18  C   UNL d   1      14.238  11.878  -0.019  0.00  0.00     0.002 A 
ATOM     19  C   UNL d   1      15.004  11.967  -0.376  0.00  0.00     0.002 A 
ENDBRANCH   1  11
TORSDOF 4
ENDMDL
