MODEL 1
REMARK VINA RESULT:      -2.9      0.000      0.000
REMARK  4 active torsions:
REMARK  status: ('A' for Active; 'I' for Inactive)
REMARK    1  A    between atoms: C_8  and  C_1 
REMARK    2  A    between atoms: C_3  and  C_2 
REMARK    3  A    between atoms: O_14  and  C_8 
REMARK    4  A    between atoms: C_16  and  O_14 
ROOT
ATOM      1  C   UNL d   1      59.098  -0.378  29.483  0.00  0.00     0.091 A 
ATOM      2  C   UNL d   1      58.852   0.044  30.147  0.00  0.00     0.036 A 
ATOM      3  C   UNL d   1      59.756  -0.002  29.151  0.00  0.00     0.138 A 
ATOM      4  C   UNL d   1      59.373   0.682  30.211  0.00  0.00     0.039 A 
ATOM      5  S   UNL d   1      59.910   0.648  29.613  0.00  0.00    -0.065 SA
ATOM      6  N   UNL d   1      60.175  -0.250  28.471  0.00  0.00    -0.141 N 
ENDROOT
BRANCH   2   7
ATOM      7  C   UNL d   1      58.221  -0.191  30.586  0.00  0.00     0.101 A 
ATOM      8  O   UNL d   1      57.651  -0.724  30.764  0.00  0.00    -0.307 OA
ATOM      9  C   UNL d   1      57.225  -0.429  31.368  0.00  0.00     0.100 A 
ATOM     10  C   UNL d   1      56.577  -0.822  31.716  0.00  0.00     0.027 C 
ATOM     11  C   UNL d   1      57.503   0.287  31.593  0.00  0.00     0.027 A 
ATOM     12  C   UNL d   1      58.144   0.425  31.079  0.00  0.00     0.027 A 
ENDBRANCH   2   7
BRANCH   1  13
ATOM     13  C   UNL d   1      58.760  -1.057  29.186  0.00  0.00     0.302 C 
ATOM     14  O   UNL d   1      58.125  -1.044  28.701  0.00  0.00    -0.259 OA
BRANCH  13  15
ATOM     15  O   UNL d   1      59.096  -1.800  29.399  0.00  0.00    -0.271 OA
BRANCH  15  16
ATOM     16  C   UNL d   1      58.860  -2.458  29.011  0.00  0.00     0.126 C 
ATOM     17  C   UNL d   1      59.236  -3.191  29.185  0.00  0.00     0.029 C 
ENDBRANCH  15  16
ENDBRANCH  13  15
ENDBRANCH   1  13
TORSDOF 4
ENDMDL
MODEL 2
REMARK VINA RESULT:      -2.7      0.983      2.901
REMARK  4 active torsions:
REMARK  status: ('A' for Active; 'I' for Inactive)
REMARK    1  A    between atoms: C_8  and  C_1 
REMARK    2  A    between atoms: C_3  and  C_2 
REMARK    3  A    between atoms: O_14  and  C_8 
REMARK    4  A    between atoms: C_16  and  O_14 
ROOT
ATOM      1  C   UNL d   1      59.625  -0.696  29.274  0.00  0.00     0.091 A 
ATOM      2  C   UNL d   1      59.985  -1.406  29.057  0.00  0.00     0.036 A 
ATOM      3  C   UNL d   1      60.208  -0.116  29.370  0.00  0.00     0.138 A 
ATOM      4  C   UNL d   1      60.794  -1.245  29.025  0.00  0.00     0.039 A 
ATOM      5  S   UNL d   1      60.920  -0.473  29.213  0.00  0.00    -0.065 SA
ATOM      6  N   UNL d   1      60.078   0.681  29.589  0.00  0.00    -0.141 N 
ENDROOT
BRANCH   2   7
ATOM      7  C   UNL d   1      59.555  -2.072  28.924  0.00  0.00     0.101 A 
ATOM      8  O   UNL d   1      58.857  -2.441  28.792  0.00  0.00    -0.307 OA
ATOM      9  C   UNL d   1      59.005  -3.219  28.719  0.00  0.00     0.100 A 
ATOM     10  C   UNL d   1      58.418  -3.794  28.577  0.00  0.00     0.027 C 
ATOM     11  C   UNL d   1      59.787  -3.371  28.799  0.00  0.00     0.027 A 
ATOM     12  C   UNL d   1      60.126  -2.622  28.930  0.00  0.00     0.027 A 
ENDBRANCH   2   7
BRANCH   1  13
ATOM     13  C   UNL d   1      58.828  -0.567  29.380  0.00  0.00     0.302 C 
ATOM     14  O   UNL d   1      58.333  -0.416  28.771  0.00  0.00    -0.259 OA
BRANCH  13  15
ATOM     15  O   UNL d   1      58.517  -0.594  30.162  0.00  0.00    -0.271 OA
BRANCH  15  16
ATOM     16  C   UNL d   1      57.803  -0.264  30.308  0.00  0.00     0.126 C 
ATOM     17  C   UNL d   1      57.452  -0.368  31.065  0.00  0.00     0.029 C 
ENDBRANCH  15  16
ENDBRANCH  13  15
ENDBRANCH   1  13
TORSDOF 4
ENDMDL
MODEL 3
REMARK VINA RESULT:      -1.1      1.523      3.093
REMARK  4 active torsions:
REMARK  status: ('A' for Active; 'I' for Inactive)
REMARK    1  A    between atoms: C_8  and  C_1 
REMARK    2  A    between atoms: C_3  and  C_2 
REMARK    3  A    between atoms: O_14  and  C_8 
REMARK    4  A    between atoms: C_16  and  O_14 
ROOT
ATOM      1  C   UNL d   1      58.537  -0.482  29.998  0.00  0.00     0.091 A 
ATOM      2  C   UNL d   1      58.407  -1.295  29.944  0.00  0.00     0.036 A 
ATOM      3  C   UNL d   1      57.935  -0.142  30.454  0.00  0.00     0.138 A 
ATOM      4  C   UNL d   1      57.717  -1.439  30.375  0.00  0.00     0.039 A 
ATOM      5  S   UNL d   1      57.441  -0.747  30.676  0.00  0.00    -0.065 SA
ATOM      6  N   UNL d   1      57.859   0.669  30.643  0.00  0.00    -0.141 N 
ENDROOT
BRANCH   2   7
ATOM      7  C   UNL d   1      58.905  -1.774  29.533  0.00  0.00     0.101 A 
ATOM      8  O   UNL d   1      59.606  -1.913  29.173  0.00  0.00    -0.307 OA
ATOM      9  C   UNL d   1      59.585  -2.652  28.880  0.00  0.00     0.100 A 
ATOM     10  C   UNL d   1      60.215  -3.006  28.464  0.00  0.00     0.027 C 
ATOM     11  C   UNL d   1      58.884  -3.004  29.040  0.00  0.00     0.027 A 
ATOM     12  C   UNL d   1      58.458  -2.426  29.460  0.00  0.00     0.027 A 
ENDBRANCH   2   7
BRANCH   1  13
ATOM     13  C   UNL d   1      59.151  -0.064  29.665  0.00  0.00     0.302 C 
ATOM     14  O   UNL d   1      59.125   0.212  28.916  0.00  0.00    -0.259 OA
BRANCH  13  15
ATOM     15  O   UNL d   1      59.838   0.081  30.130  0.00  0.00    -0.271 OA
BRANCH  15  16
ATOM     16  C   UNL d   1      60.396   0.582  29.853  0.00  0.00     0.126 C 
ATOM     17  C   UNL d   1      61.127   0.648  30.265  0.00  0.00     0.029 C 
ENDBRANCH  15  16
ENDBRANCH  13  15
ENDBRANCH   1  13
TORSDOF 4
ENDMDL
MODEL 4
REMARK VINA RESULT:      -1.1      1.267      2.921
REMARK  4 active torsions:
REMARK  status: ('A' for Active; 'I' for Inactive)
REMARK    1  A    between atoms: C_8  and  C_1 
REMARK    2  A    between atoms: C_3  and  C_2 
REMARK    3  A    between atoms: O_14  and  C_8 
REMARK    4  A    between atoms: C_16  and  O_14 
ROOT
ATOM      1  C   UNL d   1      58.829  -0.489  29.138  0.00  0.00     0.091 A 
ATOM      2  C   UNL d   1      59.590  -0.686  28.886  0.00  0.00     0.036 A 
ATOM      3  C   UNL d   1      58.644   0.271  28.869  0.00  0.00     0.138 A 
ATOM      4  C   UNL d   1      59.860  -0.031  28.461  0.00  0.00     0.039 A 
ATOM      5  S   UNL d   1      59.290   0.536  28.455  0.00  0.00    -0.065 SA
ATOM      6  N   UNL d   1      57.926   0.680  29.004  0.00  0.00    -0.141 N 
ENDROOT
BRANCH   2   7
ATOM      7  C   UNL d   1      59.922  -1.395  29.066  0.00  0.00     0.101 A 
ATOM      8  O   UNL d   1      59.877  -2.132  29.376  0.00  0.00    -0.307 OA
ATOM      9  C   UNL d   1      60.590  -2.475  29.287  0.00  0.00     0.100 A 
ATOM     10  C   UNL d   1      60.769  -3.249  29.540  0.00  0.00     0.027 C 
ATOM     11  C   UNL d   1      61.104  -1.979  28.924  0.00  0.00     0.027 A 
ATOM     12  C   UNL d   1      60.658  -1.289  28.789  0.00  0.00     0.027 A 
ENDBRANCH   2   7
BRANCH   1  13
ATOM     13  C   UNL d   1      58.327  -0.955  29.580  0.00  0.00     0.302 C 
ATOM     14  O   UNL d   1      57.954  -1.592  29.275  0.00  0.00    -0.259 OA
BRANCH  13  15
ATOM     15  O   UNL d   1      58.200  -0.754  30.388  0.00  0.00    -0.271 OA
BRANCH  15  16
ATOM     16  C   UNL d   1      57.517  -0.976  30.740  0.00  0.00     0.126 C 
ATOM     17  C   UNL d   1      57.389  -0.773  31.547  0.00  0.00     0.029 C 
ENDBRANCH  15  16
ENDBRANCH  13  15
ENDBRANCH   1  13
TORSDOF 4
ENDMDL
MODEL 5
REMARK VINA RESULT:      -1.1      2.685      3.978
REMARK  4 active torsions:
REMARK  status: ('A' for Active; 'I' for Inactive)
REMARK    1  A    between atoms: C_8  and  C_1 
REMARK    2  A    between atoms: C_3  and  C_2 
REMARK    3  A    between atoms: O_14  and  C_8 
REMARK    4  A    between atoms: C_16  and  O_14 
ROOT
ATOM      1  C   UNL d   1      57.080   0.262  33.051  0.00  0.00     0.091 A 
ATOM      2  C   UNL d   1      57.752   0.419  32.598  0.00  0.00     0.036 A 
ATOM      3  C   UNL d   1      57.246   0.427  33.845  0.00  0.00     0.138 A 
ATOM      4  C   UNL d   1      58.325   0.680  33.132  0.00  0.00     0.039 A 
ATOM      5  S   UNL d   1      58.016   0.682  33.874  0.00  0.00    -0.065 SA
ATOM      6  N   UNL d   1      56.715   0.342  34.487  0.00  0.00    -0.141 N 
ENDROOT
BRANCH   2   7
ATOM      7  C   UNL d   1      57.756   0.310  31.802  0.00  0.00     0.101 A 
ATOM      8  O   UNL d   1      57.426   0.023  31.131  0.00  0.00    -0.307 OA
ATOM      9  C   UNL d   1      57.902   0.217  30.525  0.00  0.00     0.100 A 
ATOM     10  C   UNL d   1      57.750   0.017  29.730  0.00  0.00     0.027 C 
ATOM     11  C   UNL d   1      58.541   0.627  30.781  0.00  0.00     0.027 A 
ATOM     12  C   UNL d   1      58.430   0.678  31.605  0.00  0.00     0.027 A 
ENDBRANCH   2   7
BRANCH   1  13
ATOM     13  C   UNL d   1      56.362  -0.010  32.779  0.00  0.00     0.302 C 
ATOM     14  O   UNL d   1      55.810   0.476  32.467  0.00  0.00    -0.259 OA
BRANCH  13  15
ATOM     15  O   UNL d   1      56.198  -0.834  32.831  0.00  0.00    -0.271 OA
BRANCH  15  16
ATOM     16  C   UNL d   1      55.446  -1.073  32.957  0.00  0.00     0.126 C 
ATOM     17  C   UNL d   1      55.274  -1.898  32.960  0.00  0.00     0.029 C 
ENDBRANCH  15  16
ENDBRANCH  13  15
ENDBRANCH   1  13
TORSDOF 4
ENDMDL
MODEL 6
REMARK VINA RESULT:      -0.5      2.802      4.474
REMARK  4 active torsions:
REMARK  status: ('A' for Active; 'I' for Inactive)
REMARK    1  A    between atoms: C_8  and  C_1 
REMARK    2  A    between atoms: C_3  and  C_2 
REMARK    3  A    between atoms: O_14  and  C_8 
REMARK    4  A    between atoms: C_16  and  O_14 
ROOT
ATOM      1  C   UNL d   1      56.325  -0.677  32.751  0.00  0.00     0.091 A 
ATOM      2  C   UNL d   1      56.619  -0.966  32.036  0.00  0.00     0.036 A 
ATOM      3  C   UNL d   1      55.869  -1.266  33.113  0.00  0.00     0.138 A 
ATOM      4  C   UNL d   1      56.333  -1.739  31.974  0.00  0.00     0.039 A 
ATOM      5  S   UNL d   1      55.887  -1.911  32.620  0.00  0.00    -0.065 SA
ATOM      6  N   UNL d   1      55.472  -1.200  33.846  0.00  0.00    -0.141 N 
ENDROOT
BRANCH   2   7
ATOM      7  C   UNL d   1      57.083  -0.515  31.560  0.00  0.00     0.101 A 
ATOM      8  O   UNL d   1      57.387   0.193  31.344  0.00  0.00    -0.307 OA
ATOM      9  C   UNL d   1      57.863   0.071  30.718  0.00  0.00     0.100 A 
ATOM     10  C   UNL d   1      58.286   0.675  30.329  0.00  0.00     0.027 C 
ATOM     11  C   UNL d   1      57.879  -0.704  30.516  0.00  0.00     0.027 A 
ATOM     12  C   UNL d   1      57.372  -1.067  31.068  0.00  0.00     0.027 A 
ENDBRANCH   2   7
BRANCH   1  13
ATOM     13  C   UNL d   1      56.451   0.064  33.065  0.00  0.00     0.302 C 
ATOM     14  O   UNL d   1      55.967   0.681  32.913  0.00  0.00    -0.259 OA
BRANCH  13  15
ATOM     15  O   UNL d   1      57.116   0.179  33.568  0.00  0.00    -0.271 OA
BRANCH  15  16
ATOM     16  C   UNL d   1      57.052   0.682  34.187  0.00  0.00     0.126 C 
ATOM     17  C   UNL d   1      57.627   0.649  34.801  0.00  0.00     0.029 C 
ENDBRANCH  15  16
ENDBRANCH  13  15
ENDBRANCH   1  13
TORSDOF 4
ENDMDL
MODEL 7
REMARK VINA RESULT:      -0.4      1.806      2.710
REMARK  4 active torsions:
REMARK  status: ('A' for Active; 'I' for Inactive)
REMARK    1  A    between atoms: C_8  and  C_1 
REMARK    2  A    between atoms: C_3  and  C_2 
REMARK    3  A    between atoms: O_14  and  C_8 
REMARK    4  A    between atoms: C_16  and  O_14 
ROOT
ATOM      1  C   UNL d   1      57.923   0.025  31.025  0.00  0.00     0.091 A 
ATOM      2  C   UNL d   1      58.565   0.414  31.368  0.00  0.00     0.036 A 
ATOM      3  C   UNL d   1      57.283   0.048  31.549  0.00  0.00     0.138 A 
ATOM      4  C   UNL d   1      58.300   0.672  32.107  0.00  0.00     0.039 A 
ATOM      5  S   UNL d   1      57.535   0.450  32.208  0.00  0.00    -0.065 SA
ATOM      6  N   UNL d   1      56.526  -0.283  31.416  0.00  0.00    -0.141 N 
ENDROOT
BRANCH   2   7
ATOM      7  C   UNL d   1      59.269   0.481  30.986  0.00  0.00     0.101 A 
ATOM      8  O   UNL d   1      59.704   0.488  30.314  0.00  0.00    -0.307 OA
ATOM      9  C   UNL d   1      60.463   0.609  30.519  0.00  0.00     0.100 A 
ATOM     10  C   UNL d   1      61.092   0.652  29.973  0.00  0.00     0.027 C 
ATOM     11  C   UNL d   1      60.538   0.682  31.313  0.00  0.00     0.027 A 
ATOM     12  C   UNL d   1      59.760   0.597  31.598  0.00  0.00     0.027 A 
ENDBRANCH   2   7
BRANCH   1  13
ATOM     13  C   UNL d   1      57.904  -0.330  30.293  0.00  0.00     0.302 C 
ATOM     14  O   UNL d   1      57.771   0.080  29.621  0.00  0.00    -0.259 OA
BRANCH  13  15
ATOM     15  O   UNL d   1      58.030  -1.162  30.246  0.00  0.00    -0.271 OA
BRANCH  15  16
ATOM     16  C   UNL d   1      58.138  -1.498  29.528  0.00  0.00     0.126 C 
ATOM     17  C   UNL d   1      58.307  -2.322  29.484  0.00  0.00     0.029 C 
ENDBRANCH  15  16
ENDBRANCH  13  15
ENDBRANCH   1  13
TORSDOF 4
ENDMDL
MODEL 8
REMARK VINA RESULT:      -0.3      1.646      3.251
REMARK  4 active torsions:
REMARK  status: ('A' for Active; 'I' for Inactive)
REMARK    1  A    between atoms: C_8  and  C_1 
REMARK    2  A    between atoms: C_3  and  C_2 
REMARK    3  A    between atoms: O_14  and  C_8 
REMARK    4  A    between atoms: C_16  and  O_14 
ROOT
ATOM      1  C   UNL d   1      58.802  -1.970  29.189  0.00  0.00     0.091 A 
ATOM      2  C   UNL d   1      59.601  -1.884  29.002  0.00  0.00     0.036 A 
ATOM      3  C   UNL d   1      58.581  -2.758  29.071  0.00  0.00     0.138 A 
ATOM      4  C   UNL d   1      59.857  -2.633  28.769  0.00  0.00     0.039 A 
ATOM      5  S   UNL d   1      59.243  -3.151  28.813  0.00  0.00    -0.065 SA
ATOM      6  N   UNL d   1      57.818  -3.080  29.196  0.00  0.00    -0.141 N 
ENDROOT
BRANCH   2   7
ATOM      7  C   UNL d   1      59.973  -1.174  29.063  0.00  0.00     0.101 A 
ATOM      8  O   UNL d   1      59.993  -0.411  29.306  0.00  0.00    -0.307 OA
ATOM      9  C   UNL d   1      60.691  -0.104  29.082  0.00  0.00     0.100 A 
ATOM     10  C   UNL d   1      60.925   0.682  29.233  0.00  0.00     0.027 C 
ATOM     11  C   UNL d   1      61.133  -0.649  28.695  0.00  0.00     0.027 A 
ATOM     12  C   UNL d   1      60.656  -1.331  28.692  0.00  0.00     0.027 A 
ENDBRANCH   2   7
BRANCH   1  13
ATOM     13  C   UNL d   1      58.297  -1.386  29.449  0.00  0.00     0.302 C 
ATOM     14  O   UNL d   1      58.028  -0.807  28.969  0.00  0.00    -0.259 OA
BRANCH  13  15
ATOM     15  O   UNL d   1      58.052  -1.396  30.254  0.00  0.00    -0.271 OA
BRANCH  15  16
ATOM     16  C   UNL d   1      57.767  -0.724  30.582  0.00  0.00     0.126 C 
ATOM     17  C   UNL d   1      57.275  -0.778  31.263  0.00  0.00     0.029 C 
ENDBRANCH  15  16
ENDBRANCH  13  15
ENDBRANCH   1  13
TORSDOF 4
ENDMDL
MODEL 9
REMARK VINA RESULT:      -0.2      1.829      2.713
REMARK  4 active torsions:
REMARK  status: ('A' for Active; 'I' for Inactive)
REMARK    1  A    between atoms: C_8  and  C_1 
REMARK    2  A    between atoms: C_3  and  C_2 
REMARK    3  A    between atoms: O_14  and  C_8 
REMARK    4  A    between atoms: C_16  and  O_14 
ROOT
ATOM      1  C   UNL d   1      57.656   0.009  31.852  0.00  0.00     0.091 A 
ATOM      2  C   UNL d   1      57.301  -0.061  32.594  0.00  0.00     0.036 A 
ATOM      3  C   UNL d   1      58.338   0.472  31.922  0.00  0.00     0.138 A 
ATOM      4  C   UNL d   1      57.782   0.367  33.111  0.00  0.00     0.039 A 
ATOM      5  S   UNL d   1      58.399   0.682  32.704  0.00  0.00    -0.065 SA
ATOM      6  N   UNL d   1      58.860   0.677  31.300  0.00  0.00    -0.141 N 
ENDROOT
BRANCH   2   7
ATOM      7  C   UNL d   1      56.624  -0.482  32.698  0.00  0.00     0.101 A 
ATOM      8  O   UNL d   1      56.115  -1.057  32.475  0.00  0.00    -0.307 OA
ATOM      9  C   UNL d   1      55.514  -1.064  32.995  0.00  0.00     0.100 A 
ATOM     10  C   UNL d   1      54.866  -1.588  32.953  0.00  0.00     0.027 C 
ATOM     11  C   UNL d   1      55.616  -0.503  33.559  0.00  0.00     0.027 A 
ATOM     12  C   UNL d   1      56.335  -0.139  33.352  0.00  0.00     0.027 A 
ENDBRANCH   2   7
BRANCH   1  13
ATOM     13  C   UNL d   1      57.392  -0.317  31.154  0.00  0.00     0.302 C 
ATOM     14  O   UNL d   1      56.802   0.010  30.725  0.00  0.00    -0.259 OA
BRANCH  13  15
ATOM     15  O   UNL d   1      57.756  -1.023  30.876  0.00  0.00    -0.271 OA
BRANCH  15  16
ATOM     16  C   UNL d   1      57.785  -1.162  30.089  0.00  0.00     0.126 C 
ATOM     17  C   UNL d   1      58.131  -1.878  29.813  0.00  0.00     0.029 C 
ENDBRANCH  15  16
ENDBRANCH  13  15
ENDBRANCH   1  13
TORSDOF 4
ENDMDL
