MODEL 1
REMARK VINA RESULT:      -8.1      0.000      0.000
REMARK  5 active torsions:
REMARK  status: ('A' for Active; 'I' for Inactive)
REMARK    1  A    between atoms: C_7  and  C_1 
REMARK    2  A    between atoms: C_10  and  C_3 
REMARK    3  A    between atoms: C_8  and  C_4 
REMARK    4  A    between atoms: O_14  and  C_7 
REMARK    5  A    between atoms: C_20  and  O_14 
ROOT
ATOM      1  C   UNL d   1     -48.381  14.307  22.535  0.00  0.00     0.102 A 
ATOM      2  C   UNL d   1     -47.668  14.727  22.610  0.00  0.00     0.201 A 
ATOM      3  C   UNL d   1     -48.383  13.482  22.469  0.00  0.00     0.008 A 
ATOM      4  C   UNL d   1     -46.966  13.473  22.552  0.00  0.00     0.003 A 
ATOM      5  C   UNL d   1     -46.965  14.298  22.618  0.00  0.00     0.042 A 
ATOM      6  C   UNL d   1     -47.671  13.070  22.479  0.00  0.00     0.000 A 
ATOM      7  O   UNL d   1     -47.666  15.542  22.675  0.00  0.00    -0.286 OA
ENDROOT
BRANCH   4   8
ATOM      8  C   UNL d   1     -46.245  13.061  22.562  0.00  0.00     0.000 A 
ATOM      9  C   UNL d   1     -45.635  13.291  22.047  0.00  0.00     0.000 A 
ATOM     10  C   UNL d   1     -44.927  12.894  22.049  0.00  0.00     0.000 A 
ATOM     11  C   UNL d   1     -44.822  12.254  22.575  0.00  0.00     0.000 A 
ATOM     12  C   UNL d   1     -45.426  12.038  23.075  0.00  0.00     0.000 A 
ATOM     13  C   UNL d   1     -44.099  11.846  22.580  0.00  0.00     0.000 C 
ATOM     14  C   UNL d   1     -46.137  12.438  23.072  0.00  0.00     0.000 A 
ENDBRANCH   4   8
BRANCH   3  15
ATOM     15  C   UNL d   1     -49.096  13.079  22.395  0.00  0.00     0.000 A 
ATOM     16  C   UNL d   1     -49.426  12.984  21.642  0.00  0.00     0.000 A 
ATOM     17  C   UNL d   1     -50.144  12.577  21.575  0.00  0.00     0.000 A 
ATOM     18  C   UNL d   1     -50.522  12.277  22.221  0.00  0.00     0.000 A 
ATOM     19  C   UNL d   1     -50.178  12.380  22.980  0.00  0.00     0.000 A 
ATOM     20  C   UNL d   1     -49.464  12.783  23.059  0.00  0.00     0.000 A 
ENDBRANCH   3  15
BRANCH   1  21
ATOM     21  C   UNL d   1     -49.101  14.723  22.525  0.00  0.00     0.303 C 
ATOM     22  O   UNL d   1     -49.483  14.876  21.807  0.00  0.00    -0.259 OA
BRANCH  21  23
ATOM     23  O   UNL d   1     -49.441  14.988  23.233  0.00  0.00    -0.271 OA
BRANCH  23  24
ATOM     24  C   UNL d   1     -49.845  15.707  23.254  0.00  0.00     0.126 C 
ATOM     25  C   UNL d   1     -50.537  15.778  23.698  0.00  0.00     0.029 C 
ENDBRANCH  23  24
ENDBRANCH  21  23
ENDBRANCH   1  21
TORSDOF 5
ENDMDL
MODEL 2
REMARK VINA RESULT:      -7.9      0.830      1.323
REMARK  5 active torsions:
REMARK  status: ('A' for Active; 'I' for Inactive)
REMARK    1  A    between atoms: C_7  and  C_1 
REMARK    2  A    between atoms: C_10  and  C_3 
REMARK    3  A    between atoms: C_8  and  C_4 
REMARK    4  A    between atoms: O_14  and  C_7 
REMARK    5  A    between atoms: C_20  and  O_14 
ROOT
ATOM      1  C   UNL d   1     -47.997  13.547  22.835  0.00  0.00     0.102 A 
ATOM      2  C   UNL d   1     -47.225  13.855  22.834  0.00  0.00     0.201 A 
ATOM      3  C   UNL d   1     -48.129  12.736  22.927  0.00  0.00     0.008 A 
ATOM      4  C   UNL d   1     -46.730  12.518  23.020  0.00  0.00     0.003 A 
ATOM      5  C   UNL d   1     -46.598  13.329  22.927  0.00  0.00     0.042 A 
ATOM      6  C   UNL d   1     -47.491  12.225  23.019  0.00  0.00     0.000 A 
ATOM      7  O   UNL d   1     -47.094  14.658  22.743  0.00  0.00    -0.286 OA
ENDROOT
BRANCH   4   8
ATOM      8  C   UNL d   1     -46.083  12.006  23.112  0.00  0.00     0.000 A 
ATOM      9  C   UNL d   1     -46.189  11.278  23.497  0.00  0.00     0.000 A 
ATOM     10  C   UNL d   1     -45.563  10.770  23.593  0.00  0.00     0.000 A 
ATOM     11  C   UNL d   1     -44.813  10.991  23.300  0.00  0.00     0.000 A 
ATOM     12  C   UNL d   1     -44.721  11.708  22.924  0.00  0.00     0.000 A 
ATOM     13  C   UNL d   1     -44.171  10.476  23.395  0.00  0.00     0.000 C 
ATOM     14  C   UNL d   1     -45.352  12.216  22.829  0.00  0.00     0.000 A 
ENDBRANCH   4   8
BRANCH   3  15
ATOM     15  C   UNL d   1     -48.899  12.445  22.926  0.00  0.00     0.000 A 
ATOM     16  C   UNL d   1     -49.296  12.359  23.647  0.00  0.00     0.000 A 
ATOM     17  C   UNL d   1     -50.069  12.065  23.639  0.00  0.00     0.000 A 
ATOM     18  C   UNL d   1     -50.438  11.864  22.950  0.00  0.00     0.000 A 
ATOM     19  C   UNL d   1     -50.025  11.955  22.224  0.00  0.00     0.000 A 
ATOM     20  C   UNL d   1     -49.255  12.246  22.221  0.00  0.00     0.000 A 
ENDBRANCH   3  15
BRANCH   1  21
ATOM     21  C   UNL d   1     -48.643  14.063  22.742  0.00  0.00     0.303 C 
ATOM     22  O   UNL d   1     -49.055  14.086  22.026  0.00  0.00    -0.259 OA
BRANCH  21  23
ATOM     23  O   UNL d   1     -48.877  14.557  23.365  0.00  0.00    -0.271 OA
BRANCH  23  24
ATOM     24  C   UNL d   1     -49.199  15.300  23.205  0.00  0.00     0.126 C 
ATOM     25  C   UNL d   1     -49.861  15.560  23.622  0.00  0.00     0.029 C 
ENDBRANCH  23  24
ENDBRANCH  21  23
ENDBRANCH   1  21
TORSDOF 5
ENDMDL
MODEL 3
REMARK VINA RESULT:      -7.2      8.261      9.569
REMARK  5 active torsions:
REMARK  status: ('A' for Active; 'I' for Inactive)
REMARK    1  A    between atoms: C_7  and  C_1 
REMARK    2  A    between atoms: C_10  and  C_3 
REMARK    3  A    between atoms: C_8  and  C_4 
REMARK    4  A    between atoms: O_14  and  C_7 
REMARK    5  A    between atoms: C_20  and  O_14 
ROOT
ATOM      1  C   UNL d   1     -40.124  14.430  18.888  0.00  0.00     0.102 A 
ATOM      2  C   UNL d   1     -40.581  14.684  19.534  0.00  0.00     0.201 A 
ATOM      3  C   UNL d   1     -39.351  14.158  18.997  0.00  0.00     0.008 A 
ATOM      4  C   UNL d   1     -39.468  14.384  20.393  0.00  0.00     0.003 A 
ATOM      5  C   UNL d   1     -40.242  14.656  20.283  0.00  0.00     0.042 A 
ATOM      6  C   UNL d   1     -39.028  14.137  19.753  0.00  0.00     0.000 A 
ATOM      7  O   UNL d   1     -41.346  14.953  19.426  0.00  0.00    -0.286 OA
ENDROOT
BRANCH   4   8
ATOM      8  C   UNL d   1     -39.146  14.364  21.158  0.00  0.00     0.000 A 
ATOM      9  C   UNL d   1     -39.165  13.656  21.592  0.00  0.00     0.000 A 
ATOM     10  C   UNL d   1     -38.852  13.626  22.340  0.00  0.00     0.000 A 
ATOM     11  C   UNL d   1     -38.513  14.316  22.666  0.00  0.00     0.000 A 
ATOM     12  C   UNL d   1     -38.500  15.005  22.232  0.00  0.00     0.000 A 
ATOM     13  C   UNL d   1     -38.193  14.291  23.431  0.00  0.00     0.000 C 
ATOM     14  C   UNL d   1     -38.815  15.032  21.479  0.00  0.00     0.000 A 
ENDBRANCH   4   8
BRANCH   3  15
ATOM     15  C   UNL d   1     -38.909  13.909  18.348  0.00  0.00     0.000 A 
ATOM     16  C   UNL d   1     -38.380  14.439  17.997  0.00  0.00     0.000 A 
ATOM     17  C   UNL d   1     -37.940  14.183  17.345  0.00  0.00     0.000 A 
ATOM     18  C   UNL d   1     -38.015  13.436  17.051  0.00  0.00     0.000 A 
ATOM     19  C   UNL d   1     -38.555  12.906  17.416  0.00  0.00     0.000 A 
ATOM     20  C   UNL d   1     -38.999  13.151  18.065  0.00  0.00     0.000 A 
ENDBRANCH   3  15
BRANCH   1  21
ATOM     21  C   UNL d   1     -40.450  14.451  18.123  0.00  0.00     0.303 C 
ATOM     22  O   UNL d   1     -40.747  13.760  17.779  0.00  0.00    -0.259 OA
BRANCH  21  23
ATOM     23  O   UNL d   1     -40.480  15.163  17.699  0.00  0.00    -0.271 OA
BRANCH  23  24
ATOM     24  C   UNL d   1     -41.070  15.285  17.136  0.00  0.00     0.126 C 
ATOM     25  C   UNL d   1     -41.015  15.921  16.614  0.00  0.00     0.029 C 
ENDBRANCH  23  24
ENDBRANCH  21  23
ENDBRANCH   1  21
TORSDOF 5
ENDMDL
MODEL 4
REMARK VINA RESULT:      -6.5      8.853     10.040
REMARK  5 active torsions:
REMARK  status: ('A' for Active; 'I' for Inactive)
REMARK    1  A    between atoms: C_7  and  C_1 
REMARK    2  A    between atoms: C_10  and  C_3 
REMARK    3  A    between atoms: C_8  and  C_4 
REMARK    4  A    between atoms: O_14  and  C_7 
REMARK    5  A    between atoms: C_20  and  O_14 
ROOT
ATOM      1  C   UNL d   1     -39.160  14.024  18.206  0.00  0.00     0.102 A 
ATOM      2  C   UNL d   1     -38.705  13.666  18.803  0.00  0.00     0.201 A 
ATOM      3  C   UNL d   1     -39.621  14.691  18.368  0.00  0.00     0.008 A 
ATOM      4  C   UNL d   1     -39.189  14.662  19.719  0.00  0.00     0.003 A 
ATOM      5  C   UNL d   1     -38.728  13.995  19.558  0.00  0.00     0.042 A 
ATOM      6  C   UNL d   1     -39.632  15.006  19.128  0.00  0.00     0.000 A 
ATOM      7  O   UNL d   1     -38.248  13.006  18.643  0.00  0.00    -0.286 OA
ENDROOT
BRANCH   4   8
ATOM      8  C   UNL d   1     -39.198  14.977  20.488  0.00  0.00     0.000 A 
ATOM      9  C   UNL d   1     -38.672  15.589  20.685  0.00  0.00     0.000 A 
ATOM     10  C   UNL d   1     -38.672  15.904  21.433  0.00  0.00     0.000 A 
ATOM     11  C   UNL d   1     -39.207  15.603  21.999  0.00  0.00     0.000 A 
ATOM     12  C   UNL d   1     -39.717  15.003  21.795  0.00  0.00     0.000 A 
ATOM     13  C   UNL d   1     -39.210  15.922  22.765  0.00  0.00     0.000 C 
ATOM     14  C   UNL d   1     -39.715  14.689  21.042  0.00  0.00     0.000 A 
ENDBRANCH   4   8
BRANCH   3  15
ATOM     15  C   UNL d   1     -40.067  15.036  17.768  0.00  0.00     0.000 A 
ATOM     16  C   UNL d   1     -40.861  14.821  17.685  0.00  0.00     0.000 A 
ATOM     17  C   UNL d   1     -41.303  15.171  17.079  0.00  0.00     0.000 A 
ATOM     18  C   UNL d   1     -40.978  15.711  16.576  0.00  0.00     0.000 A 
ATOM     19  C   UNL d   1     -40.170  15.922  16.670  0.00  0.00     0.000 A 
ATOM     20  C   UNL d   1     -39.721  15.579  17.269  0.00  0.00     0.000 A 
ENDBRANCH   3  15
BRANCH   1  21
ATOM     21  C   UNL d   1     -39.149  13.706  17.438  0.00  0.00     0.303 C 
ATOM     22  O   UNL d   1     -39.779  13.241  17.172  0.00  0.00    -0.259 OA
BRANCH  21  23
ATOM     23  O   UNL d   1     -38.508  13.852  16.933  0.00  0.00    -0.271 OA
BRANCH  23  24
ATOM     24  C   UNL d   1     -38.240  13.261  16.423  0.00  0.00     0.126 C 
ATOM     25  C   UNL d   1     -37.962  13.460  15.673  0.00  0.00     0.029 C 
ENDBRANCH  23  24
ENDBRANCH  21  23
ENDBRANCH   1  21
TORSDOF 5
ENDMDL
MODEL 5
REMARK VINA RESULT:      -6.5      7.144      9.430
REMARK  5 active torsions:
REMARK  status: ('A' for Active; 'I' for Inactive)
REMARK    1  A    between atoms: C_7  and  C_1 
REMARK    2  A    between atoms: C_10  and  C_3 
REMARK    3  A    between atoms: C_8  and  C_4 
REMARK    4  A    between atoms: O_14  and  C_7 
REMARK    5  A    between atoms: C_20  and  O_14 
ROOT
ATOM      1  C   UNL d   1     -39.174  14.074  20.762  0.00  0.00     0.102 A 
ATOM      2  C   UNL d   1     -38.472  13.705  20.514  0.00  0.00     0.201 A 
ATOM      3  C   UNL d   1     -39.712  14.375  20.210  0.00  0.00     0.008 A 
ATOM      4  C   UNL d   1     -38.866  13.950  19.153  0.00  0.00     0.003 A 
ATOM      5  C   UNL d   1     -38.328  13.649  19.705  0.00  0.00     0.042 A 
ATOM      6  C   UNL d   1     -39.552  14.311  19.406  0.00  0.00     0.000 A 
ATOM      7  O   UNL d   1     -37.940  13.407  21.059  0.00  0.00    -0.286 OA
ENDROOT
BRANCH   4   8
ATOM      8  C   UNL d   1     -38.701  13.883  18.342  0.00  0.00     0.000 A 
ATOM      9  C   UNL d   1     -38.657  13.129  17.994  0.00  0.00     0.000 A 
ATOM     10  C   UNL d   1     -38.497  13.053  17.203  0.00  0.00     0.000 A 
ATOM     11  C   UNL d   1     -38.376  13.741  16.745  0.00  0.00     0.000 A 
ATOM     12  C   UNL d   1     -38.421  14.474  17.096  0.00  0.00     0.000 A 
ATOM     13  C   UNL d   1     -38.212  13.667  15.935  0.00  0.00     0.000 C 
ATOM     14  C   UNL d   1     -38.583  14.548  17.892  0.00  0.00     0.000 A 
ENDBRANCH   4   8
BRANCH   3  15
ATOM     15  C   UNL d   1     -40.403  14.738  20.469  0.00  0.00     0.000 A 
ATOM     16  C   UNL d   1     -40.431  15.564  20.512  0.00  0.00     0.000 A 
ATOM     17  C   UNL d   1     -41.130  15.922  20.773  0.00  0.00     0.000 A 
ATOM     18  C   UNL d   1     -41.775  15.486  20.985  0.00  0.00     0.000 A 
ATOM     19  C   UNL d   1     -41.736  14.649  20.938  0.00  0.00     0.000 A 
ATOM     20  C   UNL d   1     -41.045  14.282  20.679  0.00  0.00     0.000 A 
ENDBRANCH   3  15
BRANCH   1  21
ATOM     21  C   UNL d   1     -39.336  14.139  21.575  0.00  0.00     0.303 C 
ATOM     22  O   UNL d   1     -39.858  13.611  21.938  0.00  0.00    -0.259 OA
BRANCH  21  23
ATOM     23  O   UNL d   1     -38.976  14.734  22.027  0.00  0.00    -0.271 OA
BRANCH  23  24
ATOM     24  C   UNL d   1     -38.880  14.633  22.840  0.00  0.00     0.126 C 
ATOM     25  C   UNL d   1     -38.520  15.225  23.288  0.00  0.00     0.029 C 
ENDBRANCH  23  24
ENDBRANCH  21  23
ENDBRANCH   1  21
TORSDOF 5
ENDMDL
MODEL 6
REMARK VINA RESULT:      -6.3      1.421      2.586
REMARK  5 active torsions:
REMARK  status: ('A' for Active; 'I' for Inactive)
REMARK    1  A    between atoms: C_7  and  C_1 
REMARK    2  A    between atoms: C_10  and  C_3 
REMARK    3  A    between atoms: C_8  and  C_4 
REMARK    4  A    between atoms: O_14  and  C_7 
REMARK    5  A    between atoms: C_20  and  O_14 
ROOT
ATOM      1  C   UNL d   1     -48.753  12.519  23.054  0.00  0.00     0.102 A 
ATOM      2  C   UNL d   1     -48.732  11.712  23.251  0.00  0.00     0.201 A 
ATOM      3  C   UNL d   1     -48.054  12.952  22.965  0.00  0.00     0.008 A 
ATOM      4  C   UNL d   1     -47.296  11.791  23.266  0.00  0.00     0.003 A 
ATOM      5  C   UNL d   1     -47.995  11.358  23.355  0.00  0.00     0.042 A 
ATOM      6  C   UNL d   1     -47.327  12.582  23.073  0.00  0.00     0.000 A 
ATOM      7  O   UNL d   1     -49.423  11.284  23.339  0.00  0.00    -0.286 OA
ENDROOT
BRANCH   4   8
ATOM      8  C   UNL d   1     -46.565  11.413  23.376  0.00  0.00     0.000 A 
ATOM      9  C   UNL d   1     -45.862  11.842  23.263  0.00  0.00     0.000 A 
ATOM     10  C   UNL d   1     -45.142  11.482  23.368  0.00  0.00     0.000 A 
ATOM     11  C   UNL d   1     -45.119  10.678  23.590  0.00  0.00     0.000 A 
ATOM     12  C   UNL d   1     -45.814  10.267  23.697  0.00  0.00     0.000 A 
ATOM     13  C   UNL d   1     -44.385  10.306  23.697  0.00  0.00     0.000 C 
ATOM     14  C   UNL d   1     -46.536  10.631  23.592  0.00  0.00     0.000 A 
ENDBRANCH   4   8
BRANCH   3  15
ATOM     15  C   UNL d   1     -48.089  13.751  22.770  0.00  0.00     0.000 A 
ATOM     16  C   UNL d   1     -48.285  14.299  23.358  0.00  0.00     0.000 A 
ATOM     17  C   UNL d   1     -48.318  15.101  23.155  0.00  0.00     0.000 A 
ATOM     18  C   UNL d   1     -48.166  15.353  22.404  0.00  0.00     0.000 A 
ATOM     19  C   UNL d   1     -47.969  14.788  21.815  0.00  0.00     0.000 A 
ATOM     20  C   UNL d   1     -47.932  13.987  22.007  0.00  0.00     0.000 A 
ENDBRANCH   3  15
BRANCH   1  21
ATOM     21  C   UNL d   1     -49.487  12.894  22.945  0.00  0.00     0.303 C 
ATOM     22  O   UNL d   1     -49.845  13.296  23.573  0.00  0.00    -0.259 OA
BRANCH  21  23
ATOM     23  O   UNL d   1     -49.866  12.868  22.208  0.00  0.00    -0.271 OA
BRANCH  23  24
ATOM     24  C   UNL d   1     -50.689  12.865  22.166  0.00  0.00     0.126 C 
ATOM     25  C   UNL d   1     -51.064  12.879  21.431  0.00  0.00     0.029 C 
ENDBRANCH  23  24
ENDBRANCH  21  23
ENDBRANCH   1  21
TORSDOF 5
ENDMDL
MODEL 7
REMARK VINA RESULT:      -6.2      1.263      2.297
REMARK  5 active torsions:
REMARK  status: ('A' for Active; 'I' for Inactive)
REMARK    1  A    between atoms: C_7  and  C_1 
REMARK    2  A    between atoms: C_10  and  C_3 
REMARK    3  A    between atoms: C_8  and  C_4 
REMARK    4  A    between atoms: O_14  and  C_7 
REMARK    5  A    between atoms: C_20  and  O_14 
ROOT
ATOM      1  C   UNL d   1     -48.915  12.821  22.399  0.00  0.00     0.102 A 
ATOM      2  C   UNL d   1     -48.466  12.140  22.242  0.00  0.00     0.201 A 
ATOM      3  C   UNL d   1     -48.551  13.560  22.478  0.00  0.00     0.008 A 
ATOM      4  C   UNL d   1     -47.285  12.961  22.250  0.00  0.00     0.003 A 
ATOM      5  C   UNL d   1     -47.649  12.222  22.170  0.00  0.00     0.042 A 
ATOM      6  C   UNL d   1     -47.734  13.623  22.403  0.00  0.00     0.000 A 
ATOM      7  O   UNL d   1     -48.825  11.409  22.163  0.00  0.00    -0.286 OA
ENDROOT
BRANCH   4   8
ATOM      8  C   UNL d   1     -46.460  13.020  22.173  0.00  0.00     0.000 A 
ATOM      9  C   UNL d   1     -46.102  12.824  21.449  0.00  0.00     0.000 A 
ATOM     10  C   UNL d   1     -45.296  12.879  21.364  0.00  0.00     0.000 A 
ATOM     11  C   UNL d   1     -44.836  13.135  22.012  0.00  0.00     0.000 A 
ATOM     12  C   UNL d   1     -45.199  13.325  22.716  0.00  0.00     0.000 A 
ATOM     13  C   UNL d   1     -44.013  13.193  21.929  0.00  0.00     0.000 C 
ATOM     14  C   UNL d   1     -46.008  13.269  22.799  0.00  0.00     0.000 A 
ENDBRANCH   4   8
BRANCH   3  15
ATOM     15  C   UNL d   1     -49.008  14.226  22.633  0.00  0.00     0.000 A 
ATOM     16  C   UNL d   1     -49.110  14.469  23.417  0.00  0.00     0.000 A 
ATOM     17  C   UNL d   1     -49.571  15.141  23.565  0.00  0.00     0.000 A 
ATOM     18  C   UNL d   1     -49.917  15.557  22.967  0.00  0.00     0.000 A 
ATOM     19  C   UNL d   1     -49.807  15.300  22.175  0.00  0.00     0.000 A 
ATOM     20  C   UNL d   1     -49.350  14.633  22.016  0.00  0.00     0.000 A 
ENDBRANCH   3  15
BRANCH   1  21
ATOM     21  C   UNL d   1     -49.741  12.758  22.475  0.00  0.00     0.303 C 
ATOM     22  O   UNL d   1     -50.234  12.990  21.853  0.00  0.00    -0.259 OA
BRANCH  21  23
ATOM     23  O   UNL d   1     -50.075  12.461  23.174  0.00  0.00    -0.271 OA
BRANCH  23  24
ATOM     24  C   UNL d   1     -50.847  12.170  23.171  0.00  0.00     0.126 C 
ATOM     25  C   UNL d   1     -51.063  11.573  23.698  0.00  0.00     0.029 C 
ENDBRANCH  23  24
ENDBRANCH  21  23
ENDBRANCH   1  21
TORSDOF 5
ENDMDL
