MODEL 1
REMARK VINA RESULT:      18.5      0.000      0.000
REMARK  2 active torsions:
REMARK  status: ('A' for Active; 'I' for Inactive)
REMARK    1  A    between atoms: C_2  and  C_1 
REMARK    2  A    between atoms: N_6  and  C_2 
ROOT
ATOM      1  C   UNL d   1      58.305  49.688  50.552  0.00  0.00     0.047 A 
ATOM      2  C   UNL d   1      58.096  49.708  51.353  0.00  0.00     0.101 A 
ATOM      3  C   UNL d   1      57.606  49.668  50.113  0.00  0.00     0.021 A 
ATOM      4  N   UNL d   1      57.273  49.700  51.405  0.00  0.00    -0.244 NA
ATOM      5  C   UNL d   1      56.971  49.675  50.636  0.00  0.00     0.082 A 
ATOM      6  C   UNL d   1      57.470  49.644  49.306  0.00  0.00     0.002 A 
ATOM      7  C   UNL d   1      56.202  49.658  50.353  0.00  0.00     0.019 A 
ATOM      8  C   UNL d   1      56.698  49.626  49.020  0.00  0.00     0.000 A 
ATOM      9  C   UNL d   1      56.061  49.634  49.548  0.00  0.00     0.002 A 
ENDROOT
BRANCH   1  10
ATOM     10  C   UNL d   1      59.069  49.688  50.242  0.00  0.00     0.122 C 
ATOM     11  S   UNL d   1      59.187  49.708  49.427  0.00  0.00    -0.059 SA
BRANCH  10  12
ATOM     12  N   UNL d   1      59.716  49.669  50.757  0.00  0.00    -0.292 N 
ATOM     13  C   UNL d   1      60.486  49.625  50.452  0.00  0.00     0.108 A 
ATOM     14  C   UNL d   1      61.133  49.606  50.967  0.00  0.00     0.142 A 
ATOM     15  O   UNL d   1      61.009  49.630  51.783  0.00  0.00    -0.300 OA
ATOM     16  C   UNL d   1      60.239  49.674  52.085  0.00  0.00     0.142 A 
ATOM     17  C   UNL d   1      59.594  49.693  51.571  0.00  0.00     0.108 A 
ENDBRANCH  10  12
ENDBRANCH   1  10
TORSDOF 2
ENDMDL
