MODEL 1
REMARK VINA RESULT:      29.7      0.000      0.000
REMARK  2 active torsions:
REMARK  status: ('A' for Active; 'I' for Inactive)
REMARK       I    between atoms: N_3  and  C_1 
REMARK    1  A    between atoms: O_4  and  C_1 
REMARK    2  A    between atoms: C_6  and  O_4 
ROOT
ATOM      1  C   UNL d   1     -58.154 -98.829 -44.202  0.00  0.00     0.105 A 
ATOM      2  C   UNL d   1     -58.907 -98.809 -44.533  0.00  0.00     0.030 A 
ATOM      3  C   UNL d   1     -57.478 -98.816 -44.696  0.00  0.00     0.122 A 
ATOM      4  N   UNL d   1     -58.062 -98.862 -43.377  0.00  0.00    -0.242 NA
ATOM      5  C   UNL d   1     -58.997 -98.776 -45.355  0.00  0.00     0.059 A 
ATOM      6  C   UNL d   1     -57.568 -98.783 -45.511  0.00  0.00     0.027 A 
ATOM      7  C   UNL d   1     -58.320 -98.762 -45.849  0.00  0.00     0.013 A 
ATOM      8 CL   UNL d   1     -59.755 -98.755 -45.694  0.00  0.00    -0.082 Cl
ATOM      9  C   UNL d   1     -59.573 -98.822 -44.047  0.00  0.00     0.004 A 
ATOM     10  C   UNL d   1     -58.728 -98.875 -42.891  0.00  0.00     0.099 A 
ATOM     11  C   UNL d   1     -59.487 -98.855 -43.229  0.00  0.00     0.021 A 
ENDROOT
BRANCH   3  12
ATOM     12  O   UNL d   1     -56.713 -98.836 -44.362  0.00  0.00    -0.257 OA
BRANCH  12  13
ATOM     13  C   UNL d   1     -56.071 -99.157 -44.790  0.00  0.00     0.378 C 
ATOM     14  N   UNL d   1     -55.713 -99.851 -44.549  0.00  0.00    -0.252 N 
ATOM     15  C   UNL d   1     -55.079-100.163 -44.975  0.00  0.00     0.085 A 
ATOM     16  C   UNL d   1     -55.985-100.243 -43.875  0.00  0.00     0.085 A 
ATOM     17  C   UNL d   1     -54.718-100.860 -44.735  0.00  0.00     0.019 A 
ATOM     18  C   UNL d   1     -54.990-101.253 -44.061  0.00  0.00     0.003 A 
ATOM     19  C   UNL d   1     -55.619-100.941 -43.638  0.00  0.00     0.019 A 
ATOM     20  O   UNL d   1     -55.795 -98.759 -45.472  0.00  0.00    -0.237 OA
ENDBRANCH  12  13
ENDBRANCH   3  12
TORSDOF 2
ENDMDL
MODEL 2
REMARK VINA RESULT:      31.7      1.071      1.710
REMARK  2 active torsions:
REMARK  status: ('A' for Active; 'I' for Inactive)
REMARK       I    between atoms: N_3  and  C_1 
REMARK    1  A    between atoms: O_4  and  C_1 
REMARK    2  A    between atoms: C_6  and  O_4 
ROOT
ATOM      1  C   UNL d   1     -58.464 -98.799 -44.404  0.00  0.00     0.105 A 
ATOM      2  C   UNL d   1     -59.192 -98.779 -44.021  0.00  0.00     0.030 A 
ATOM      3  C   UNL d   1     -57.755 -98.821 -43.958  0.00  0.00     0.122 A 
ATOM      4  N   UNL d   1     -58.429 -98.798 -45.234  0.00  0.00    -0.242 NA
ATOM      5  C   UNL d   1     -59.225 -98.780 -43.194  0.00  0.00     0.059 A 
ATOM      6  C   UNL d   1     -57.789 -98.822 -43.138  0.00  0.00     0.027 A 
ATOM      7  C   UNL d   1     -58.516 -98.801 -42.748  0.00  0.00     0.013 A 
ATOM      8 CL   UNL d   1     -59.957 -98.759 -42.804  0.00  0.00    -0.082 Cl
ATOM      9  C   UNL d   1     -59.889 -98.757 -44.460  0.00  0.00     0.004 A 
ATOM     10  C   UNL d   1     -59.126 -98.777 -45.673  0.00  0.00     0.099 A 
ATOM     11  C   UNL d   1     -59.860 -98.756 -45.283  0.00  0.00     0.021 A 
ENDROOT
BRANCH   3  12
ATOM     12  O   UNL d   1     -57.016 -98.842 -44.344  0.00  0.00    -0.257 OA
BRANCH  12  13
ATOM     13  C   UNL d   1     -56.334 -99.110 -43.943  0.00  0.00     0.378 C 
ATOM     14  N   UNL d   1     -55.873 -99.708 -44.255  0.00  0.00    -0.252 N 
ATOM     15  C   UNL d   1     -55.201 -99.969 -43.854  0.00  0.00     0.085 A 
ATOM     16  C   UNL d   1     -56.078-100.053 -44.977  0.00  0.00     0.085 A 
ATOM     17  C   UNL d   1     -54.735-100.570 -44.167  0.00  0.00     0.019 A 
ATOM     18  C   UNL d   1     -54.941-100.915 -44.888  0.00  0.00     0.003 A 
ATOM     19  C   UNL d   1     -55.608-100.654 -45.285  0.00  0.00     0.019 A 
ATOM     20  O   UNL d   1     -56.126 -98.760 -43.211  0.00  0.00    -0.237 OA
ENDBRANCH  12  13
ENDBRANCH   3  12
TORSDOF 2
ENDMDL
