MODEL 1
REMARK VINA RESULT:      25.9      0.000      0.000
REMARK  0 active torsions:
REMARK  status: ('A' for Active; 'I' for Inactive)
ROOT
ATOM      1  C   UNL d   1     -54.835-101.432 -38.892  0.00  0.00     0.191 A 
ATOM      2  S   UNL d   1     -54.878-102.154 -40.143  0.00  0.00     0.289 S 
ATOM      3  N   UNL d   1     -54.862-101.434 -39.720  0.00  0.00    -0.134 NA
ATOM      4  N   UNL d   1     -54.824-102.155 -38.492  0.00  0.00    -0.284 N 
ATOM      5  S   UNL d   1     -54.815-100.840 -38.340  0.00  0.00    -0.048 SA
ATOM      6  C   UNL d   1     -54.792-101.183 -37.597  0.00  0.00     0.048 A 
ATOM      7  C   UNL d   1     -54.797-102.003 -37.693  0.00  0.00     0.072 A 
ATOM      8  C   UNL d   1     -54.866-102.871 -39.731  0.00  0.00     0.137 A 
ATOM      9  C   UNL d   1     -54.766-100.872 -36.836  0.00  0.00     0.007 A 
ATOM     10  C   UNL d   1     -54.840-102.879 -38.911  0.00  0.00     0.096 A 
ATOM     11  O   UNL d   1     -54.894-101.552 -40.700  0.00  0.00    -0.198 OA
ATOM     12  O   UNL d   1     -54.900-102.659 -40.769  0.00  0.00    -0.198 OA
ATOM     13  C   UNL d   1     -54.776-102.509 -36.992  0.00  0.00     0.018 A 
ATOM     14  C   UNL d   1     -54.745-101.359 -36.162  0.00  0.00     0.001 A 
ATOM     15  C   UNL d   1     -54.750-102.160 -36.244  0.00  0.00     0.002 A 
ATOM     16  C   UNL d   1     -54.761-100.029 -36.764  0.00  0.00     0.001 A 
ATOM     17  C   UNL d   1     -54.719-101.006 -35.411  0.00  0.00     0.000 A 
ATOM     18  C   UNL d   1     -54.735 -99.680 -36.017  0.00  0.00     0.000 A 
ATOM     19  C   UNL d   1     -54.714-100.187 -35.316  0.00  0.00     0.000 A 
ENDROOT
TORSDOF 0
ENDMDL
