MODEL 1
REMARK VINA RESULT:     -10.1      0.000      0.000
REMARK  2 active torsions:
REMARK  status: ('A' for Active; 'I' for Inactive)
REMARK       I    between atoms: N_2  and  C_1 
REMARK       I    between atoms: N_3  and  C_1 
REMARK    1  A    between atoms: C_6  and  N_2 
REMARK    2  A    between atoms: C_5  and  N_3 
ROOT
ATOM      1  C   UNL d   1      53.033  32.517  53.145  0.00  0.00     0.369 C 
ATOM      2  N   UNL d   1      53.722  32.220  53.455  0.00  0.00    -0.191 NA
ATOM      3  N   UNL d   1      52.733  33.218  53.421  0.00  0.00    -0.191 NA
ATOM      4  O   UNL d   1      52.582  32.132  52.527  0.00  0.00    -0.242 OA
ENDROOT
BRANCH   2   5
ATOM      5  C   UNL d   1      54.108  32.632  54.044  0.00  0.00     0.086 A 
ATOM      6  C   UNL d   1      54.713  33.151  53.852  0.00  0.00     0.019 A 
ATOM      7  C   UNL d   1      55.118  33.580  54.437  0.00  0.00     0.002 A 
ATOM      8  C   UNL d   1      54.903  33.478  55.237  0.00  0.00     0.000 A 
ATOM      9  C   UNL d   1      54.288  32.951  55.428  0.00  0.00     0.002 A 
ATOM     10  C   UNL d   1      53.894  32.531  54.836  0.00  0.00     0.019 A 
ENDBRANCH   2   5
BRANCH   3  11
ATOM     11  C   UNL d   1      52.043  33.518  53.112  0.00  0.00     0.086 A 
ATOM     12  C   UNL d   1      52.069  34.036  52.478  0.00  0.00     0.019 A 
ATOM     13  C   UNL d   1      51.374  34.346  52.159  0.00  0.00     0.002 A 
ATOM     14  C   UNL d   1      50.638  34.128  52.486  0.00  0.00     0.000 A 
ATOM     15  C   UNL d   1      50.614  33.606  53.125  0.00  0.00     0.002 A 
ATOM     16  C   UNL d   1      51.316  33.303  53.435  0.00  0.00     0.019 A 
ENDBRANCH   3  11
TORSDOF 2
ENDMDL
MODEL 2
REMARK VINA RESULT:      -9.0      0.623      3.459
REMARK  2 active torsions:
REMARK  status: ('A' for Active; 'I' for Inactive)
REMARK       I    between atoms: N_2  and  C_1 
REMARK       I    between atoms: N_3  and  C_1 
REMARK    1  A    between atoms: C_6  and  N_2 
REMARK    2  A    between atoms: C_5  and  N_3 
ROOT
ATOM      1  C   UNL d   1      53.139  32.616  53.281  0.00  0.00     0.369 C 
ATOM      2  N   UNL d   1      52.511  32.538  52.773  0.00  0.00    -0.191 NA
ATOM      3  N   UNL d   1      53.167  33.239  53.798  0.00  0.00    -0.191 NA
ATOM      4  O   UNL d   1      53.797  32.069  53.314  0.00  0.00    -0.242 OA
ENDROOT
BRANCH   2   5
ATOM      5  C   UNL d   1      51.911  33.090  52.787  0.00  0.00     0.086 A 
ATOM      6  C   UNL d   1      51.954  33.755  52.309  0.00  0.00     0.019 A 
ATOM      7  C   UNL d   1      51.354  34.329  52.309  0.00  0.00     0.002 A 
ATOM      8  C   UNL d   1      50.693  34.225  52.808  0.00  0.00     0.000 A 
ATOM      9  C   UNL d   1      50.653  33.550  53.292  0.00  0.00     0.002 A 
ATOM     10  C   UNL d   1      51.257  32.987  53.282  0.00  0.00     0.019 A 
ENDBRANCH   2   5
BRANCH   3  11
ATOM     11  C   UNL d   1      53.795  33.320  54.309  0.00  0.00     0.086 A 
ATOM     12  C   UNL d   1      53.766  32.974  55.051  0.00  0.00     0.019 A 
ATOM     13  C   UNL d   1      54.398  33.050  55.576  0.00  0.00     0.002 A 
ATOM     14  C   UNL d   1      55.072  33.486  55.348  0.00  0.00     0.000 A 
ATOM     15  C   UNL d   1      55.098  33.834  54.600  0.00  0.00     0.002 A 
ATOM     16  C   UNL d   1      54.460  33.750  54.084  0.00  0.00     0.019 A 
ENDBRANCH   3  11
TORSDOF 2
ENDMDL
MODEL 3
REMARK VINA RESULT:      -8.5      1.678      3.305
REMARK  2 active torsions:
REMARK  status: ('A' for Active; 'I' for Inactive)
REMARK       I    between atoms: N_2  and  C_1 
REMARK       I    between atoms: N_3  and  C_1 
REMARK    1  A    between atoms: C_6  and  N_2 
REMARK    2  A    between atoms: C_5  and  N_3 
ROOT
ATOM      1  C   UNL d   1      53.282  32.450  53.106  0.00  0.00     0.369 C 
ATOM      2  N   UNL d   1      52.946  31.856  52.667  0.00  0.00    -0.191 NA
ATOM      3  N   UNL d   1      53.607  32.286  53.829  0.00  0.00    -0.191 NA
ATOM      4  O   UNL d   1      53.320  33.268  52.853  0.00  0.00    -0.242 OA
ENDROOT
BRANCH   2   5
ATOM      5  C   UNL d   1      52.939  31.095  52.960  0.00  0.00     0.086 A 
ATOM      6  C   UNL d   1      52.256  30.790  53.297  0.00  0.00     0.019 A 
ATOM      7  C   UNL d   1      52.228  30.018  53.601  0.00  0.00     0.002 A 
ATOM      8  C   UNL d   1      52.914  29.543  53.562  0.00  0.00     0.000 A 
ATOM      9  C   UNL d   1      53.605  29.854  53.220  0.00  0.00     0.002 A 
ATOM     10  C   UNL d   1      53.618  30.624  52.922  0.00  0.00     0.019 A 
ENDBRANCH   2   5
BRANCH   3  11
ATOM     11  C   UNL d   1      53.944  32.879  54.272  0.00  0.00     0.086 A 
ATOM     12  C   UNL d   1      53.471  33.376  54.720  0.00  0.00     0.019 A 
ATOM     13  C   UNL d   1      53.804  33.981  55.172  0.00  0.00     0.002 A 
ATOM     14  C   UNL d   1      54.632  34.086  55.171  0.00  0.00     0.000 A 
ATOM     15  C   UNL d   1      55.106  33.585  54.719  0.00  0.00     0.002 A 
ATOM     16  C   UNL d   1      54.762  32.984  54.272  0.00  0.00     0.019 A 
ENDBRANCH   3  11
TORSDOF 2
ENDMDL
MODEL 4
REMARK VINA RESULT:      -8.4      1.658      2.591
REMARK  2 active torsions:
REMARK  status: ('A' for Active; 'I' for Inactive)
REMARK       I    between atoms: N_2  and  C_1 
REMARK       I    between atoms: N_3  and  C_1 
REMARK    1  A    between atoms: C_6  and  N_2 
REMARK    2  A    between atoms: C_5  and  N_3 
ROOT
ATOM      1  C   UNL d   1      53.299  32.388  53.110  0.00  0.00     0.369 C 
ATOM      2  N   UNL d   1      53.544  33.152  53.233  0.00  0.00    -0.191 NA
ATOM      3  N   UNL d   1      53.453  31.819  53.664  0.00  0.00    -0.191 NA
ATOM      4  O   UNL d   1      52.875  32.130  52.412  0.00  0.00    -0.242 OA
ENDROOT
BRANCH   2   5
ATOM      5  C   UNL d   1      53.944  33.340  53.919  0.00  0.00     0.086 A 
ATOM      6  C   UNL d   1      54.762  33.279  53.947  0.00  0.00     0.019 A 
ATOM      7  C   UNL d   1      55.188  33.465  54.635  0.00  0.00     0.002 A 
ATOM      8  C   UNL d   1      54.772  33.720  55.312  0.00  0.00     0.000 A 
ATOM      9  C   UNL d   1      53.943  33.781  55.281  0.00  0.00     0.002 A 
ATOM     10  C   UNL d   1      53.533  33.592  54.590  0.00  0.00     0.019 A 
ENDBRANCH   2   5
BRANCH   3  11
ATOM     11  C   UNL d   1      53.209  31.052  53.543  0.00  0.00     0.086 A 
ATOM     12  C   UNL d   1      53.755  30.441  53.565  0.00  0.00     0.019 A 
ATOM     13  C   UNL d   1      53.517  29.660  53.443  0.00  0.00     0.002 A 
ATOM     14  C   UNL d   1      52.712  29.492  53.297  0.00  0.00     0.000 A 
ATOM     15  C   UNL d   1      52.165  30.110  53.276  0.00  0.00     0.002 A 
ATOM     16  C   UNL d   1      52.415  30.887  53.399  0.00  0.00     0.019 A 
ENDBRANCH   3  11
TORSDOF 2
ENDMDL
MODEL 5
REMARK VINA RESULT:      -8.1      1.701      2.761
REMARK  2 active torsions:
REMARK  status: ('A' for Active; 'I' for Inactive)
REMARK       I    between atoms: N_2  and  C_1 
REMARK       I    between atoms: N_3  and  C_1 
REMARK    1  A    between atoms: C_6  and  N_2 
REMARK    2  A    between atoms: C_5  and  N_3 
ROOT
ATOM      1  C   UNL d   1      54.206  32.614  53.468  0.00  0.00     0.369 C 
ATOM      2  N   UNL d   1      54.378  33.400  53.582  0.00  0.00    -0.191 NA
ATOM      3  N   UNL d   1      53.478  32.326  53.673  0.00  0.00    -0.191 NA
ATOM      4  O   UNL d   1      54.756  32.049  53.135  0.00  0.00    -0.242 OA
ENDROOT
BRANCH   2   5
ATOM      5  C   UNL d   1      53.813  33.892  53.904  0.00  0.00     0.086 A 
ATOM      6  C   UNL d   1      53.278  34.277  53.416  0.00  0.00     0.019 A 
ATOM      7  C   UNL d   1      52.695  34.782  53.724  0.00  0.00     0.002 A 
ATOM      8  C   UNL d   1      52.656  34.899  54.550  0.00  0.00     0.000 A 
ATOM      9  C   UNL d   1      53.201  34.508  55.042  0.00  0.00     0.002 A 
ATOM     10  C   UNL d   1      53.775  34.009  54.722  0.00  0.00     0.019 A 
ENDBRANCH   2   5
BRANCH   3  11
ATOM     11  C   UNL d   1      53.302  31.539  53.559  0.00  0.00     0.086 A 
ATOM     12  C   UNL d   1      52.833  31.312  52.927  0.00  0.00     0.019 A 
ATOM     13  C   UNL d   1      52.649  30.517  52.804  0.00  0.00     0.002 A 
ATOM     14  C   UNL d   1      52.945  29.939  53.330  0.00  0.00     0.000 A 
ATOM     15  C   UNL d   1      53.417  30.172  53.966  0.00  0.00     0.002 A 
ATOM     16  C   UNL d   1      53.594  30.970  54.078  0.00  0.00     0.019 A 
ENDBRANCH   3  11
TORSDOF 2
ENDMDL
