MODEL 1
REMARK VINA RESULT:      42.8      0.000      0.000
REMARK  4 active torsions:
REMARK  status: ('A' for Active; 'I' for Inactive)
REMARK    1  A    between atoms: C_11  and  C_9 
REMARK       I    between atoms: N_17  and  C_11 
REMARK    2  A    between atoms: C_19  and  N_17 
REMARK    3  A    between atoms: C_20  and  C_19 
REMARK    4  A    between atoms: C_21  and  C_20 
ROOT
ATOM      1  C   UNL d   1      13.605  12.763  -2.590  0.00  0.00     0.081 A 
ATOM      2  C   UNL d   1      14.268  13.254  -2.590  0.00  0.00     0.117 A 
ATOM      3  N   UNL d   1      14.778  13.250  -1.937  0.00  0.00    -0.221 NA
ATOM      4  N   UNL d   1      13.961  12.273  -1.301  0.00  0.00    -0.258 N 
ATOM      5  C   UNL d   1      14.625  12.760  -1.292  0.00  0.00     0.151 A 
ATOM      6  C   UNL d   1      13.443  12.267  -1.946  0.00  0.00     0.268 A 
ATOM      7  C   UNL d   1      13.202  12.882  -3.304  0.00  0.00     0.018 A 
ATOM      8  S   UNL d   1      14.273  13.670  -3.295  0.00  0.00    -0.063 SA
ATOM      9  C   UNL d   1      13.617  13.442  -3.737  0.00  0.00     0.089 A 
ATOM     10  C   UNL d   1      15.129  12.760  -0.655  0.00  0.00     0.035 A 
ATOM     11  C   UNL d   1      13.802  11.779  -0.656  0.00  0.00     0.084 A 
ATOM     12  O   UNL d   1      12.785  11.782  -1.951  0.00  0.00    -0.267 OA
ATOM     13  C   UNL d   1      14.319  11.787  -0.015  0.00  0.00     0.019 A 
ATOM     14  C   UNL d   1      14.981  12.277  -0.014  0.00  0.00     0.004 A 
ATOM     15  C   UNL d   1      15.791  13.252  -0.658  0.00  0.00     0.003 C 
ENDROOT
BRANCH   9  16
ATOM     16  C   UNL d   1      13.409  13.724  -4.484  0.00  0.00     0.285 C 
ATOM     17  O   UNL d   1      13.303  13.199  -5.109  0.00  0.00    -0.265 OA
ATOM     18  N   UNL d   1      13.306  14.533  -4.606  0.00  0.00    -0.206 NA
BRANCH  18  19
ATOM     19  C   UNL d   1      13.098  14.815  -5.352  0.00  0.00     0.102 C 
BRANCH  19  20
ATOM     20  C   UNL d   1      12.990  15.610  -5.477  0.00  0.00     0.021 C 
BRANCH  20  21
ATOM     21  C   UNL d   1      13.551  16.051  -5.907  0.00  0.00     0.002 C 
ATOM     22  C   UNL d   1      13.327  16.720  -6.320  0.00  0.00     0.000 C 
ENDBRANCH  20  21
ENDBRANCH  19  20
ENDBRANCH  18  19
ENDBRANCH   9  16
TORSDOF 4
ENDMDL
