MODEL 1
REMARK VINA RESULT:      -9.5      0.000      0.000
REMARK  5 active torsions:
REMARK  status: ('A' for Active; 'I' for Inactive)
REMARK    1  A    between atoms: N_2  and  S_1 
REMARK    2  A    between atoms: C_4  and  S_1 
REMARK    3  A    between atoms: C_3  and  C_6 
REMARK    4  A    between atoms: C_12  and  N_5 
REMARK    5  A    between atoms: O_24  and  C_20 
ROOT
ATOM      1  N   UNL d   1      52.975  34.109  54.236  0.00  0.00    -0.226 N 
ATOM      2  N   UNL d   1      51.703  34.249  53.200  0.00  0.00    -0.301 N 
ATOM      3  C   UNL d   1      52.289  33.665  54.360  0.00  0.00     0.111 A 
ATOM      4  C   UNL d   1      53.022  34.628  53.585  0.00  0.00     0.111 A 
ATOM      5  C   UNL d   1      52.381  34.694  53.069  0.00  0.00     0.100 A 
ATOM      6  C   UNL d   1      51.660  33.739  53.843  0.00  0.00     0.100 A 
ENDROOT
BRANCH   1   7
ATOM      7  S   UNL d   1      53.607  34.044  54.744  0.00  0.00     0.271 S 
ATOM      8  O   UNL d   1      54.247  33.978  55.259  0.00  0.00    -0.200 OA
ATOM      9  O   UNL d   1      53.313  34.660  55.194  0.00  0.00    -0.200 OA
BRANCH   7  10
ATOM     10  C   UNL d   1      53.906  33.422  54.292  0.00  0.00     0.104 A 
ATOM     11  C   UNL d   1      53.650  32.647  54.423  0.00  0.00     0.017 A 
ATOM     12  C   UNL d   1      53.949  32.025  53.971  0.00  0.00     0.072 A 
ATOM     13  C   UNL d   1      54.508  32.172  53.384  0.00  0.00     0.004 A 
ATOM     14  C   UNL d   1      54.772  32.947  53.245  0.00  0.00     0.001 A 
ATOM     15  C   UNL d   1      54.469  33.575  53.701  0.00  0.00     0.013 A 
BRANCH  12  16
ATOM     16  C   UNL d   1      53.690  31.254  54.106  0.00  0.00     0.419 C 
ATOM     17  F   UNL d   1      53.317  30.709  53.560  0.00  0.00    -0.166 F 
ATOM     18  F   UNL d   1      53.723  30.787  54.828  0.00  0.00    -0.166 F 
ATOM     19  F   UNL d   1      53.452  30.549  54.226  0.00  0.00    -0.166 F 
ENDBRANCH  12  16
ENDBRANCH   7  10
ENDBRANCH   1   7
BRANCH   2  20
ATOM     20  C   UNL d   1      51.064  34.315  52.685  0.00  0.00     0.064 A 
ATOM     21  C   UNL d   1      50.328  34.556  52.969  0.00  0.00     0.020 A 
ATOM     22  C   UNL d   1      49.688  34.622  52.453  0.00  0.00     0.026 A 
ATOM     23  C   UNL d   1      49.782  34.447  51.654  0.00  0.00     0.094 A 
ATOM     24  C   UNL d   1      50.524  34.205  51.373  0.00  0.00     0.026 A 
ATOM     25  C   UNL d   1      51.163  34.140  51.891  0.00  0.00     0.020 A 
BRANCH  23  26
ATOM     26  O   UNL d   1      49.144  34.512  51.136  0.00  0.00    -0.328 OA
ATOM     27  C   UNL d   1      48.448  34.895  51.378  0.00  0.00     0.181 C 
ENDBRANCH  23  26
ENDBRANCH   2  20
TORSDOF 5
ENDMDL
MODEL 2
REMARK VINA RESULT:      -9.0      1.984      2.377
REMARK  5 active torsions:
REMARK  status: ('A' for Active; 'I' for Inactive)
REMARK    1  A    between atoms: N_2  and  S_1 
REMARK    2  A    between atoms: C_4  and  S_1 
REMARK    3  A    between atoms: C_3  and  C_6 
REMARK    4  A    between atoms: C_12  and  N_5 
REMARK    5  A    between atoms: O_24  and  C_20 
ROOT
ATOM      1  N   UNL d   1      53.111  32.382  53.150  0.00  0.00    -0.226 N 
ATOM      2  N   UNL d   1      51.771  33.323  52.979  0.00  0.00    -0.301 N 
ATOM      3  C   UNL d   1      53.178  33.147  52.845  0.00  0.00     0.111 A 
ATOM      4  C   UNL d   1      52.362  32.087  53.371  0.00  0.00     0.111 A 
ATOM      5  C   UNL d   1      51.695  32.564  53.283  0.00  0.00     0.100 A 
ATOM      6  C   UNL d   1      52.510  33.610  52.763  0.00  0.00     0.100 A 
ENDROOT
BRANCH   1   7
ATOM      7  S   UNL d   1      53.769  31.913  53.237  0.00  0.00     0.271 S 
ATOM      8  O   UNL d   1      54.437  31.436  53.325  0.00  0.00    -0.200 OA
ATOM      9  O   UNL d   1      53.634  31.581  52.502  0.00  0.00    -0.200 OA
BRANCH   7  10
ATOM     10  C   UNL d   1      53.908  32.245  53.979  0.00  0.00     0.104 A 
ATOM     11  C   UNL d   1      54.426  32.883  54.063  0.00  0.00     0.017 A 
ATOM     12  C   UNL d   1      54.565  33.215  54.806  0.00  0.00     0.072 A 
ATOM     13  C   UNL d   1      54.187  32.912  55.471  0.00  0.00     0.004 A 
ATOM     14  C   UNL d   1      53.665  32.270  55.397  0.00  0.00     0.001 A 
ATOM     15  C   UNL d   1      53.524  31.935  54.647  0.00  0.00     0.013 A 
BRANCH  12  16
ATOM     16  C   UNL d   1      55.082  33.852  54.883  0.00  0.00     0.419 C 
ATOM     17  F   UNL d   1      55.939  33.847  54.925  0.00  0.00    -0.166 F 
ATOM     18  F   UNL d   1      54.907  34.693  54.943  0.00  0.00    -0.166 F 
ATOM     19  F   UNL d   1      55.558  34.432  54.954  0.00  0.00    -0.166 F 
ENDBRANCH  12  16
ENDBRANCH   7  10
ENDBRANCH   1   7
BRANCH   2  20
ATOM     20  C   UNL d   1      51.104  33.799  52.892  0.00  0.00     0.064 A 
ATOM     21  C   UNL d   1      50.708  34.082  53.557  0.00  0.00     0.020 A 
ATOM     22  C   UNL d   1      50.041  34.559  53.469  0.00  0.00     0.026 A 
ATOM     23  C   UNL d   1      49.768  34.751  52.716  0.00  0.00     0.094 A 
ATOM     24  C   UNL d   1      50.169  34.463  52.049  0.00  0.00     0.026 A 
ATOM     25  C   UNL d   1      50.837  33.987  52.140  0.00  0.00     0.020 A 
BRANCH  23  26
ATOM     26  O   UNL d   1      49.101  35.227  52.624  0.00  0.00    -0.328 OA
ATOM     27  C   UNL d   1      48.759  35.597  53.285  0.00  0.00     0.181 C 
ENDBRANCH  23  26
ENDBRANCH   2  20
TORSDOF 5
ENDMDL
MODEL 3
REMARK VINA RESULT:      -8.8      2.364      4.366
REMARK  5 active torsions:
REMARK  status: ('A' for Active; 'I' for Inactive)
REMARK    1  A    between atoms: N_2  and  S_1 
REMARK    2  A    between atoms: C_4  and  S_1 
REMARK    3  A    between atoms: C_3  and  C_6 
REMARK    4  A    between atoms: C_12  and  N_5 
REMARK    5  A    between atoms: O_24  and  C_20 
ROOT
ATOM      1  N   UNL d   1      53.029  33.778  53.644  0.00  0.00    -0.226 N 
ATOM      2  N   UNL d   1      53.149  32.138  53.715  0.00  0.00    -0.301 N 
ATOM      3  C   UNL d   1      52.578  33.353  54.191  0.00  0.00     0.111 A 
ATOM      4  C   UNL d   1      53.546  33.375  53.129  0.00  0.00     0.111 A 
ATOM      5  C   UNL d   1      53.601  32.553  53.169  0.00  0.00     0.100 A 
ATOM      6  C   UNL d   1      52.641  32.539  54.221  0.00  0.00     0.100 A 
ENDROOT
BRANCH   1   7
ATOM      7  S   UNL d   1      52.974  34.589  53.605  0.00  0.00     0.271 S 
ATOM      8  O   UNL d   1      52.919  35.411  53.565  0.00  0.00    -0.200 OA
ATOM      9  O   UNL d   1      53.573  34.660  54.157  0.00  0.00    -0.200 OA
BRANCH   7  10
ATOM     10  C   UNL d   1      52.370  34.521  53.047  0.00  0.00     0.104 A 
ATOM     11  C   UNL d   1      51.578  34.564  53.279  0.00  0.00     0.017 A 
ATOM     12  C   UNL d   1      50.973  34.496  52.722  0.00  0.00     0.072 A 
ATOM     13  C   UNL d   1      51.155  34.384  51.927  0.00  0.00     0.004 A 
ATOM     14  C   UNL d   1      51.949  34.339  51.684  0.00  0.00     0.001 A 
ATOM     15  C   UNL d   1      52.559  34.408  52.246  0.00  0.00     0.013 A 
BRANCH  12  16
ATOM     16  C   UNL d   1      50.186  34.539  52.959  0.00  0.00     0.419 C 
ATOM     17  F   UNL d   1      49.628  33.902  53.095  0.00  0.00    -0.166 F 
ATOM     18  F   UNL d   1      49.708  35.233  53.136  0.00  0.00    -0.166 F 
ATOM     19  F   UNL d   1      49.465  34.576  53.177  0.00  0.00    -0.166 F 
ENDBRANCH  12  16
ENDBRANCH   7  10
ENDBRANCH   1   7
BRANCH   2  20
ATOM     20  C   UNL d   1      53.205  31.317  53.755  0.00  0.00     0.064 A 
ATOM     21  C   UNL d   1      52.829  30.850  53.189  0.00  0.00     0.020 A 
ATOM     22  C   UNL d   1      52.885  30.028  53.229  0.00  0.00     0.026 A 
ATOM     23  C   UNL d   1      53.316  29.673  53.835  0.00  0.00     0.094 A 
ATOM     24  C   UNL d   1      53.692  30.147  54.402  0.00  0.00     0.026 A 
ATOM     25  C   UNL d   1      53.634  30.969  54.359  0.00  0.00     0.020 A 
BRANCH  23  26
ATOM     26  O   UNL d   1      53.374  28.851  53.878  0.00  0.00    -0.328 OA
ATOM     27  C   UNL d   1      53.405  28.474  54.618  0.00  0.00     0.181 C 
ENDBRANCH  23  26
ENDBRANCH   2  20
TORSDOF 5
ENDMDL
MODEL 4
REMARK VINA RESULT:      -8.3      1.855      2.196
REMARK  5 active torsions:
REMARK  status: ('A' for Active; 'I' for Inactive)
REMARK    1  A    between atoms: N_2  and  S_1 
REMARK    2  A    between atoms: C_4  and  S_1 
REMARK    3  A    between atoms: C_3  and  C_6 
REMARK    4  A    between atoms: C_12  and  N_5 
REMARK    5  A    between atoms: O_24  and  C_20 
ROOT
ATOM      1  N   UNL d   1      52.631  32.100  53.154  0.00  0.00    -0.226 N 
ATOM      2  N   UNL d   1      51.445  33.226  52.968  0.00  0.00    -0.301 N 
ATOM      3  C   UNL d   1      52.668  32.642  52.531  0.00  0.00     0.111 A 
ATOM      4  C   UNL d   1      51.991  32.125  53.688  0.00  0.00     0.111 A 
ATOM      5  C   UNL d   1      51.400  32.691  53.590  0.00  0.00     0.100 A 
ATOM      6  C   UNL d   1      52.077  33.199  52.443  0.00  0.00     0.100 A 
ENDROOT
BRANCH   1   7
ATOM      7  S   UNL d   1      53.214  31.541  53.251  0.00  0.00     0.271 S 
ATOM      8  O   UNL d   1      53.805  30.974  53.349  0.00  0.00    -0.200 OA
ATOM      9  O   UNL d   1      52.706  30.960  52.982  0.00  0.00    -0.200 OA
BRANCH   7  10
ATOM     10  C   UNL d   1      53.729  32.125  53.523  0.00  0.00     0.104 A 
ATOM     11  C   UNL d   1      53.753  32.323  54.325  0.00  0.00     0.017 A 
ATOM     12  C   UNL d   1      54.268  32.907  54.597  0.00  0.00     0.072 A 
ATOM     13  C   UNL d   1      54.763  33.300  54.070  0.00  0.00     0.004 A 
ATOM     14  C   UNL d   1      54.746  33.108  53.261  0.00  0.00     0.001 A 
ATOM     15  C   UNL d   1      54.226  32.518  52.986  0.00  0.00     0.013 A 
BRANCH  12  16
ATOM     16  C   UNL d   1      54.289  33.099  55.398  0.00  0.00     0.419 C 
ATOM     17  F   UNL d   1      54.657  32.673  56.045  0.00  0.00    -0.166 F 
ATOM     18  F   UNL d   1      53.947  33.777  55.804  0.00  0.00    -0.166 F 
ATOM     19  F   UNL d   1      54.309  33.272  56.132  0.00  0.00    -0.166 F 
ENDBRANCH  12  16
ENDBRANCH   7  10
ENDBRANCH   1   7
BRANCH   2  20
ATOM     20  C   UNL d   1      50.855  33.792  52.870  0.00  0.00     0.064 A 
ATOM     21  C   UNL d   1      50.472  33.868  52.144  0.00  0.00     0.020 A 
ATOM     22  C   UNL d   1      49.881  34.435  52.046  0.00  0.00     0.026 A 
ATOM     23  C   UNL d   1      49.672  34.926  52.673  0.00  0.00     0.094 A 
ATOM     24  C   UNL d   1      50.060  34.846  53.403  0.00  0.00     0.026 A 
ATOM     25  C   UNL d   1      50.651  34.278  53.497  0.00  0.00     0.020 A 
BRANCH  23  26
ATOM     26  O   UNL d   1      49.081  35.494  52.579  0.00  0.00    -0.328 OA
ATOM     27  C   UNL d   1      48.527  35.623  53.184  0.00  0.00     0.181 C 
ENDBRANCH  23  26
ENDBRANCH   2  20
TORSDOF 5
ENDMDL
MODEL 5
REMARK VINA RESULT:      -7.7      2.413      4.097
REMARK  5 active torsions:
REMARK  status: ('A' for Active; 'I' for Inactive)
REMARK    1  A    between atoms: N_2  and  S_1 
REMARK    2  A    between atoms: C_4  and  S_1 
REMARK    3  A    between atoms: C_3  and  C_6 
REMARK    4  A    between atoms: C_12  and  N_5 
REMARK    5  A    between atoms: O_24  and  C_20 
ROOT
ATOM      1  N   UNL d   1      52.992  33.451  53.207  0.00  0.00    -0.226 N 
ATOM      2  N   UNL d   1      53.032  31.822  53.441  0.00  0.00    -0.301 N 
ATOM      3  C   UNL d   1      52.346  33.065  53.550  0.00  0.00     0.111 A 
ATOM      4  C   UNL d   1      53.664  33.012  52.980  0.00  0.00     0.111 A 
ATOM      5  C   UNL d   1      53.678  32.196  53.100  0.00  0.00     0.100 A 
ATOM      6  C   UNL d   1      52.371  32.256  53.664  0.00  0.00     0.100 A 
ENDROOT
BRANCH   1   7
ATOM      7  S   UNL d   1      52.978  34.255  53.089  0.00  0.00     0.271 S 
ATOM      8  O   UNL d   1      52.964  35.071  52.969  0.00  0.00    -0.200 OA
ATOM      9  O   UNL d   1      52.741  34.141  52.315  0.00  0.00    -0.200 OA
BRANCH   7  10
ATOM     10  C   UNL d   1      53.217  34.374  53.869  0.00  0.00     0.104 A 
ATOM     11  C   UNL d   1      53.992  34.206  54.101  0.00  0.00     0.017 A 
ATOM     12  C   UNL d   1      54.231  34.325  54.882  0.00  0.00     0.072 A 
ATOM     13  C   UNL d   1      53.697  34.613  55.438  0.00  0.00     0.004 A 
ATOM     14  C   UNL d   1      52.916  34.784  55.215  0.00  0.00     0.001 A 
ATOM     15  C   UNL d   1      52.674  34.664  54.427  0.00  0.00     0.013 A 
BRANCH  12  16
ATOM     16  C   UNL d   1      55.006  34.156  55.107  0.00  0.00     0.419 C 
ATOM     17  F   UNL d   1      55.728  34.569  54.901  0.00  0.00    -0.166 F 
ATOM     18  F   UNL d   1      55.301  33.521  55.609  0.00  0.00    -0.166 F 
ATOM     19  F   UNL d   1      55.715  34.004  55.311  0.00  0.00    -0.166 F 
ENDBRANCH  12  16
ENDBRANCH   7  10
ENDBRANCH   1   7
BRANCH   2  20
ATOM     20  C   UNL d   1      53.046  31.007  53.561  0.00  0.00     0.064 A 
ATOM     21  C   UNL d   1      52.695  30.502  53.013  0.00  0.00     0.020 A 
ATOM     22  C   UNL d   1      52.709  29.686  53.133  0.00  0.00     0.026 A 
ATOM     23  C   UNL d   1      53.075  29.374  53.801  0.00  0.00     0.094 A 
ATOM     24  C   UNL d   1      53.428  29.886  54.351  0.00  0.00     0.026 A 
ATOM     25  C   UNL d   1      53.412  30.702  54.228  0.00  0.00     0.020 A 
BRANCH  23  26
ATOM     26  O   UNL d   1      53.091  28.559  53.925  0.00  0.00    -0.328 OA
ATOM     27  C   UNL d   1      53.437  28.249  54.614  0.00  0.00     0.181 C 
ENDBRANCH  23  26
ENDBRANCH   2  20
TORSDOF 5
ENDMDL
MODEL 6
REMARK VINA RESULT:      -7.7      2.715      4.122
REMARK  5 active torsions:
REMARK  status: ('A' for Active; 'I' for Inactive)
REMARK    1  A    between atoms: N_2  and  S_1 
REMARK    2  A    between atoms: C_4  and  S_1 
REMARK    3  A    between atoms: C_3  and  C_6 
REMARK    4  A    between atoms: C_12  and  N_5 
REMARK    5  A    between atoms: O_24  and  C_20 
ROOT
ATOM      1  N   UNL d   1      54.443  33.184  54.509  0.00  0.00    -0.226 N 
ATOM      2  N   UNL d   1      53.790  31.754  54.019  0.00  0.00    -0.301 N 
ATOM      3  C   UNL d   1      54.580  32.907  53.742  0.00  0.00     0.111 A 
ATOM      4  C   UNL d   1      53.973  32.737  55.034  0.00  0.00     0.111 A 
ATOM      5  C   UNL d   1      53.649  32.022  54.782  0.00  0.00     0.100 A 
ATOM      6  C   UNL d   1      54.254  32.197  53.504  0.00  0.00     0.100 A 
ENDROOT
BRANCH   1   7
ATOM      7  S   UNL d   1      54.763  33.889  54.757  0.00  0.00     0.271 S 
ATOM      8  O   UNL d   1      55.088  34.604  55.008  0.00  0.00    -0.200 OA
ATOM      9  O   UNL d   1      55.485  33.525  54.873  0.00  0.00    -0.200 OA
BRANCH   7  10
ATOM     10  C   UNL d   1      54.035  34.260  54.641  0.00  0.00     0.104 A 
ATOM     11  C   UNL d   1      53.765  34.425  53.877  0.00  0.00     0.017 A 
ATOM     12  C   UNL d   1      53.037  34.796  53.761  0.00  0.00     0.072 A 
ATOM     13  C   UNL d   1      52.573  35.005  54.408  0.00  0.00     0.004 A 
ATOM     14  C   UNL d   1      52.836  34.843  55.179  0.00  0.00     0.001 A 
ATOM     15  C   UNL d   1      53.570  34.469  55.296  0.00  0.00     0.013 A 
BRANCH  12  16
ATOM     16  C   UNL d   1      52.773  34.957  52.998  0.00  0.00     0.419 C 
ATOM     17  F   UNL d   1      53.093  35.508  52.423  0.00  0.00    -0.166 F 
ATOM     18  F   UNL d   1      52.107  34.620  52.569  0.00  0.00    -0.166 F 
ATOM     19  F   UNL d   1      52.534  35.108  52.299  0.00  0.00    -0.166 F 
ENDBRANCH  12  16
ENDBRANCH   7  10
ENDBRANCH   1   7
BRANCH   2  20
ATOM     20  C   UNL d   1      53.466  31.040  53.767  0.00  0.00     0.064 A 
ATOM     21  C   UNL d   1      52.954  31.023  53.122  0.00  0.00     0.020 A 
ATOM     22  C   UNL d   1      52.629  30.307  52.871  0.00  0.00     0.026 A 
ATOM     23  C   UNL d   1      52.817  29.609  53.264  0.00  0.00     0.094 A 
ATOM     24  C   UNL d   1      53.333  29.630  53.914  0.00  0.00     0.026 A 
ATOM     25  C   UNL d   1      53.656  30.348  54.162  0.00  0.00     0.020 A 
BRANCH  23  26
ATOM     26  O   UNL d   1      52.494  28.891  53.015  0.00  0.00    -0.328 OA
ATOM     27  C   UNL d   1      52.594  28.208  53.477  0.00  0.00     0.181 C 
ENDBRANCH  23  26
ENDBRANCH   2  20
TORSDOF 5
ENDMDL
