MODEL 1
REMARK VINA RESULT:      24.7      0.000      0.000
REMARK  8 active torsions:
REMARK  status: ('A' for Active; 'I' for Inactive)
REMARK    1  A    between atoms: N_2  and  C_1 
REMARK    2  A    between atoms: N_3  and  C_1 
REMARK    3  A    between atoms: C_6  and  C_1 
REMARK       I    between atoms: C_4  and  N_2 
REMARK       I    between atoms: C_5  and  N_3 
REMARK    4  A    between atoms: O_11  and  C_4 
REMARK    5  A    between atoms: O_12  and  C_5 
REMARK    6  A    between atoms: C_10  and  C_6 
REMARK    7  A    between atoms: C_15  and  O_11 
REMARK    8  A    between atoms: C_16  and  O_12 
ROOT
ATOM      1  C   UNL d   1      13.609  12.794  -2.723  0.00  0.00     0.211 C 
ENDROOT
BRANCH   1   2
ATOM      2  N   UNL d   1      14.203  13.350  -2.666  0.00  0.00    -0.163 NA
ATOM      3  C   UNL d   1      14.060  14.129  -2.883  0.00  0.00     0.394 C 
ATOM      4  O   UNL d   1      13.320  14.370  -3.162  0.00  0.00    -0.236 OA
BRANCH   3   5
ATOM      5  O   UNL d   1      14.660  14.691  -2.825  0.00  0.00    -0.256 OA
BRANCH   5   6
ATOM      6  C   UNL d   1      14.470  15.499  -2.734  0.00  0.00     0.128 C 
ATOM      7  C   UNL d   1      14.638  15.892  -2.029  0.00  0.00     0.029 C 
ENDBRANCH   5   6
ENDBRANCH   3   5
ENDBRANCH   1   2
BRANCH   1   8
ATOM      8  N   UNL d   1      13.131  12.741  -3.415  0.00  0.00    -0.163 NA
ATOM      9  C   UNL d   1      13.331  12.236  -4.033  0.00  0.00     0.394 C 
ATOM     10  O   UNL d   1      14.008  11.783  -3.960  0.00  0.00    -0.236 OA
BRANCH   9  11
ATOM     11  O   UNL d   1      12.854  12.185  -4.720  0.00  0.00    -0.256 OA
BRANCH  11  12
ATOM     12  C   UNL d   1      13.144  11.894  -5.250  0.00  0.00     0.128 C 
ATOM     13  C   UNL d   1      13.335  12.401  -5.905  0.00  0.00     0.029 C 
ENDBRANCH  11  12
ENDBRANCH   9  11
ENDBRANCH   1   8
BRANCH   1  14
ATOM     14  C   UNL d   1      13.468  12.266  -2.091  0.00  0.00     0.231 C 
ATOM     15  O   UNL d   1      12.798  11.782  -2.099  0.00  0.00    -0.283 OA
BRANCH  14  16
ATOM     16  C   UNL d   1      14.003  12.220  -1.438  0.00  0.00     0.042 A 
ATOM     17  C   UNL d   1      14.779  11.981  -1.565  0.00  0.00     0.003 A 
ATOM     18  C   UNL d   1      15.310  11.931  -0.941  0.00  0.00     0.000 A 
ATOM     19  C   UNL d   1      15.057  12.128  -0.161  0.00  0.00     0.000 A 
ATOM     20  C   UNL d   1      14.286  12.363  -0.047  0.00  0.00     0.000 A 
ATOM     21  C   UNL d   1      13.757  12.411  -0.679  0.00  0.00     0.003 A 
ENDBRANCH  14  16
ENDBRANCH   1  14
TORSDOF 8
ENDMDL
