MODEL 1
REMARK VINA RESULT:      23.9      0.000      0.000
REMARK  4 active torsions:
REMARK  status: ('A' for Active; 'I' for Inactive)
REMARK    1  A    between atoms: C_11  and  C_3 
REMARK    2  A    between atoms: N_10  and  C_4 
REMARK    3  A    between atoms: C_13  and  N_10 
REMARK    4  A    between atoms: C_14  and  C_13 
ROOT
ATOM      1  C   UNL d   1      45.391 -14.904  44.324  0.00  0.00     0.167 A 
ATOM      2  N   UNL d   1      45.891 -15.552  44.419  0.00  0.00    -0.195 N 
ATOM      3  C   UNL d   1      45.842 -14.278  44.051  0.00  0.00     0.057 A 
ATOM      4  C   UNL d   1      45.590 -16.268  44.690  0.00  0.00     0.167 A 
ATOM      5  N   UNL d   1      46.645 -15.320  44.204  0.00  0.00    -0.161 NA
ATOM      6  N   UNL d   1      44.590 -14.971  44.500  0.00  0.00    -0.227 NA
ATOM      7  C   UNL d   1      44.783 -16.334  44.866  0.00  0.00     0.058 A 
ATOM      8  C   UNL d   1      46.620 -14.543  43.978  0.00  0.00     0.124 A 
ATOM      9  C   UNL d   1      44.289 -15.693  44.772  0.00  0.00     0.086 A 
ATOM     10  C   UNL d   1      43.488 -15.782  44.954  0.00  0.00     0.021 C 
ENDROOT
BRANCH   4  11
ATOM     11  N   UNL d   1      46.089 -16.916  44.785  0.00  0.00    -0.224 NA
BRANCH  11  12
ATOM     12  C   UNL d   1      45.774 -17.674  44.837  0.00  0.00     0.120 C 
BRANCH  12  13
ATOM     13  C   UNL d   1      46.054 -18.277  44.335  0.00  0.00     0.101 A 
ATOM     14  N   UNL d   1      46.207 -18.117  43.536  0.00  0.00    -0.242 NA
ATOM     15  C   UNL d   1      46.483 -18.710  43.043  0.00  0.00     0.099 A 
ATOM     16  C   UNL d   1      46.610 -19.473  43.339  0.00  0.00     0.021 A 
ATOM     17  C   UNL d   1      46.457 -19.630  44.134  0.00  0.00     0.003 A 
ATOM     18  C   UNL d   1      46.178 -19.031  44.633  0.00  0.00     0.021 A 
ENDBRANCH  12  13
ENDBRANCH  11  12
ENDBRANCH   4  11
BRANCH   3  19
ATOM     19  C   UNL d   1      45.496 -13.542  43.900  0.00  0.00     0.004 A 
ATOM     20  C   UNL d   1      44.831 -13.501  43.409  0.00  0.00     0.000 A 
ATOM     21  C   UNL d   1      44.482 -12.774  43.255  0.00  0.00     0.000 A 
ATOM     22  C   UNL d   1      44.795 -12.081  43.591  0.00  0.00     0.000 A 
ATOM     23  C   UNL d   1      45.457 -12.131  44.079  0.00  0.00     0.000 A 
ATOM     24  C   UNL d   1      45.806 -12.863  44.233  0.00  0.00     0.000 A 
ENDBRANCH   3  19
TORSDOF 4
ENDMDL
