MODEL 1
REMARK VINA RESULT:      25.6      0.000      0.000
REMARK  2 active torsions:
REMARK  status: ('A' for Active; 'I' for Inactive)
REMARK    1  A    between atoms: C_6  and  C_1 
REMARK       I    between atoms: N_12  and  C_6 
REMARK    2  A    between atoms: O_15  and  C_13 
ROOT
ATOM      1  C   UNL d   1     -51.823  25.299  33.352  0.00  0.00     0.101 A 
ATOM      2  C   UNL d   1     -51.124  24.874  33.404  0.00  0.00     0.208 A 
ATOM      3  C   UNL d   1     -51.796  26.124  33.321  0.00  0.00     0.011 A 
ATOM      4  O   UNL d   1     -50.389  25.265  33.426  0.00  0.00    -0.288 OA
ATOM      5  C   UNL d   1     -51.059  26.511  33.343  0.00  0.00     0.025 A 
ATOM      6  C   UNL d   1     -50.378  26.093  33.393  0.00  0.00     0.102 A 
ATOM      7  N   UNL d   1     -51.165  24.064  33.434  0.00  0.00    -0.121 N 
ATOM      8  C   UNL d   1     -51.057  27.341  33.310  0.00  0.00     0.026 A 
ATOM      9  C   UNL d   1     -49.633  26.464  33.416  0.00  0.00     0.027 A 
ATOM     10  C   UNL d   1     -50.310  27.714  33.333  0.00  0.00     0.094 A 
ATOM     11  C   UNL d   1     -49.626  27.295  33.384  0.00  0.00     0.026 A 
ENDROOT
BRANCH   1  12
ATOM     12  C   UNL d   1     -52.544  24.901  33.331  0.00  0.00     0.283 C 
ATOM     13  O   UNL d   1     -53.208  25.295  33.314  0.00  0.00    -0.265 OA
ATOM     14  N   UNL d   1     -52.596  24.084  33.328  0.00  0.00    -0.205 NA
ATOM     15  C   UNL d   1     -53.318  23.704  33.308  0.00  0.00     0.123 C 
ENDBRANCH   1  12
BRANCH  10  16
ATOM     16  O   UNL d   1     -50.224  28.492  33.306  0.00  0.00    -0.328 OA
ATOM     17  C   UNL d   1     -50.825  29.093  33.319  0.00  0.00     0.181 C 
ENDBRANCH  10  16
TORSDOF 2
ENDMDL
MODEL 2
REMARK VINA RESULT:      27.1      0.983      1.831
REMARK  2 active torsions:
REMARK  status: ('A' for Active; 'I' for Inactive)
REMARK    1  A    between atoms: C_6  and  C_1 
REMARK       I    between atoms: N_12  and  C_6 
REMARK    2  A    between atoms: O_15  and  C_13 
ROOT
ATOM      1  C   UNL d   1     -51.101  24.821  33.499  0.00  0.00     0.101 A 
ATOM      2  C   UNL d   1     -51.917  24.891  33.463  0.00  0.00     0.208 A 
ATOM      3  C   UNL d   1     -50.634  25.502  33.482  0.00  0.00     0.011 A 
ATOM      4  O   UNL d   1     -52.278  25.639  33.410  0.00  0.00    -0.288 OA
ATOM      5  C   UNL d   1     -50.999  26.249  33.428  0.00  0.00     0.025 A 
ATOM      6  C   UNL d   1     -51.796  26.313  33.394  0.00  0.00     0.102 A 
ATOM      7  N   UNL d   1     -52.364  24.214  33.481  0.00  0.00    -0.121 N 
ATOM      8  C   UNL d   1     -50.509  26.919  33.413  0.00  0.00     0.026 A 
ATOM      9  C   UNL d   1     -52.177  27.051  33.340  0.00  0.00     0.027 A 
ATOM     10  C   UNL d   1     -50.890  27.660  33.359  0.00  0.00     0.094 A 
ATOM     11  C   UNL d   1     -51.690  27.725  33.324  0.00  0.00     0.026 A 
ENDROOT
BRANCH   1  12
ATOM     12  C   UNL d   1     -50.755  24.076  33.552  0.00  0.00     0.283 C 
ATOM     13  O   UNL d   1     -51.191  23.449  33.669  0.00  0.00    -0.265 OA
ATOM     14  N   UNL d   1     -49.948  23.958  33.484  0.00  0.00    -0.205 NA
ATOM     15  C   UNL d   1     -49.621  23.213  33.538  0.00  0.00     0.123 C 
ENDBRANCH   1  12
BRANCH  10  16
ATOM     16  O   UNL d   1     -50.498  28.338  33.339  0.00  0.00    -0.328 OA
ATOM     17  C   UNL d   1     -49.660  28.468  33.392  0.00  0.00     0.181 C 
ENDBRANCH  10  16
TORSDOF 2
ENDMDL
MODEL 3
REMARK VINA RESULT:      27.9      1.944      2.510
REMARK  2 active torsions:
REMARK  status: ('A' for Active; 'I' for Inactive)
REMARK    1  A    between atoms: C_6  and  C_1 
REMARK       I    between atoms: N_12  and  C_6 
REMARK    2  A    between atoms: O_15  and  C_13 
ROOT
ATOM      1  C   UNL d   1     -52.448  24.463  33.575  0.00  0.00     0.101 A 
ATOM      2  C   UNL d   1     -52.417  23.643  33.565  0.00  0.00     0.208 A 
ATOM      3  C   UNL d   1     -51.747  24.896  33.525  0.00  0.00     0.011 A 
ATOM      4  O   UNL d   1     -51.689  23.246  33.505  0.00  0.00    -0.288 OA
ATOM      5  C   UNL d   1     -51.020  24.494  33.465  0.00  0.00     0.025 A 
ATOM      6  C   UNL d   1     -50.993  23.695  33.456  0.00  0.00     0.102 A 
ATOM      7  N   UNL d   1     -53.114  23.230  33.615  0.00  0.00    -0.121 N 
ATOM      8  C   UNL d   1     -50.329  24.952  33.416  0.00  0.00     0.026 A 
ATOM      9  C   UNL d   1     -50.276  23.278  33.396  0.00  0.00     0.027 A 
ATOM     10  C   UNL d   1     -49.607  24.535  33.356  0.00  0.00     0.094 A 
ATOM     11  C   UNL d   1     -49.581  23.731  33.347  0.00  0.00     0.026 A 
ENDROOT
BRANCH   1  12
ATOM     12  C   UNL d   1     -53.175  24.845  33.635  0.00  0.00     0.283 C 
ATOM     13  O   UNL d   1     -53.762  24.512  34.010  0.00  0.00    -0.265 OA
ATOM     14  N   UNL d   1     -53.314  25.582  33.307  0.00  0.00    -0.205 NA
ATOM     15  C   UNL d   1     -54.041  25.948  33.375  0.00  0.00     0.123 C 
ENDBRANCH   1  12
BRANCH  10  16
ATOM     16  O   UNL d   1     -48.913  24.893  33.306  0.00  0.00    -0.328 OA
ATOM     17  C   UNL d   1     -48.743  25.725  33.321  0.00  0.00     0.181 C 
ENDBRANCH  10  16
TORSDOF 2
ENDMDL
