MODEL 1
REMARK VINA RESULT:      -6.0      0.000      0.000
REMARK  4 active torsions:
REMARK  status: ('A' for Active; 'I' for Inactive)
REMARK    1  A    between atoms: N_2  and  C_1 
REMARK       I    between atoms: C_3  and  N_2 
REMARK    2  A    between atoms: C_6  and  C_3 
REMARK    3  A    between atoms: C_14  and  C_7 
REMARK    4  A    between atoms: C_15  and  C_14 
ROOT
ATOM      1  C   UNL d   1     -41.730-123.244 -51.565  0.00  0.00     0.197 A 
ATOM      2  N   UNL d   1     -41.405-123.797 -51.993  0.00  0.00    -0.219 NA
ATOM      3  S   UNL d   1     -41.688-122.539 -51.984  0.00  0.00    -0.047 SA
ATOM      4  C   UNL d   1     -41.320-122.688 -52.692  0.00  0.00     0.051 A 
ATOM      5  C   UNL d   1     -41.139-123.487 -52.699  0.00  0.00     0.108 A 
ENDROOT
BRANCH   1   6
ATOM      6  N   UNL d   1     -42.060-123.405 -50.791  0.00  0.00    -0.182 NA
ATOM      7  C   UNL d   1     -41.756-123.008 -50.138  0.00  0.00     0.287 C 
ATOM      8  O   UNL d   1     -41.141-122.462 -50.232  0.00  0.00    -0.265 OA
BRANCH   7   9
ATOM      9  C   UNL d   1     -42.067-123.160 -49.412  0.00  0.00     0.087 A 
ATOM     10  S   UNL d   1     -41.696-123.510 -48.757  0.00  0.00    -0.082 SA
ATOM     11  C   UNL d   1     -42.215-123.547 -48.169  0.00  0.00     0.036 A 
ATOM     12  C   UNL d   1     -42.949-123.209 -48.453  0.00  0.00     0.008 A 
ATOM     13  C   UNL d   1     -42.808-122.988 -49.217  0.00  0.00     0.012 A 
ENDBRANCH   7   9
ENDBRANCH   1   6
BRANCH   4  14
ATOM     14  C   UNL d   1     -41.123-122.226 -53.326  0.00  0.00     0.008 C 
BRANCH  14  15
ATOM     15  C   UNL d   1     -41.597-122.231 -54.015  0.00  0.00     0.001 A 
ATOM     16  C   UNL d   1     -42.209-121.670 -54.104  0.00  0.00     0.002 A 
ATOM     17  C   UNL d   1     -42.686-121.668 -54.788  0.00  0.00     0.030 A 
ATOM     18  C   UNL d   1     -42.554-122.221 -55.378  0.00  0.00     0.140 A 
ATOM     19  C   UNL d   1     -41.932-122.800 -55.299  0.00  0.00     0.030 A 
ATOM     20  F   UNL d   1     -42.943-122.289 -56.034  0.00  0.00    -0.204 F 
ATOM     21  C   UNL d   1     -41.465-122.789 -54.612  0.00  0.00     0.002 A 
ENDBRANCH  14  15
ENDBRANCH   4  14
TORSDOF 4
ENDMDL
MODEL 2
REMARK VINA RESULT:      -3.3      2.112      4.893
REMARK  4 active torsions:
REMARK  status: ('A' for Active; 'I' for Inactive)
REMARK    1  A    between atoms: N_2  and  C_1 
REMARK       I    between atoms: C_3  and  N_2 
REMARK    2  A    between atoms: C_6  and  C_3 
REMARK    3  A    between atoms: C_14  and  C_7 
REMARK    4  A    between atoms: C_15  and  C_14 
ROOT
ATOM      1  C   UNL d   1     -41.314-122.533 -52.414  0.00  0.00     0.197 A 
ATOM      2  N   UNL d   1     -41.198-123.285 -52.284  0.00  0.00    -0.219 NA
ATOM      3  S   UNL d   1     -41.319-122.147 -51.690  0.00  0.00    -0.047 SA
ATOM      4  C   UNL d   1     -41.199-122.700 -51.108  0.00  0.00     0.051 A 
ATOM      5  C   UNL d   1     -41.123-123.424 -51.484  0.00  0.00     0.108 A 
ENDROOT
BRANCH   1   6
ATOM      6  N   UNL d   1     -41.413-122.221 -53.205  0.00  0.00    -0.182 NA
ATOM      7  C   UNL d   1     -41.863-122.646 -53.747  0.00  0.00     0.287 C 
ATOM      8  O   UNL d   1     -42.211-123.364 -53.527  0.00  0.00    -0.265 OA
BRANCH   7   9
ATOM      9  C   UNL d   1     -41.955-122.351 -54.490  0.00  0.00     0.087 A 
ATOM     10  S   UNL d   1     -41.438-122.413 -55.136  0.00  0.00    -0.082 SA
ATOM     11  C   UNL d   1     -41.758-122.040 -55.747  0.00  0.00     0.036 A 
ATOM     12  C   UNL d   1     -42.511-121.724 -55.489  0.00  0.00     0.008 A 
ATOM     13  C   UNL d   1     -42.586-121.940 -54.714  0.00  0.00     0.012 A 
ENDBRANCH   7   9
ENDBRANCH   1   6
BRANCH   4  14
ATOM     14  C   UNL d   1     -41.149-122.659 -50.301  0.00  0.00     0.008 C 
BRANCH  14  15
ATOM     15  C   UNL d   1     -41.798-122.891 -49.826  0.00  0.00     0.001 A 
ATOM     16  C   UNL d   1     -42.489-122.422 -49.808  0.00  0.00     0.002 A 
ATOM     17  C   UNL d   1     -43.140-122.646 -49.337  0.00  0.00     0.030 A 
ATOM     18  C   UNL d   1     -43.102-123.330 -48.889  0.00  0.00     0.140 A 
ATOM     19  C   UNL d   1     -42.402-123.818 -48.899  0.00  0.00     0.030 A 
ATOM     20  F   UNL d   1     -43.651-123.607 -48.432  0.00  0.00    -0.204 F 
ATOM     21  C   UNL d   1     -41.761-123.582 -49.373  0.00  0.00     0.002 A 
ENDBRANCH  14  15
ENDBRANCH   4  14
TORSDOF 4
ENDMDL
