MODEL 1
REMARK VINA RESULT:      30.7      0.000      0.000
REMARK  3 active torsions:
REMARK  status: ('A' for Active; 'I' for Inactive)
REMARK    1  A    between atoms: C_6  and  N_3 
REMARK    2  A    between atoms: C_5  and  C_4 
REMARK    3  A    between atoms: O_18  and  C_14 
ROOT
ATOM      1  C   UNL d   1      43.937 -13.840  44.675  0.00  0.00     0.366 A 
ATOM      2  C   UNL d   1      43.855 -14.658  44.742  0.00  0.00     0.308 A 
ATOM      3  N   UNL d   1      44.629 -14.769  44.532  0.00  0.00    -0.272 N 
ATOM      4  C   UNL d   1      44.728 -13.934  44.460  0.00  0.00     0.115 A 
ATOM      5  O   UNL d   1      43.244 -15.173  44.939  0.00  0.00    -0.265 OA
ATOM      6  F   UNL d   1      43.144 -13.891  44.898  0.00  0.00    -0.188 F 
ATOM      7  F   UNL d   1      43.640 -13.075  44.716  0.00  0.00    -0.188 F 
ENDROOT
BRANCH   3   8
ATOM      8  C   UNL d   1      45.140 -15.430  44.426  0.00  0.00     0.067 A 
ATOM      9  C   UNL d   1      45.753 -15.553  44.949  0.00  0.00     0.020 A 
ATOM     10  C   UNL d   1      46.262 -16.196  44.858  0.00  0.00     0.026 A 
ATOM     11  C   UNL d   1      46.136 -16.709  44.225  0.00  0.00     0.094 A 
ATOM     12  C   UNL d   1      45.523 -16.598  43.690  0.00  0.00     0.026 A 
ATOM     13  C   UNL d   1      45.014 -15.954  43.782  0.00  0.00     0.020 A 
BRANCH  11  14
ATOM     14  O   UNL d   1      46.647 -17.367  44.120  0.00  0.00    -0.328 OA
ATOM     15  C   UNL d   1      46.409 -18.009  43.644  0.00  0.00     0.181 C 
ENDBRANCH  11  14
ENDBRANCH   3   8
BRANCH   4  16
ATOM     16  C   UNL d   1      45.360 -13.433  44.257  0.00  0.00     0.045 A 
ATOM     17  C   UNL d   1      45.353 -13.053  43.533  0.00  0.00     0.141 A 
ATOM     18  F   UNL d   1      44.718 -13.161  42.994  0.00  0.00    -0.204 F 
ATOM     19  C   UNL d   1      46.001 -12.546  43.339  0.00  0.00     0.030 A 
ATOM     20  C   UNL d   1      46.607 -12.456  43.881  0.00  0.00     0.002 A 
ATOM     21  C   UNL d   1      46.619 -12.833  44.603  0.00  0.00     0.000 A 
ATOM     22  C   UNL d   1      45.984 -13.337  44.807  0.00  0.00     0.004 A 
ENDBRANCH   4  16
TORSDOF 3
ENDMDL
