MODEL 1
REMARK VINA RESULT:      76.1      0.000      0.000
REMARK  4 active torsions:
REMARK  status: ('A' for Active; 'I' for Inactive)
REMARK    1  A    between atoms: C_6  and  C_1 
REMARK       I    between atoms: N_7  and  C_1 
REMARK    2  A    between atoms: N_3  and  C_5 
REMARK    3  A    between atoms: C_19  and  N_7 
REMARK    4  A    between atoms: C_8  and  C_10 
ROOT
ATOM      1  C   UNL d   1     -48.352  28.947  35.078  0.00  0.00     0.019 A 
ATOM      2  C   UNL d   1     -47.370  30.173  35.583  0.00  0.00     0.085 A 
ATOM      3  C   UNL d   1     -48.529  29.364  35.759  0.00  0.00     0.003 A 
ATOM      4  C   UNL d   1     -47.678  29.142  34.643  0.00  0.00     0.003 A 
ATOM      5  C   UNL d   1     -48.038  29.977  36.012  0.00  0.00     0.019 A 
ATOM      6  C   UNL d   1     -47.187  29.755  34.896  0.00  0.00     0.019 A 
ENDROOT
BRANCH   1   7
ATOM      7  C   UNL d   1     -48.843  28.334  34.826  0.00  0.00     0.103 A 
ATOM      8  N   UNL d   1     -49.106  27.769  35.362  0.00  0.00    -0.147 NA
ATOM      9  N   UNL d   1     -49.597  27.156  35.109  0.00  0.00    -0.130 NA
ATOM     10  C   UNL d   1     -49.826  27.108  34.321  0.00  0.00     0.169 A 
ATOM     11  C   UNL d   1     -49.562  27.675  33.781  0.00  0.00     0.041 A 
ATOM     12  C   UNL d   1     -49.071  28.288  34.034  0.00  0.00     0.024 A 
BRANCH  10  13
ATOM     13  N   UNL d   1     -50.317  26.495  34.068  0.00  0.00    -0.288 N 
ATOM     14  C   UNL d   1     -50.025  25.914  33.565  0.00  0.00     0.082 A 
ATOM     15  C   UNL d   1     -50.516  25.301  33.313  0.00  0.00     0.019 A 
ATOM     16  C   UNL d   1     -51.299  25.269  33.563  0.00  0.00     0.003 A 
ATOM     17  C   UNL d   1     -51.593  25.852  34.069  0.00  0.00     0.019 A 
ATOM     18  C   UNL d   1     -51.783  24.653  33.306  0.00  0.00     0.000 C 
ATOM     19  C   UNL d   1     -51.102  26.465  34.321  0.00  0.00     0.082 A 
ENDBRANCH  10  13
ENDBRANCH   1   7
BRANCH   2  20
ATOM     20  N   UNL d   1     -46.879  30.786  35.836  0.00  0.00    -0.206 NA
ATOM     21  C   UNL d   1     -46.972  31.543  35.528  0.00  0.00     0.302 C 
ATOM     22  O   UNL d   1     -46.478  32.158  35.782  0.00  0.00    -0.263 OA
BRANCH  21  23
ATOM     23  C   UNL d   1     -47.558  31.688  34.966  0.00  0.00     0.158 A 
ATOM     24  O   UNL d   1     -47.419  32.225  34.354  0.00  0.00    -0.300 OA
ATOM     25  C   UNL d   1     -48.100  32.257  33.879  0.00  0.00     0.123 A 
ATOM     26  C   UNL d   1     -48.655  31.740  34.203  0.00  0.00     0.029 A 
ATOM     27  C   UNL d   1     -48.319  31.394  34.867  0.00  0.00     0.032 A 
ENDBRANCH  21  23
ENDBRANCH   2  20
TORSDOF 4
ENDMDL
