MODEL 1
REMARK VINA RESULT:      -2.7      0.000      0.000
REMARK  6 active torsions:
REMARK  status: ('A' for Active; 'I' for Inactive)
REMARK    1  A    between atoms: N_5  and  C_1 
REMARK    2  A    between atoms: S_2  and  C_11 
REMARK    3  A    between atoms: N_12  and  S_2 
REMARK    4  A    between atoms: O_8  and  C_4 
REMARK    5  A    between atoms: C_9  and  O_8 
REMARK    6  A    between atoms: C_16  and  C_9 
ROOT
ATOM      1  C   UNL d   1      32.997  20.408 -23.029  0.00  0.00     0.300 C 
ATOM      2  O   UNL d   1      33.145  20.884 -23.677  0.00  0.00    -0.259 OA
ENDROOT
BRANCH   1   3
ATOM      3  O   UNL d   1      32.942  20.734 -22.271  0.00  0.00    -0.271 OA
BRANCH   3   4
ATOM      4  C   UNL d   1      32.926  21.552 -22.166  0.00  0.00     0.132 A 
ATOM      5  C   UNL d   1      32.745  21.874 -21.428  0.00  0.00     0.207 A 
ATOM      6  C   UNL d   1      32.729  22.692 -21.323  0.00  0.00     0.303 A 
ATOM      7  N   UNL d   1      32.893  23.189 -21.956  0.00  0.00    -0.206 NA
ATOM      8  O   UNL d   1      32.547  23.009 -20.581  0.00  0.00    -0.263 OA
ATOM      9  C   UNL d   1      33.073  22.874 -22.689  0.00  0.00     0.087 A 
ATOM     10  C   UNL d   1      33.089  22.056 -22.794  0.00  0.00     0.046 A 
ATOM     11  C   UNL d   1      33.241  23.377 -23.333  0.00  0.00     0.021 C 
BRANCH   5  12
ATOM     12  N   UNL d   1      32.579  21.368 -20.792  0.00  0.00    -0.107 N 
ATOM     13  O   UNL d   1      31.798  21.145 -20.643  0.00  0.00    -0.531 OA
ATOM     14  O   UNL d   1      33.190  21.091 -20.313  0.00  0.00    -0.531 OA
ENDBRANCH   5  12
ENDBRANCH   3   4
ENDBRANCH   1   3
BRANCH   1  15
ATOM     15  C   UNL d   1      32.900  19.590 -23.133  0.00  0.00     0.064 A 
ATOM     16  C   UNL d   1      33.241  19.074 -22.607  0.00  0.00     0.006 A 
ATOM     17  C   UNL d   1      33.138  18.260 -22.719  0.00  0.00     0.013 A 
ATOM     18  C   UNL d   1      32.700  17.989 -23.352  0.00  0.00     0.104 A 
ATOM     19  C   UNL d   1      32.358  18.509 -23.880  0.00  0.00     0.013 A 
ATOM     20  C   UNL d   1      32.456  19.319 -23.773  0.00  0.00     0.006 A 
BRANCH  18  21
ATOM     21  S   UNL d   1      32.595  17.174 -23.468  0.00  0.00     0.271 S 
ATOM     22  O   UNL d   1      32.582  16.358 -23.395  0.00  0.00    -0.200 OA
ATOM     23  O   UNL d   1      32.958  17.243 -22.727  0.00  0.00    -0.200 OA
BRANCH  21  24
ATOM     24  N   UNL d   1      32.245  16.916 -24.158  0.00  0.00    -0.226 N 
ATOM     25  C   UNL d   1      31.431  16.918 -24.234  0.00  0.00     0.111 C 
ATOM     26  C   UNL d   1      32.725  16.653 -24.779  0.00  0.00     0.111 C 
ENDBRANCH  21  24
ENDBRANCH  18  21
ENDBRANCH   1  15
TORSDOF 6
ENDMDL
