MODEL 1
REMARK VINA RESULT:      -4.2      0.000      0.000
REMARK  3 active torsions:
REMARK  status: ('A' for Active; 'I' for Inactive)
REMARK    1  A    between atoms: C_9  and  S_1 
REMARK    2  A    between atoms: S_2  and  C_8 
REMARK    3  A    between atoms: N_14  and  C_5 
ROOT
ATOM      1  C   UNL d   1     -42.081-122.537 -51.401  0.00  0.00     0.021 A 
ATOM      2  C   UNL d   1     -42.200-122.714 -50.064  0.00  0.00     0.021 A 
ATOM      3  C   UNL d   1     -42.440-122.268 -50.735  0.00  0.00     0.111 A 
ATOM      4  C   UNL d   1     -41.675-123.272 -50.355  0.00  0.00     0.002 A 
ATOM      5  C   UNL d   1     -41.577-123.195 -51.169  0.00  0.00     0.002 A 
ATOM      6  C   UNL d   1     -42.065-123.194 -48.730  0.00  0.00     0.107 A 
ATOM      7  C   UNL d   1     -41.645-122.738 -52.744  0.00  0.00     0.107 A 
ATOM      8  C   UNL d   1     -42.398-122.666 -49.279  0.00  0.00     0.015 A 
ATOM      9  C   UNL d   1     -42.117-122.309 -52.178  0.00  0.00     0.015 A 
ATOM     10  C   UNL d   1     -41.135-123.591 -51.721  0.00  0.00     0.001 A 
ATOM     11  C   UNL d   1     -41.336-123.813 -49.782  0.00  0.00     0.001 A 
ATOM     12  C   UNL d   1     -41.163-123.370 -52.508  0.00  0.00     0.013 A 
ATOM     13  C   UNL d   1     -41.534-123.763 -49.004  0.00  0.00     0.013 A 
ENDROOT
BRANCH   6  14
ATOM     14  S   UNL d   1     -42.286-123.125 -47.915  0.00  0.00     0.302 S 
ATOM     15  O   UNL d   1     -42.949-123.601 -48.069  0.00  0.00    -0.197 OA
ATOM     16  O   UNL d   1     -41.607-122.634 -47.745  0.00  0.00    -0.197 OA
ATOM     17  N   UNL d   1     -42.511-123.056 -47.096  0.00  0.00    -0.043 N 
ENDBRANCH   6  14
BRANCH   3  18
ATOM     18  N   UNL d   1     -42.990-121.599 -50.789  0.00  0.00    -0.096 NA
ATOM     19  O   UNL d   1     -43.812-121.725 -50.760  0.00  0.00    -0.061 OA
ENDBRANCH   3  18
BRANCH   7  20
ATOM     20  S   UNL d   1     -41.702-122.473 -53.569  0.00  0.00     0.302 S 
ATOM     21  O   UNL d   1     -41.150-121.853 -53.354  0.00  0.00    -0.197 OA
ATOM     22  O   UNL d   1     -42.247-123.104 -53.734  0.00  0.00    -0.197 OA
ATOM     23  N   UNL d   1     -41.738-122.207 -54.334  0.00  0.00    -0.043 N 
ENDBRANCH   7  20
TORSDOF 3
ENDMDL
MODEL 2
REMARK VINA RESULT:      -3.1      1.611      2.139
REMARK  3 active torsions:
REMARK  status: ('A' for Active; 'I' for Inactive)
REMARK    1  A    between atoms: C_9  and  S_1 
REMARK    2  A    between atoms: S_2  and  C_8 
REMARK    3  A    between atoms: N_14  and  C_5 
ROOT
ATOM      1  C   UNL d   1     -41.678-122.247 -53.198  0.00  0.00     0.021 A 
ATOM      2  C   UNL d   1     -41.529-122.444 -51.866  0.00  0.00     0.021 A 
ATOM      3  C   UNL d   1     -41.718-121.896 -52.477  0.00  0.00     0.111 A 
ATOM      4  C   UNL d   1     -41.372-123.150 -52.253  0.00  0.00     0.002 A 
ATOM      5  C   UNL d   1     -41.453-123.067 -53.069  0.00  0.00     0.002 A 
ATOM      6  C   UNL d   1     -41.284-123.022 -50.587  0.00  0.00     0.107 A 
ATOM      7  C   UNL d   1     -41.707-122.523 -54.596  0.00  0.00     0.107 A 
ATOM      8  C   UNL d   1     -41.490-122.369 -51.060  0.00  0.00     0.015 A 
ATOM      9  C   UNL d   1     -41.804-121.975 -53.951  0.00  0.00     0.015 A 
ATOM     10  C   UNL d   1     -41.366-123.574 -53.695  0.00  0.00     0.001 A 
ATOM     11  C   UNL d   1     -41.161-123.817 -51.759  0.00  0.00     0.001 A 
ATOM     12  C   UNL d   1     -41.490-123.312 -54.460  0.00  0.00     0.013 A 
ATOM     13  C   UNL d   1     -41.123-123.740 -50.959  0.00  0.00     0.013 A 
ENDROOT
BRANCH   6  14
ATOM     14  S   UNL d   1     -41.250-122.919 -49.748  0.00  0.00     0.302 S 
ATOM     15  O   UNL d   1     -41.372-122.104 -49.857  0.00  0.00    -0.197 OA
ATOM     16  O   UNL d   1     -41.125-123.755 -49.623  0.00  0.00    -0.197 OA
ATOM     17  N   UNL d   1     -41.216-122.812 -48.903  0.00  0.00    -0.043 N 
ENDBRANCH   6  14
BRANCH   3  18
ATOM     18  N   UNL d   1     -41.934-121.058 -52.422  0.00  0.00    -0.096 NA
ATOM     19  O   UNL d   1     -41.345-120.472 -52.381  0.00  0.00    -0.061 OA
ENDBRANCH   3  18
BRANCH   7  20
ATOM     20  S   UNL d   1     -41.849-122.207 -55.393  0.00  0.00     0.302 S 
ATOM     21  O   UNL d   1     -42.542-122.710 -55.413  0.00  0.00    -0.197 OA
ATOM     22  O   UNL d   1     -41.151-121.725 -55.325  0.00  0.00    -0.197 OA
ATOM     23  N   UNL d   1     -42.001-121.926 -56.138  0.00  0.00    -0.043 N 
ENDBRANCH   7  20
TORSDOF 3
ENDMDL
MODEL 3
REMARK VINA RESULT:      -2.3      1.164      4.391
REMARK  3 active torsions:
REMARK  status: ('A' for Active; 'I' for Inactive)
REMARK    1  A    between atoms: C_9  and  S_1 
REMARK    2  A    between atoms: S_2  and  C_8 
REMARK    3  A    between atoms: N_14  and  C_5 
ROOT
ATOM      1  C   UNL d   1     -41.813-122.513 -51.376  0.00  0.00     0.021 A 
ATOM      2  C   UNL d   1     -41.796-122.423 -52.727  0.00  0.00     0.021 A 
ATOM      3  C   UNL d   1     -42.025-122.059 -52.004  0.00  0.00     0.111 A 
ATOM      4  C   UNL d   1     -41.432-123.125 -52.508  0.00  0.00     0.002 A 
ATOM      5  C   UNL d   1     -41.424-123.214 -51.689  0.00  0.00     0.002 A 
ATOM      6  C   UNL d   1     -41.592-122.682 -54.113  0.00  0.00     0.107 A 
ATOM      7  C   UNL d   1     -41.598-123.035 -50.067  0.00  0.00     0.107 A 
ATOM      8  C   UNL d   1     -41.880-122.197 -53.501  0.00  0.00     0.015 A 
ATOM      9  C   UNL d   1     -41.900-122.421 -50.575  0.00  0.00     0.015 A 
ATOM     10  C   UNL d   1     -41.143-123.787 -51.190  0.00  0.00     0.001 A 
ATOM     11  C   UNL d   1     -41.139-123.618 -53.144  0.00  0.00     0.001 A 
ATOM     12  C   UNL d   1     -41.225-123.706 -50.380  0.00  0.00     0.013 A 
ATOM     13  C   UNL d   1     -41.223-123.391 -53.911  0.00  0.00     0.013 A 
ENDROOT
BRANCH   6  14
ATOM     14  S   UNL d   1     -41.691-122.424 -54.914  0.00  0.00     0.302 S 
ATOM     15  O   UNL d   1     -42.149-123.102 -55.060  0.00  0.00    -0.197 OA
ATOM     16  O   UNL d   1     -41.221-121.723 -54.775  0.00  0.00    -0.197 OA
ATOM     17  N   UNL d   1     -41.792-122.167 -55.720  0.00  0.00    -0.043 N 
ENDBRANCH   6  14
BRANCH   3  18
ATOM     18  N   UNL d   1     -42.433-121.307 -51.867  0.00  0.00    -0.096 NA
ATOM     19  O   UNL d   1     -42.041-120.584 -51.999  0.00  0.00    -0.061 OA
ENDBRANCH   3  18
BRANCH   7  20
ATOM     20  S   UNL d   1     -41.704-122.912 -49.213  0.00  0.00     0.302 S 
ATOM     21  O   UNL d   1     -42.273-123.553 -49.245  0.00  0.00    -0.197 OA
ATOM     22  O   UNL d   1     -41.133-122.283 -49.232  0.00  0.00    -0.197 OA
ATOM     23  N   UNL d   1     -41.820-122.817 -48.417  0.00  0.00    -0.043 N 
ENDBRANCH   7  20
TORSDOF 3
ENDMDL
