MODEL 1
REMARK VINA RESULT:      -7.5      0.000      0.000
REMARK  4 active torsions:
REMARK  status: ('A' for Active; 'I' for Inactive)
REMARK    1  A    between atoms: N_10  and  C_3 
REMARK    2  A    between atoms: C_13  and  C_5 
REMARK    3  A    between atoms: C_12  and  C_9 
REMARK    4  A    between atoms: C_19  and  N_11 
ROOT
ATOM      1  N   UNL d   1     -47.034  13.071  22.979  0.00  0.00    -0.196 N 
ATOM      2  C   UNL d   1     -47.744  13.484  22.881  0.00  0.00     0.167 A 
ATOM      3  C   UNL d   1     -47.055  12.261  23.075  0.00  0.00     0.152 A 
ATOM      4  N   UNL d   1     -46.329  14.284  22.881  0.00  0.00    -0.163 NA
ATOM      5  C   UNL d   1     -47.742  14.284  22.785  0.00  0.00     0.055 A 
ATOM      6  N   UNL d   1     -48.458  13.078  22.881  0.00  0.00    -0.231 NA
ATOM      7  C   UNL d   1     -47.772  11.852  23.076  0.00  0.00     0.052 A 
ATOM      8  C   UNL d   1     -47.029  14.691  22.785  0.00  0.00     0.104 A 
ATOM      9  C   UNL d   1     -48.471  12.259  22.979  0.00  0.00     0.063 A 
ATOM     10  C   UNL d   1     -47.013  15.499  22.689  0.00  0.00     0.023 C 
ENDROOT
BRANCH   3  11
ATOM     11  N   UNL d   1     -46.323  11.835  23.176  0.00  0.00    -0.286 N 
ATOM     12  C   UNL d   1     -46.254  11.127  23.630  0.00  0.00     0.101 A 
ATOM     13  C   UNL d   1     -45.506  10.744  23.698  0.00  0.00     0.100 A 
ATOM     14  N   UNL d   1     -44.818  11.067  23.313  0.00  0.00    -0.300 N 
ATOM     15  C   UNL d   1     -44.896  11.775  22.862  0.00  0.00     0.100 A 
ATOM     16  C   UNL d   1     -45.653  12.167  22.789  0.00  0.00     0.101 A 
BRANCH  14  17
ATOM     17  C   UNL d   1     -44.066  10.690  23.377  0.00  0.00     0.080 C 
ATOM     18  C   UNL d   1     -44.032   9.845  23.421  0.00  0.00     0.021 C 
ENDBRANCH  14  17
ENDBRANCH   3  11
BRANCH   9  19
ATOM     19  C   UNL d   1     -49.213  11.840  22.979  0.00  0.00     0.036 C 
ATOM     20  C   UNL d   1     -49.946  11.427  22.985  0.00  0.00     0.006 C 
ATOM     21  C   UNL d   1     -49.493  11.474  22.262  0.00  0.00     0.006 C 
ATOM     22  C   UNL d   1     -49.662  11.793  23.698  0.00  0.00     0.006 C 
ENDBRANCH   9  19
BRANCH   5  23
ATOM     23  C   UNL d   1     -48.446  14.694  22.688  0.00  0.00     0.004 A 
ATOM     24  C   UNL d   1     -48.829  14.994  23.344  0.00  0.00     0.000 A 
ATOM     25  C   UNL d   1     -49.540  15.407  23.246  0.00  0.00     0.000 A 
ATOM     26  C   UNL d   1     -49.845  15.508  22.494  0.00  0.00     0.000 A 
ATOM     27  C   UNL d   1     -49.450  15.202  21.845  0.00  0.00     0.000 A 
ATOM     28  C   UNL d   1     -48.751  14.795  21.941  0.00  0.00     0.000 A 
ENDBRANCH   5  23
TORSDOF 4
ENDMDL
MODEL 2
REMARK VINA RESULT:      -7.0      1.035      2.444
REMARK  4 active torsions:
REMARK  status: ('A' for Active; 'I' for Inactive)
REMARK    1  A    between atoms: N_10  and  C_3 
REMARK    2  A    between atoms: C_13  and  C_5 
REMARK    3  A    between atoms: C_12  and  C_9 
REMARK    4  A    between atoms: C_19  and  N_11 
ROOT
ATOM      1  N   UNL d   1     -47.727  12.200  23.173  0.00  0.00    -0.196 N 
ATOM      2  C   UNL d   1     -48.381  12.696  23.063  0.00  0.00     0.167 A 
ATOM      3  C   UNL d   1     -46.978  12.498  23.052  0.00  0.00     0.152 A 
ATOM      4  N   UNL d   1     -48.597  11.150  23.514  0.00  0.00    -0.163 NA
ATOM      5  C   UNL d   1     -49.128  12.418  23.178  0.00  0.00     0.055 A 
ATOM      6  N   UNL d   1     -48.269  13.476  22.834  0.00  0.00    -0.231 NA
ATOM      7  C   UNL d   1     -46.864  13.283  22.823  0.00  0.00     0.052 A 
ATOM      8  C   UNL d   1     -49.241  11.637  23.406  0.00  0.00     0.104 A 
ATOM      9  C   UNL d   1     -47.508  13.770  22.714  0.00  0.00     0.063 A 
ATOM     10  C   UNL d   1     -49.990  11.345  23.525  0.00  0.00     0.023 C 
ENDROOT
BRANCH   3  11
ATOM     11  N   UNL d   1     -46.303  11.987  23.166  0.00  0.00    -0.286 N 
ATOM     12  C   UNL d   1     -46.338  11.256  23.586  0.00  0.00     0.101 A 
ATOM     13  C   UNL d   1     -45.642  10.789  23.670  0.00  0.00     0.100 A 
ATOM     14  N   UNL d   1     -44.903  11.047  23.334  0.00  0.00    -0.300 N 
ATOM     15  C   UNL d   1     -44.877  11.780  22.916  0.00  0.00     0.100 A 
ATOM     16  C   UNL d   1     -45.581  12.258  22.828  0.00  0.00     0.101 A 
BRANCH  14  17
ATOM     17  C   UNL d   1     -44.202  10.585  23.414  0.00  0.00     0.080 C 
ATOM     18  C   UNL d   1     -44.264   9.790  23.698  0.00  0.00     0.021 C 
ENDBRANCH  14  17
ENDBRANCH   3  11
BRANCH   9  19
ATOM     19  C   UNL d   1     -47.394  14.581  22.477  0.00  0.00     0.036 C 
ATOM     20  C   UNL d   1     -47.280  15.382  22.249  0.00  0.00     0.006 C 
ATOM     21  C   UNL d   1     -47.558  14.815  21.674  0.00  0.00     0.006 C 
ATOM     22  C   UNL d   1     -47.119  15.145  23.049  0.00  0.00     0.006 C 
ENDBRANCH   9  19
BRANCH   5  23
ATOM     23  C   UNL d   1     -49.776  12.909  23.068  0.00  0.00     0.004 A 
ATOM     24  C   UNL d   1     -50.057  13.348  23.697  0.00  0.00     0.000 A 
ATOM     25  C   UNL d   1     -50.711  13.844  23.587  0.00  0.00     0.000 A 
ATOM     26  C   UNL d   1     -51.064  13.885  22.851  0.00  0.00     0.000 A 
ATOM     27  C   UNL d   1     -50.772  13.439  22.228  0.00  0.00     0.000 A 
ATOM     28  C   UNL d   1     -50.128  12.951  22.337  0.00  0.00     0.000 A 
ENDBRANCH   5  23
TORSDOF 4
ENDMDL
MODEL 3
REMARK VINA RESULT:      -6.8      1.434      1.740
REMARK  4 active torsions:
REMARK  status: ('A' for Active; 'I' for Inactive)
REMARK    1  A    between atoms: N_10  and  C_3 
REMARK    2  A    between atoms: C_13  and  C_5 
REMARK    3  A    between atoms: C_12  and  C_9 
REMARK    4  A    between atoms: C_19  and  N_11 
ROOT
ATOM      1  N   UNL d   1     -47.410  13.837  22.396  0.00  0.00    -0.196 N 
ATOM      2  C   UNL d   1     -48.219  13.833  22.572  0.00  0.00     0.167 A 
ATOM      3  C   UNL d   1     -46.996  13.135  22.415  0.00  0.00     0.152 A 
ATOM      4  N   UNL d   1     -47.473  15.227  22.195  0.00  0.00    -0.163 NA
ATOM      5  C   UNL d   1     -48.643  14.518  22.558  0.00  0.00     0.055 A 
ATOM      6  N   UNL d   1     -48.593  13.128  22.762  0.00  0.00    -0.231 NA
ATOM      7  C   UNL d   1     -47.371  12.425  22.606  0.00  0.00     0.052 A 
ATOM      8  C   UNL d   1     -48.269  15.224  22.368  0.00  0.00     0.104 A 
ATOM      9  C   UNL d   1     -48.167  12.421  22.779  0.00  0.00     0.063 A 
ATOM     10  C   UNL d   1     -48.687  15.922  22.351  0.00  0.00     0.023 C 
ENDROOT
BRANCH   3  11
ATOM     11  N   UNL d   1     -46.162  13.139  22.234  0.00  0.00    -0.286 N 
ATOM     12  C   UNL d   1     -45.569  13.399  22.774  0.00  0.00     0.101 A 
ATOM     13  C   UNL d   1     -44.758  13.382  22.545  0.00  0.00     0.100 A 
ATOM     14  N   UNL d   1     -44.531  13.105  21.772  0.00  0.00    -0.300 N 
ATOM     15  C   UNL d   1     -45.131  12.847  21.238  0.00  0.00     0.100 A 
ATOM     16  C   UNL d   1     -45.956  12.862  21.466  0.00  0.00     0.101 A 
BRANCH  14  17
ATOM     17  C   UNL d   1     -43.722  13.085  21.536  0.00  0.00     0.080 C 
ATOM     18  C   UNL d   1     -43.302  12.350  21.567  0.00  0.00     0.021 C 
ENDBRANCH  14  17
ENDBRANCH   3  11
BRANCH   9  19
ATOM     19  C   UNL d   1     -48.558  11.691  22.976  0.00  0.00     0.036 C 
ATOM     20  C   UNL d   1     -48.941  10.969  23.176  0.00  0.00     0.006 C 
ATOM     21  C   UNL d   1     -49.147  11.369  22.451  0.00  0.00     0.006 C 
ATOM     22  C   UNL d   1     -48.353  11.293  23.698  0.00  0.00     0.006 C 
ENDBRANCH   9  19
BRANCH   5  23
ATOM     23  C   UNL d   1     -49.445  14.514  22.732  0.00  0.00     0.004 A 
ATOM     24  C   UNL d   1     -49.985  14.393  22.131  0.00  0.00     0.000 A 
ATOM     25  C   UNL d   1     -50.794  14.389  22.307  0.00  0.00     0.000 A 
ATOM     26  C   UNL d   1     -51.039  14.507  23.078  0.00  0.00     0.000 A 
ATOM     27  C   UNL d   1     -50.486  14.628  23.671  0.00  0.00     0.000 A 
ATOM     28  C   UNL d   1     -49.689  14.631  23.498  0.00  0.00     0.000 A 
ENDBRANCH   5  23
TORSDOF 4
ENDMDL
MODEL 4
REMARK VINA RESULT:      -5.6      1.443      2.885
REMARK  4 active torsions:
REMARK  status: ('A' for Active; 'I' for Inactive)
REMARK    1  A    between atoms: N_10  and  C_3 
REMARK    2  A    between atoms: C_13  and  C_5 
REMARK    3  A    between atoms: C_12  and  C_9 
REMARK    4  A    between atoms: C_19  and  N_11 
ROOT
ATOM      1  N   UNL d   1     -47.354  12.665  22.502  0.00  0.00    -0.196 N 
ATOM      2  C   UNL d   1     -48.166  12.793  22.599  0.00  0.00     0.167 A 
ATOM      3  C   UNL d   1     -46.870  13.299  22.331  0.00  0.00     0.152 A 
ATOM      4  N   UNL d   1     -47.553  11.296  22.751  0.00  0.00    -0.163 NA
ATOM      5  C   UNL d   1     -48.660  12.179  22.769  0.00  0.00     0.055 A 
ATOM      6  N   UNL d   1     -48.473  13.551  22.521  0.00  0.00    -0.231 NA
ATOM      7  C   UNL d   1     -47.178  14.060  22.252  0.00  0.00     0.052 A 
ATOM      8  C   UNL d   1     -48.353  11.422  22.846  0.00  0.00     0.104 A 
ATOM      9  C   UNL d   1     -47.977  14.186  22.347  0.00  0.00     0.063 A 
ATOM     10  C   UNL d   1     -48.840  10.793  23.018  0.00  0.00     0.023 C 
ENDROOT
BRANCH   3  11
ATOM     11  N   UNL d   1     -46.032  13.167  22.231  0.00  0.00    -0.286 N 
ATOM     12  C   UNL d   1     -45.455  13.384  22.807  0.00  0.00     0.101 A 
ATOM     13  C   UNL d   1     -44.639  13.231  22.658  0.00  0.00     0.100 A 
ATOM     14  N   UNL d   1     -44.393  12.860  21.933  0.00  0.00    -0.300 N 
ATOM     15  C   UNL d   1     -44.977  12.646  21.363  0.00  0.00     0.100 A 
ATOM     16  C   UNL d   1     -45.806  12.799  21.508  0.00  0.00     0.101 A 
BRANCH  14  17
ATOM     17  C   UNL d   1     -43.578  12.704  21.778  0.00  0.00     0.080 C 
ATOM     18  C   UNL d   1     -43.222  13.032  21.083  0.00  0.00     0.021 C 
ENDBRANCH  14  17
ENDBRANCH   3  11
BRANCH   9  19
ATOM     19  C   UNL d   1     -48.298  14.971  22.267  0.00  0.00     0.036 C 
ATOM     20  C   UNL d   1     -48.615  15.747  22.194  0.00  0.00     0.006 C 
ATOM     21  C   UNL d   1     -48.514  15.265  21.497  0.00  0.00     0.006 C 
ATOM     22  C   UNL d   1     -48.399  15.450  22.961  0.00  0.00     0.006 C 
ENDBRANCH   9  19
BRANCH   5  23
ATOM     23  C   UNL d   1     -49.464  12.306  22.864  0.00  0.00     0.004 A 
ATOM     24  C   UNL d   1     -49.754  12.507  23.601  0.00  0.00     0.000 A 
ATOM     25  C   UNL d   1     -50.566  12.634  23.698  0.00  0.00     0.000 A 
ATOM     26  C   UNL d   1     -51.064  12.558  23.054  0.00  0.00     0.000 A 
ATOM     27  C   UNL d   1     -50.760  12.356  22.320  0.00  0.00     0.000 A 
ATOM     28  C   UNL d   1     -49.961  12.230  22.225  0.00  0.00     0.000 A 
ENDBRANCH   5  23
TORSDOF 4
ENDMDL
