MODEL 1
REMARK VINA RESULT:      19.6      0.000      0.000
REMARK  4 active torsions:
REMARK  status: ('A' for Active; 'I' for Inactive)
REMARK    1  A    between atoms: N_2  and  S_1 
REMARK    2  A    between atoms: C_4  and  S_1 
REMARK    3  A    between atoms: C_3  and  C_8 
REMARK       I    between atoms: N_5  and  C_3 
REMARK    4  A    between atoms: C_17  and  N_5 
ROOT
ATOM      1  C   UNL d   1      46.055 -17.356  43.362  0.00  0.00     0.104 A 
ATOM      2  C   UNL d   1      45.782 -15.855  43.984  0.00  0.00     0.058 A 
ATOM      3  C   UNL d   1      46.035 -17.235  44.191  0.00  0.00     0.013 A 
ATOM      4  C   UNL d   1      45.935 -16.707  42.847  0.00  0.00     0.013 A 
ATOM      5  C   UNL d   1      45.898 -16.484  44.490  0.00  0.00     0.005 A 
ATOM      6  C   UNL d   1      45.799 -15.956  43.153  0.00  0.00     0.005 A 
ENDROOT
BRANCH   1   7
ATOM      7  S   UNL d   1      46.192 -18.112  43.040  0.00  0.00     0.272 S 
ATOM      8  O   UNL d   1      45.805 -18.478  43.689  0.00  0.00    -0.200 OA
ATOM      9  O   UNL d   1      46.584 -17.755  42.382  0.00  0.00    -0.200 OA
BRANCH   7  10
ATOM     10  N   UNL d   1      46.339 -18.864  42.700  0.00  0.00    -0.225 N 
ATOM     11  C   UNL d   1      46.327 -19.542  43.171  0.00  0.00     0.118 A 
ATOM     12  C   UNL d   1      46.472 -20.269  42.829  0.00  0.00     0.142 A 
ATOM     13  O   UNL d   1      46.635 -20.330  41.997  0.00  0.00    -0.300 OA
ATOM     14  C   UNL d   1      46.647 -19.662  41.531  0.00  0.00     0.142 A 
ATOM     15  C   UNL d   1      46.501 -18.925  41.868  0.00  0.00     0.118 A 
ENDBRANCH   7  10
ENDBRANCH   1   7
BRANCH   2  16
ATOM     16  C   UNL d   1      45.643 -15.089  44.281  0.00  0.00     0.279 C 
ATOM     17  N   UNL d   1      46.029 -14.434  43.965  0.00  0.00    -0.208 NA
ATOM     18  O   UNL d   1      45.106 -15.004  44.903  0.00  0.00    -0.265 OA
BRANCH  17  19
ATOM     19  C   UNL d   1      45.890 -13.668  44.262  0.00  0.00     0.085 A 
ATOM     20  C   UNL d   1      45.151 -13.319  44.146  0.00  0.00     0.019 A 
ATOM     21  C   UNL d   1      44.996 -12.561  44.433  0.00  0.00     0.002 A 
ATOM     22  C   UNL d   1      45.590 -12.161  44.835  0.00  0.00     0.000 A 
ATOM     23  C   UNL d   1      46.329 -12.511  44.951  0.00  0.00     0.002 A 
ATOM     24  C   UNL d   1      46.475 -13.260  44.665  0.00  0.00     0.019 A 
ENDBRANCH  17  19
ENDBRANCH   2  16
TORSDOF 4
ENDMDL
