MODEL 1
REMARK VINA RESULT:     121.6      0.000      0.000
REMARK  4 active torsions:
REMARK  status: ('A' for Active; 'I' for Inactive)
REMARK    1  A    between atoms: C_5  and  C_1 
REMARK    2  A    between atoms: C_11  and  C_2 
REMARK       I    between atoms: C_12  and  N_3 
REMARK    3  A    between atoms: C_15  and  N_7 
REMARK    4  A    between atoms: C_14  and  C_9 
ROOT
ATOM      1  C   UNL d   1      59.802  48.491  51.238  0.00  0.00     0.057 A 
ATOM      2  C   UNL d   1      59.507  48.878  51.920  0.00  0.00     0.110 A 
ATOM      3  N   UNL d   1      58.734  49.129  51.739  0.00  0.00    -0.165 NA
ATOM      4  N   UNL d   1      58.576  48.890  50.951  0.00  0.00    -0.228 N 
ATOM      5  C   UNL d   1      59.232  48.507  50.667  0.00  0.00     0.103 A 
ENDROOT
BRANCH   1   6
ATOM      6  C   UNL d   1      60.384  48.092  50.832  0.00  0.00     0.091 A 
ATOM      7  N   UNL d   1      61.117  48.420  50.592  0.00  0.00    -0.195 N 
ATOM      8  N   UNL d   1      61.550  47.821  50.193  0.00  0.00    -0.163 NA
ATOM      9  C   UNL d   1      61.390  49.178  50.709  0.00  0.00     0.281 C 
ATOM     10  C   UNL d   1      61.088  47.147  50.192  0.00  0.00     0.103 A 
ATOM     11  C   UNL d   1      60.375  47.297  50.578  0.00  0.00     0.040 A 
ATOM     12  O   UNL d   1      60.890  49.703  51.116  0.00  0.00    -0.265 OA
ATOM     13  C   UNL d   1      62.133  49.427  50.439  0.00  0.00     0.068 C 
BRANCH  10  14
ATOM     14  C   UNL d   1      61.279  46.406  49.861  0.00  0.00     0.019 A 
ATOM     15  C   UNL d   1      61.073  45.712  50.269  0.00  0.00     0.002 A 
ATOM     16  C   UNL d   1      61.247  44.981  49.970  0.00  0.00     0.000 A 
ATOM     17  C   UNL d   1      61.635  44.915  49.248  0.00  0.00     0.000 A 
ATOM     18  C   UNL d   1      61.841  45.603  48.840  0.00  0.00     0.000 A 
ATOM     19  C   UNL d   1      61.826  44.175  48.916  0.00  0.00     0.000 C 
ATOM     20  C   UNL d   1      61.668  46.340  49.138  0.00  0.00     0.002 A 
ENDBRANCH  10  14
ENDBRANCH   1   6
BRANCH   2  21
ATOM     21  C   UNL d   1      59.435  49.202  52.677  0.00  0.00     0.049 A 
ATOM     22  S   UNL d   1      60.073  49.382  53.170  0.00  0.00    -0.085 SA
ATOM     23  C   UNL d   1      59.732  49.695  53.874  0.00  0.00     0.035 A 
ATOM     24  C   UNL d   1      58.914  49.698  53.796  0.00  0.00     0.007 A 
ATOM     25  C   UNL d   1      58.733  49.387  53.042  0.00  0.00     0.009 A 
ENDBRANCH   2  21
BRANCH   4  26
ATOM     26  C   UNL d   1      57.852  49.036  50.552  0.00  0.00     0.083 A 
ATOM     27  C   UNL d   1      57.696  48.678  49.831  0.00  0.00     0.019 A 
ATOM     28  C   UNL d   1      56.980  48.845  49.471  0.00  0.00     0.002 A 
ATOM     29  C   UNL d   1      56.417  49.349  49.796  0.00  0.00     0.000 A 
ATOM     30  C   UNL d   1      56.593  49.705  50.533  0.00  0.00     0.002 A 
ATOM     31  C   UNL d   1      57.295  49.557  50.911  0.00  0.00     0.019 A 
ENDBRANCH   4  26
TORSDOF 4
ENDMDL
MODEL 2
REMARK VINA RESULT:     124.2      0.900      1.221
REMARK  4 active torsions:
REMARK  status: ('A' for Active; 'I' for Inactive)
REMARK    1  A    between atoms: C_5  and  C_1 
REMARK    2  A    between atoms: C_11  and  C_2 
REMARK       I    between atoms: C_12  and  N_3 
REMARK    3  A    between atoms: C_15  and  N_7 
REMARK    4  A    between atoms: C_14  and  C_9 
ROOT
ATOM      1  C   UNL d   1      60.579  48.201  50.958  0.00  0.00     0.057 A 
ATOM      2  C   UNL d   1      60.488  48.695  51.628  0.00  0.00     0.110 A 
ATOM      3  N   UNL d   1      59.763  49.092  51.540  0.00  0.00    -0.165 NA
ATOM      4  N   UNL d   1      59.426  48.831  50.817  0.00  0.00    -0.228 N 
ATOM      5  C   UNL d   1      59.935  48.294  50.482  0.00  0.00     0.103 A 
ENDROOT
BRANCH   1   6
ATOM      6  C   UNL d   1      60.990  47.655  50.517  0.00  0.00     0.091 A 
ATOM      7  N   UNL d   1      61.601  47.836  49.971  0.00  0.00    -0.195 N 
ATOM      8  N   UNL d   1      61.874  47.114  49.639  0.00  0.00    -0.163 NA
ATOM      9  C   UNL d   1      61.898  48.569  49.775  0.00  0.00     0.281 C 
ATOM     10  C   UNL d   1      61.438  46.511  49.978  0.00  0.00     0.103 A 
ATOM     11  C   UNL d   1      60.896  46.826  50.514  0.00  0.00     0.040 A 
ATOM     12  O   UNL d   1      61.564  49.228  50.156  0.00  0.00    -0.265 OA
ATOM     13  C   UNL d   1      62.507  48.665  49.221  0.00  0.00     0.068 C 
BRANCH  10  14
ATOM     14  C   UNL d   1      61.506  45.695  49.826  0.00  0.00     0.019 A 
ATOM     15  C   UNL d   1      61.574  45.430  49.041  0.00  0.00     0.002 A 
ATOM     16  C   UNL d   1      61.641  44.643  48.867  0.00  0.00     0.000 A 
ATOM     17  C   UNL d   1      61.644  44.087  49.473  0.00  0.00     0.000 A 
ATOM     18  C   UNL d   1      61.577  44.347  50.253  0.00  0.00     0.000 A 
ATOM     19  C   UNL d   1      61.712  43.270  49.322  0.00  0.00     0.000 C 
ATOM     20  C   UNL d   1      61.509  45.138  50.433  0.00  0.00     0.002 A 
ENDBRANCH  10  14
ENDBRANCH   1   6
BRANCH   2  21
ATOM     21  C   UNL d   1      60.614  49.085  52.347  0.00  0.00     0.049 A 
ATOM     22  S   UNL d   1      60.019  49.266  52.890  0.00  0.00    -0.085 SA
ATOM     23  C   UNL d   1      60.407  49.658  53.527  0.00  0.00     0.035 A 
ATOM     24  C   UNL d   1      61.211  49.705  53.361  0.00  0.00     0.007 A 
ATOM     25  C   UNL d   1      61.335  49.343  52.618  0.00  0.00     0.009 A 
ENDBRANCH   2  21
BRANCH   4  26
ATOM     26  C   UNL d   1      58.689  49.098  50.518  0.00  0.00     0.083 A 
ATOM     27  C   UNL d   1      58.643  49.444  49.775  0.00  0.00     0.019 A 
ATOM     28  C   UNL d   1      57.906  49.692  49.517  0.00  0.00     0.002 A 
ATOM     29  C   UNL d   1      57.220  49.611  49.963  0.00  0.00     0.000 A 
ATOM     30  C   UNL d   1      57.286  49.256  50.718  0.00  0.00     0.002 A 
ATOM     31  C   UNL d   1      58.003  49.001  50.998  0.00  0.00     0.019 A 
ENDBRANCH   4  26
TORSDOF 4
ENDMDL
