MODEL 1
REMARK VINA RESULT:      40.1      0.000      0.000
REMARK  5 active torsions:
REMARK  status: ('A' for Active; 'I' for Inactive)
REMARK    1  A    between atoms: S_10  and  C_4 
REMARK    2  A    between atoms: C_15  and  S_10 
REMARK    3  A    between atoms: C_11  and  C_15 
REMARK       I    between atoms: N_12  and  C_11 
REMARK    4  A    between atoms: C_16  and  N_12 
REMARK    5  A    between atoms: C_17  and  C_16 
ROOT
ATOM      1  C   UNL d   1      13.993  13.073  -2.036  0.00  0.00     0.141 A 
ATOM      2  C   UNL d   1      13.491  12.424  -2.123  0.00  0.00     0.110 A 
ATOM      3  O   UNL d   1      14.148  13.379  -2.786  0.00  0.00    -0.303 OA
ATOM      4  C   UNL d   1      14.245  13.302  -1.284  0.00  0.00     0.137 A 
ATOM      5  N   UNL d   1      13.994  12.881  -0.620  0.00  0.00    -0.218 NA
ATOM      6  C   UNL d   1      13.335  12.329  -2.928  0.00  0.00     0.043 A 
ATOM      7  N   UNL d   1      13.240  12.004  -1.459  0.00  0.00    -0.225 NA
ATOM      8  C   UNL d   1      13.742  12.920  -3.338  0.00  0.00     0.102 A 
ATOM      9  C   UNL d   1      13.492  12.232  -0.707  0.00  0.00     0.163 A 
ATOM     10  C   UNL d   1      12.876  11.782  -3.341  0.00  0.00     0.004 A 
ATOM     11  C   UNL d   1      13.688  12.962  -4.160  0.00  0.00     0.025 A 
ATOM     12  C   UNL d   1      13.241  11.812  -0.043  0.00  0.00     0.042 C 
ATOM     13  C   UNL d   1      12.823  11.824  -4.164  0.00  0.00     0.000 A 
ATOM     14  C   UNL d   1      13.229  12.414  -4.573  0.00  0.00     0.002 A 
ENDROOT
BRANCH   4  15
ATOM     15  S   UNL d   1      14.746  13.949  -1.195  0.00  0.00    -0.060 SA
BRANCH  15  16
ATOM     16  C   UNL d   1      14.943  14.219  -0.439  0.00  0.00     0.099 C 
BRANCH  16  17
ATOM     17  C   UNL d   1      15.696  14.517  -0.291  0.00  0.00     0.286 C 
ATOM     18  N   UNL d   1      15.821  15.333  -0.277  0.00  0.00    -0.204 NA
ATOM     19  O   UNL d   1      16.326  14.001  -0.156  0.00  0.00    -0.265 OA
BRANCH  18  20
ATOM     20  C   UNL d   1      15.193  15.849  -0.411  0.00  0.00     0.127 C 
BRANCH  20  21
ATOM     21  C   UNL d   1      15.310  16.539  -0.847  0.00  0.00     0.119 A 
ATOM     22  O   UNL d   1      15.270  16.605  -1.669  0.00  0.00    -0.304 OA
ATOM     23  C   UNL d   1      15.422  17.390  -1.869  0.00  0.00     0.123 A 
ATOM     24  C   UNL d   1      15.557  17.810  -1.172  0.00  0.00     0.029 A 
ATOM     25  C   UNL d   1      15.488  17.284  -0.540  0.00  0.00     0.028 A 
ENDBRANCH  20  21
ENDBRANCH  18  20
ENDBRANCH  16  17
ENDBRANCH  15  16
ENDBRANCH   4  15
TORSDOF 5
ENDMDL
