MODEL 1
REMARK VINA RESULT:      -5.8      0.000      0.000
REMARK  3 active torsions:
REMARK  status: ('A' for Active; 'I' for Inactive)
REMARK    1  A    between atoms: N_2  and  S_1 
REMARK    2  A    between atoms: C_3  and  C_7 
REMARK       I    between atoms: N_4  and  C_3 
REMARK    3  A    between atoms: C_13  and  N_4 
ROOT
ATOM      1  N   UNL d   1     -41.682-123.034 -49.889  0.00  0.00    -0.233 N 
ATOM      2  C   UNL d   1     -41.590-122.556 -51.451  0.00  0.00     0.061 A 
ATOM      3  C   UNL d   1     -42.147-122.410 -50.160  0.00  0.00     0.091 A 
ATOM      4  C   UNL d   1     -41.179-123.413 -50.398  0.00  0.00     0.091 A 
ATOM      5  C   UNL d   1     -41.126-123.181 -51.180  0.00  0.00     0.025 A 
ATOM      6  C   UNL d   1     -42.106-122.165 -50.939  0.00  0.00     0.025 A 
ENDROOT
BRANCH   2   7
ATOM      7  C   UNL d   1     -41.543-122.313 -52.246  0.00  0.00     0.279 C 
ATOM      8  N   UNL d   1     -41.881-122.791 -52.835  0.00  0.00    -0.208 NA
ATOM      9  O   UNL d   1     -41.170-121.616 -52.444  0.00  0.00    -0.265 OA
BRANCH   8  10
ATOM     10  C   UNL d   1     -41.838-122.554 -53.628  0.00  0.00     0.085 A 
ATOM     11  C   UNL d   1     -42.397-122.016 -53.936  0.00  0.00     0.019 A 
ATOM     12  C   UNL d   1     -42.346-121.785 -54.729  0.00  0.00     0.002 A 
ATOM     13  C   UNL d   1     -41.749-122.080 -55.213  0.00  0.00     0.000 A 
ATOM     14  C   UNL d   1     -41.192-122.615 -54.907  0.00  0.00     0.002 A 
ATOM     15  C   UNL d   1     -41.701-121.846 -56.005  0.00  0.00     0.000 C 
ATOM     16  C   UNL d   1     -41.241-122.847 -54.117  0.00  0.00     0.019 A 
ENDBRANCH   8  10
ENDBRANCH   2   7
BRANCH   1  17
ATOM     17  S   UNL d   1     -41.734-123.271 -49.097  0.00  0.00     0.252 S 
ATOM     18  O   UNL d   1     -41.123-122.751 -48.904  0.00  0.00    -0.204 OA
ATOM     19  O   UNL d   1     -42.391-123.817 -49.355  0.00  0.00    -0.204 OA
ATOM     20  C   UNL d   1     -41.787-123.507 -48.316  0.00  0.00     0.164 C 
ENDBRANCH   1  17
TORSDOF 3
ENDMDL
MODEL 2
REMARK VINA RESULT:      -5.3      1.643      4.752
REMARK  3 active torsions:
REMARK  status: ('A' for Active; 'I' for Inactive)
REMARK    1  A    between atoms: N_2  and  S_1 
REMARK    2  A    between atoms: C_3  and  C_7 
REMARK       I    between atoms: N_4  and  C_3 
REMARK    3  A    between atoms: C_13  and  N_4 
ROOT
ATOM      1  N   UNL d   1     -41.507-122.667 -53.644  0.00  0.00    -0.233 N 
ATOM      2  C   UNL d   1     -41.518-122.629 -52.008  0.00  0.00     0.061 A 
ATOM      3  C   UNL d   1     -41.140-123.266 -53.213  0.00  0.00     0.091 A 
ATOM      4  C   UNL d   1     -41.875-122.058 -53.256  0.00  0.00     0.091 A 
ATOM      5  C   UNL d   1     -41.885-122.031 -52.440  0.00  0.00     0.025 A 
ATOM      6  C   UNL d   1     -41.142-123.253 -52.395  0.00  0.00     0.025 A 
ENDROOT
BRANCH   2   7
ATOM      7  C   UNL d   1     -41.524-122.610 -51.176  0.00  0.00     0.279 C 
ATOM      8  N   UNL d   1     -41.939-123.198 -50.761  0.00  0.00    -0.208 NA
ATOM      9  O   UNL d   1     -41.128-122.022 -50.773  0.00  0.00    -0.265 OA
BRANCH   8  10
ATOM     10  C   UNL d   1     -41.947-123.184 -49.932  0.00  0.00     0.085 A 
ATOM     11  C   UNL d   1     -42.619-122.900 -49.526  0.00  0.00     0.019 A 
ATOM     12  C   UNL d   1     -42.620-122.889 -48.698  0.00  0.00     0.002 A 
ATOM     13  C   UNL d   1     -41.964-123.156 -48.276  0.00  0.00     0.000 A 
ATOM     14  C   UNL d   1     -41.296-123.438 -48.681  0.00  0.00     0.002 A 
ATOM     15  C   UNL d   1     -41.969-123.143 -47.449  0.00  0.00     0.000 C 
ATOM     16  C   UNL d   1     -41.294-123.450 -49.505  0.00  0.00     0.019 A 
ENDBRANCH   8  10
ENDBRANCH   2   7
BRANCH   1  17
ATOM     17  S   UNL d   1     -41.498-122.692 -54.472  0.00  0.00     0.252 S 
ATOM     18  O   UNL d   1     -41.835-123.445 -54.450  0.00  0.00    -0.204 OA
ATOM     19  O   UNL d   1     -41.135-121.878 -54.443  0.00  0.00    -0.204 OA
ATOM     20  C   UNL d   1     -41.488-122.714 -55.289  0.00  0.00     0.164 C 
ENDBRANCH   1  17
TORSDOF 3
ENDMDL
MODEL 3
REMARK VINA RESULT:      -3.8      2.052      4.825
REMARK  3 active torsions:
REMARK  status: ('A' for Active; 'I' for Inactive)
REMARK    1  A    between atoms: N_2  and  S_1 
REMARK    2  A    between atoms: C_3  and  C_7 
REMARK       I    between atoms: N_4  and  C_3 
REMARK    3  A    between atoms: C_13  and  N_4 
ROOT
ATOM      1  N   UNL d   1     -42.041-122.123 -54.784  0.00  0.00    -0.233 N 
ATOM      2  C   UNL d   1     -41.706-122.661 -53.275  0.00  0.00     0.061 A 
ATOM      3  C   UNL d   1     -41.869-122.918 -54.656  0.00  0.00     0.091 A 
ATOM      4  C   UNL d   1     -42.044-121.606 -54.160  0.00  0.00     0.091 A 
ATOM      5  C   UNL d   1     -41.878-121.865 -53.403  0.00  0.00     0.025 A 
ATOM      6  C   UNL d   1     -41.700-123.195 -53.904  0.00  0.00     0.025 A 
ENDROOT
BRANCH   2   7
ATOM      7  C   UNL d   1     -41.536-122.934 -52.508  0.00  0.00     0.279 C 
ATOM      8  N   UNL d   1     -41.793-122.490 -51.854  0.00  0.00    -0.208 NA
ATOM      9  O   UNL d   1     -41.123-123.628 -52.398  0.00  0.00    -0.265 OA
BRANCH   8  10
ATOM     10  C   UNL d   1     -41.627-122.758 -51.088  0.00  0.00     0.085 A 
ATOM     11  C   UNL d   1     -41.770-123.554 -50.882  0.00  0.00     0.019 A 
ATOM     12  C   UNL d   1     -41.601-123.814 -50.114  0.00  0.00     0.002 A 
ATOM     13  C   UNL d   1     -41.293-123.292 -49.555  0.00  0.00     0.000 A 
ATOM     14  C   UNL d   1     -41.151-122.499 -49.760  0.00  0.00     0.002 A 
ATOM     15  C   UNL d   1     -41.126-123.555 -48.789  0.00  0.00     0.000 C 
ATOM     16  C   UNL d   1     -41.319-122.239 -50.524  0.00  0.00     0.019 A 
ENDBRANCH   8  10
ENDBRANCH   2   7
BRANCH   1  17
ATOM     17  S   UNL d   1     -42.209-121.857 -55.550  0.00  0.00     0.252 S 
ATOM     18  O   UNL d   1     -42.974-121.659 -55.310  0.00  0.00    -0.204 OA
ATOM     19  O   UNL d   1     -41.374-122.087 -55.760  0.00  0.00    -0.204 OA
ATOM     20  C   UNL d   1     -42.373-121.595 -56.307  0.00  0.00     0.164 C 
ENDBRANCH   1  17
TORSDOF 3
ENDMDL
