MODEL 1
REMARK VINA RESULT:      -8.3      0.000      0.000
REMARK  1 active torsions:
REMARK  status: ('A' for Active; 'I' for Inactive)
REMARK    1  A    between atoms: C_6  and  C_1 
ROOT
ATOM      1  C   UNL d   1      52.254  32.995  53.000  0.00  0.00     0.168 A 
ATOM      2  C   UNL d   1      52.910  32.927  53.494  0.00  0.00     0.045 A 
ATOM      3  N   UNL d   1      52.236  32.341  52.497  0.00  0.00    -0.142 NA
ATOM      4  N   UNL d   1      52.887  31.863  52.682  0.00  0.00    -0.148 NA
ATOM      5  C   UNL d   1      53.306  32.233  53.305  0.00  0.00     0.105 A 
ATOM      6  C   UNL d   1      53.204  33.409  54.097  0.00  0.00     0.003 A 
ATOM      7  C   UNL d   1      53.991  32.007  53.706  0.00  0.00     0.021 A 
ATOM      8  C   UNL d   1      53.886  33.194  54.504  0.00  0.00     0.000 A 
ATOM      9  C   UNL d   1      54.281  32.491  54.308  0.00  0.00     0.002 A 
ATOM     10  C   UNL d   1      54.180  33.676  55.107  0.00  0.00     0.000 C 
ENDROOT
BRANCH   1  11
ATOM     11  C   UNL d   1      51.708  33.612  53.006  0.00  0.00     0.231 C 
ATOM     12  O   UNL d   1      51.844  34.294  52.557  0.00  0.00    -0.643 OA
ATOM     13  O   UNL d   1      51.022  33.552  53.462  0.00  0.00    -0.643 OA
ENDBRANCH   1  11
TORSDOF 1
ENDMDL
MODEL 2
REMARK VINA RESULT:      -8.3      1.838      2.260
REMARK  1 active torsions:
REMARK  status: ('A' for Active; 'I' for Inactive)
REMARK    1  A    between atoms: C_6  and  C_1 
ROOT
ATOM      1  C   UNL d   1      53.195  31.208  53.256  0.00  0.00     0.168 A 
ATOM      2  C   UNL d   1      53.406  31.919  53.613  0.00  0.00     0.045 A 
ATOM      3  N   UNL d   1      52.710  31.373  52.610  0.00  0.00    -0.142 NA
ATOM      4  N   UNL d   1      52.620  32.195  52.566  0.00  0.00    -0.148 NA
ATOM      5  C   UNL d   1      53.057  32.533  53.195  0.00  0.00     0.105 A 
ATOM      6  C   UNL d   1      53.875  32.093  54.271  0.00  0.00     0.003 A 
ATOM      7  C   UNL d   1      53.165  33.321  53.418  0.00  0.00     0.021 A 
ATOM      8  C   UNL d   1      53.990  32.875  54.503  0.00  0.00     0.000 A 
ATOM      9  C   UNL d   1      53.634  33.490  54.076  0.00  0.00     0.002 A 
ATOM     10  C   UNL d   1      54.459  33.049  55.161  0.00  0.00     0.000 C 
ENDROOT
BRANCH   1  11
ATOM     11  C   UNL d   1      53.428  30.457  53.503  0.00  0.00     0.231 C 
ATOM     12  O   UNL d   1      54.152  30.142  53.254  0.00  0.00    -0.643 OA
ATOM     13  O   UNL d   1      52.939  30.014  54.000  0.00  0.00    -0.643 OA
ENDBRANCH   1  11
TORSDOF 1
ENDMDL
MODEL 3
REMARK VINA RESULT:      -8.3      1.665      2.133
REMARK  1 active torsions:
REMARK  status: ('A' for Active; 'I' for Inactive)
REMARK    1  A    between atoms: C_6  and  C_1 
ROOT
ATOM      1  C   UNL d   1      52.934  34.609  54.007  0.00  0.00     0.168 A 
ATOM      2  C   UNL d   1      53.331  33.912  54.198  0.00  0.00     0.045 A 
ATOM      3  N   UNL d   1      53.140  35.186  54.559  0.00  0.00    -0.142 NA
ATOM      4  N   UNL d   1      53.670  34.845  55.096  0.00  0.00    -0.148 NA
ATOM      5  C   UNL d   1      53.787  34.048  54.867  0.00  0.00     0.105 A 
ATOM      6  C   UNL d   1      53.340  33.164  53.848  0.00  0.00     0.003 A 
ATOM      7  C   UNL d   1      54.253  33.452  55.197  0.00  0.00     0.021 A 
ATOM      8  C   UNL d   1      53.801  32.562  54.168  0.00  0.00     0.000 A 
ATOM      9  C   UNL d   1      54.259  32.707  54.844  0.00  0.00     0.002 A 
ATOM     10  C   UNL d   1      53.810  31.813  53.818  0.00  0.00     0.000 C 
ENDROOT
BRANCH   1  11
ATOM     11  C   UNL d   1      52.418  34.711  53.373  0.00  0.00     0.231 C 
ATOM     12  O   UNL d   1      51.606  34.586  53.472  0.00  0.00    -0.643 OA
ATOM     13  O   UNL d   1      52.711  34.939  52.635  0.00  0.00    -0.643 OA
ENDBRANCH   1  11
TORSDOF 1
ENDMDL
MODEL 4
REMARK VINA RESULT:      -8.2      1.924      2.687
REMARK  1 active torsions:
REMARK  status: ('A' for Active; 'I' for Inactive)
REMARK    1  A    between atoms: C_6  and  C_1 
ROOT
ATOM      1  C   UNL d   1      53.819  33.150  54.282  0.00  0.00     0.168 A 
ATOM      2  C   UNL d   1      53.516  32.503  53.871  0.00  0.00     0.045 A 
ATOM      3  N   UNL d   1      53.381  33.818  54.077  0.00  0.00    -0.142 NA
ATOM      4  N   UNL d   1      52.801  33.584  53.535  0.00  0.00    -0.148 NA
ATOM      5  C   UNL d   1      52.888  32.760  53.409  0.00  0.00     0.105 A 
ATOM      6  C   UNL d   1      53.729  31.705  53.856  0.00  0.00     0.003 A 
ATOM      7  C   UNL d   1      52.466  32.237  52.929  0.00  0.00     0.021 A 
ATOM      8  C   UNL d   1      53.315  31.175  53.382  0.00  0.00     0.000 A 
ATOM      9  C   UNL d   1      52.683  31.441  52.917  0.00  0.00     0.002 A 
ATOM     10  C   UNL d   1      53.528  30.376  53.367  0.00  0.00     0.000 C 
ENDROOT
BRANCH   1  11
ATOM     11  C   UNL d   1      54.453  33.133  54.808  0.00  0.00     0.231 C 
ATOM     12  O   UNL d   1      54.330  32.940  55.603  0.00  0.00    -0.643 OA
ATOM     13  O   UNL d   1      55.216  33.309  54.542  0.00  0.00    -0.643 OA
ENDBRANCH   1  11
TORSDOF 1
ENDMDL
MODEL 5
REMARK VINA RESULT:      -8.1      1.589      2.279
REMARK  1 active torsions:
REMARK  status: ('A' for Active; 'I' for Inactive)
REMARK    1  A    between atoms: C_6  and  C_1 
ROOT
ATOM      1  C   UNL d   1      53.300  32.568  53.339  0.00  0.00     0.168 A 
ATOM      2  C   UNL d   1      52.961  33.318  53.374  0.00  0.00     0.045 A 
ATOM      3  N   UNL d   1      52.868  32.110  52.807  0.00  0.00    -0.142 NA
ATOM      4  N   UNL d   1      52.254  32.580  52.509  0.00  0.00    -0.148 NA
ATOM      5  C   UNL d   1      52.316  33.335  52.866  0.00  0.00     0.105 A 
ATOM      6  C   UNL d   1      53.154  33.997  53.804  0.00  0.00     0.003 A 
ATOM      7  C   UNL d   1      51.857  34.015  52.777  0.00  0.00     0.021 A 
ATOM      8  C   UNL d   1      52.703  34.681  53.724  0.00  0.00     0.000 A 
ATOM      9  C   UNL d   1      52.054  34.690  53.209  0.00  0.00     0.002 A 
ATOM     10  C   UNL d   1      52.897  35.359  54.154  0.00  0.00     0.000 C 
ENDROOT
BRANCH   1  11
ATOM     11  C   UNL d   1      53.960  32.318  53.764  0.00  0.00     0.231 C 
ATOM     12  O   UNL d   1      54.721  32.440  53.462  0.00  0.00    -0.643 OA
ATOM     13  O   UNL d   1      53.864  31.944  54.495  0.00  0.00    -0.643 OA
ENDBRANCH   1  11
TORSDOF 1
ENDMDL
