MODEL 1
REMARK VINA RESULT:     157.8      0.000      0.000
REMARK  6 active torsions:
REMARK  status: ('A' for Active; 'I' for Inactive)
REMARK    1  A    between atoms: S_5  and  C_3 
REMARK    2  A    between atoms: C_16  and  S_5 
REMARK    3  A    between atoms: C_20  and  N_6 
REMARK    4  A    between atoms: N_19  and  C_25 
REMARK    5  A    between atoms: C_24  and  C_20 
REMARK    6  A    between atoms: C_25  and  C_24 
ROOT
ATOM      1  C   UNL d   1      61.355  44.845  50.695  0.00  0.00     0.155 A 
ATOM      2  C   UNL d   1      61.328  45.202  51.438  0.00  0.00     0.092 A 
ATOM      3  C   UNL d   1      61.068  46.464  50.818  0.00  0.00     0.124 A 
ATOM      4  N   UNL d   1      61.499  44.030  50.635  0.00  0.00    -0.210 NA
ATOM      5  N   UNL d   1      61.240  45.289  50.020  0.00  0.00    -0.273 N 
ATOM      6  C   UNL d   1      61.095  46.106  50.075  0.00  0.00     0.181 A 
ATOM      7  C   UNL d   1      61.446  44.748  52.128  0.00  0.00     0.269 A 
ATOM      8  N   UNL d   1      61.588  43.940  52.065  0.00  0.00    -0.258 N 
ATOM      9  C   UNL d   1      61.184  46.018  51.508  0.00  0.00     0.022 A 
ATOM     10  C   UNL d   1      61.616  43.575  51.316  0.00  0.00     0.152 A 
ATOM     11  N   UNL d   1      60.979  46.553  49.389  0.00  0.00    -0.128 N 
ATOM     12  C   UNL d   1      61.705  43.488  52.750  0.00  0.00     0.084 A 
ATOM     13  O   UNL d   1      61.417  45.114  52.872  0.00  0.00    -0.266 OA
ATOM     14  C   UNL d   1      61.758  42.771  51.259  0.00  0.00     0.038 A 
ATOM     15  C   UNL d   1      61.847  42.681  52.680  0.00  0.00     0.019 A 
ATOM     16  C   UNL d   1      61.874  42.319  51.929  0.00  0.00     0.005 A 
ENDROOT
BRANCH   3  17
ATOM     17  S   UNL d   1      60.925  47.275  50.872  0.00  0.00     0.213 S 
ATOM     18  O   UNL d   1      60.248  47.169  51.321  0.00  0.00    -0.217 OA
ATOM     19  O   UNL d   1      61.602  47.423  50.420  0.00  0.00    -0.217 OA
BRANCH  17  20
ATOM     20  C   UNL d   1      60.784  48.087  50.924  0.00  0.00     0.088 A 
ATOM     21  C   UNL d   1      61.259  48.608  50.494  0.00  0.00     0.011 A 
ATOM     22  C   UNL d   1      61.124  49.417  50.541  0.00  0.00     0.001 A 
ATOM     23  C   UNL d   1      60.516  49.708  51.017  0.00  0.00     0.000 A 
ATOM     24  C   UNL d   1      60.040  49.181  51.448  0.00  0.00     0.001 A 
ATOM     25  C   UNL d   1      60.182  48.371  51.395  0.00  0.00     0.011 A 
ENDBRANCH  17  20
ENDBRANCH   3  17
BRANCH   5  26
ATOM     26  C   UNL d   1      61.267  44.930  49.273  0.00  0.00     0.085 C 
BRANCH  26  27
ATOM     27  C   UNL d   1      60.738  44.322  49.093  0.00  0.00     0.038 C 
BRANCH  27  28
ATOM     28  C   UNL d   1      59.986  44.496  48.829  0.00  0.00     0.082 C 
BRANCH  28  29
ATOM     29  N   UNL d   1      59.395  43.921  48.834  0.00  0.00    -0.299 N 
ATOM     30  C   UNL d   1      58.604  44.148  48.845  0.00  0.00     0.107 A 
ATOM     31  C   UNL d   1      58.011  43.585  48.850  0.00  0.00     0.142 A 
ATOM     32  O   UNL d   1      58.201  42.783  48.845  0.00  0.00    -0.300 OA
ATOM     33  C   UNL d   1      58.995  42.545  48.834  0.00  0.00     0.142 A 
ATOM     34  C   UNL d   1      59.597  43.122  48.829  0.00  0.00     0.107 A 
ENDBRANCH  28  29
ENDBRANCH  27  28
ENDBRANCH  26  27
ENDBRANCH   5  26
TORSDOF 6
ENDMDL
