MODEL 1
REMARK VINA RESULT:      16.3      0.000      0.000
REMARK  2 active torsions:
REMARK  status: ('A' for Active; 'I' for Inactive)
REMARK    1  A    between atoms: N_2  and  S_1 
REMARK    2  A    between atoms: C_3  and  S_1 
ROOT
ATOM      1  C   UNL d   1      45.899 -16.840  44.313  0.00  0.00     0.104 A 
ATOM      2  O   UNL d   1      46.365 -19.236  43.932  0.00  0.00    -0.273 OA
ATOM      3  C   UNL d   1      46.488 -19.522  43.158  0.00  0.00     0.300 A 
ATOM      4  C   UNL d   1      46.175 -17.914  43.419  0.00  0.00     0.024 A 
ATOM      5  C   UNL d   1      46.210 -18.438  44.060  0.00  0.00     0.103 A 
ATOM      6  C   UNL d   1      46.296 -18.192  42.641  0.00  0.00     0.007 A 
ATOM      7  C   UNL d   1      46.019 -17.116  43.547  0.00  0.00     0.015 A 
ATOM      8  C   UNL d   1      46.453 -18.998  42.518  0.00  0.00     0.069 A 
ATOM      9  C   UNL d   1      45.934 -17.364  44.953  0.00  0.00     0.015 A 
ATOM     10  O   UNL d   1      46.644 -20.325  43.037  0.00  0.00    -0.259 OA
ATOM     11  C   UNL d   1      46.090 -18.162  44.826  0.00  0.00     0.025 A 
ENDROOT
BRANCH   1  12
ATOM     12  S   UNL d   1      45.744 -16.045  44.444  0.00  0.00     0.272 S 
ATOM     13  O   UNL d   1      46.367 -15.833  43.947  0.00  0.00    -0.200 OA
ATOM     14  O   UNL d   1      45.119 -16.247  44.943  0.00  0.00    -0.200 OA
BRANCH  12  15
ATOM     15  N   UNL d   1      45.586 -15.244  44.578  0.00  0.00    -0.225 N 
ATOM     16  C   UNL d   1      46.185 -14.681  44.470  0.00  0.00     0.118 A 
ATOM     17  C   UNL d   1      46.029 -13.884  44.603  0.00  0.00     0.142 A 
ATOM     18  O   UNL d   1      45.279 -13.635  44.843  0.00  0.00    -0.300 OA
ATOM     19  C   UNL d   1      44.678 -14.201  44.950  0.00  0.00     0.142 A 
ATOM     20  C   UNL d   1      44.829 -15.002  44.819  0.00  0.00     0.118 A 
ENDBRANCH  12  15
ENDBRANCH   1  12
TORSDOF 2
ENDMDL
MODEL 2
REMARK VINA RESULT:      17.9      0.977      4.237
REMARK  2 active torsions:
REMARK  status: ('A' for Active; 'I' for Inactive)
REMARK    1  A    between atoms: N_2  and  S_1 
REMARK    2  A    between atoms: C_3  and  S_1 
ROOT
ATOM      1  C   UNL d   1      45.679 -16.302  44.352  0.00  0.00     0.104 A 
ATOM      2  O   UNL d   1      44.995 -14.004  44.946  0.00  0.00    -0.273 OA
ATOM      3  C   UNL d   1      45.480 -13.356  44.744  0.00  0.00     0.300 A 
ATOM      4  C   UNL d   1      45.935 -14.901  44.348  0.00  0.00     0.024 A 
ATOM      5  C   UNL d   1      45.222 -14.770  44.748  0.00  0.00     0.103 A 
ATOM      6  C   UNL d   1      46.427 -14.259  44.142  0.00  0.00     0.007 A 
ATOM      7  C   UNL d   1      46.162 -15.667  44.150  0.00  0.00     0.015 A 
ATOM      8  C   UNL d   1      46.193 -13.488  44.343  0.00  0.00     0.069 A 
ATOM      9  C   UNL d   1      44.966 -16.170  44.753  0.00  0.00     0.015 A 
ATOM     10  O   UNL d   1      45.246 -12.589  44.945  0.00  0.00    -0.259 OA
ATOM     11  C   UNL d   1      44.739 -15.404  44.951  0.00  0.00     0.025 A 
ENDROOT
BRANCH   1  12
ATOM     12  S   UNL d   1      45.902 -17.067  44.157  0.00  0.00     0.272 S 
ATOM     13  O   UNL d   1      45.920 -16.866  43.357  0.00  0.00    -0.200 OA
ATOM     14  O   UNL d   1      45.887 -17.278  44.955  0.00  0.00    -0.200 OA
BRANCH  12  15
ATOM     15  N   UNL d   1      46.127 -17.839  43.962  0.00  0.00    -0.225 N 
ATOM     16  C   UNL d   1      46.187 -18.064  43.167  0.00  0.00     0.118 A 
ATOM     17  C   UNL d   1      46.411 -18.831  42.971  0.00  0.00     0.142 A 
ATOM     18  O   UNL d   1      46.578 -19.384  43.561  0.00  0.00    -0.300 OA
ATOM     19  C   UNL d   1      46.517 -19.158  44.361  0.00  0.00     0.142 A 
ATOM     20  C   UNL d   1      46.293 -18.390  44.561  0.00  0.00     0.118 A 
ENDBRANCH  12  15
ENDBRANCH   1  12
TORSDOF 2
ENDMDL
