MODEL 1
REMARK VINA RESULT:      58.9      0.000      0.000
REMARK  5 active torsions:
REMARK  status: ('A' for Active; 'I' for Inactive)
REMARK    1  A    between atoms: C_11  and  C_3 
REMARK    2  A    between atoms: C_14  and  C_7 
REMARK    3  A    between atoms: O_18  and  C_11 
REMARK    4  A    between atoms: C_16  and  C_20 
REMARK    5  A    between atoms: C_20  and  O_18 
ROOT
ATOM      1  C   UNL d   1      58.333  49.624  52.902  0.00  0.00     0.172 A 
ATOM      2  C   UNL d   1      58.977  49.640  52.392  0.00  0.00     0.094 A 
ATOM      3  C   UNL d   1      58.106  49.626  51.267  0.00  0.00     0.081 A 
ATOM      4  C   UNL d   1      59.744  49.655  52.706  0.00  0.00     0.286 A 
ATOM      5  N   UNL d   1      58.443  49.623  53.713  0.00  0.00    -0.172 NA
ATOM      6  N   UNL d   1      59.850  49.654  53.520  0.00  0.00    -0.152 NA
ATOM      7  C   UNL d   1      58.865  49.641  51.577  0.00  0.00     0.014 A 
ATOM      8  C   UNL d   1      57.451  49.610  51.775  0.00  0.00     0.088 A 
ATOM      9  N   UNL d   1      57.569  49.609  52.597  0.00  0.00    -0.226 NA
ATOM     10  C   UNL d   1      59.201  49.638  54.023  0.00  0.00     0.373 A 
ATOM     11  O   UNL d   1      60.400  49.672  52.198  0.00  0.00    -0.265 OA
ATOM     12  O   UNL d   1      59.307  49.637  54.843  0.00  0.00    -0.242 OA
ATOM     13  C   UNL d   1      56.689  49.595  51.468  0.00  0.00     0.021 C 
ENDROOT
BRANCH   3  14
ATOM     14  C   UNL d   1      57.986  49.627  50.454  0.00  0.00     0.302 C 
ATOM     15  O   UNL d   1      58.637  49.567  49.943  0.00  0.00    -0.259 OA
BRANCH  14  16
ATOM     16  O   UNL d   1      57.224  49.688  50.144  0.00  0.00    -0.271 OA
BRANCH  16  17
ATOM     17  C   UNL d   1      57.084  49.503  49.350  0.00  0.00     0.126 C 
BRANCH  17  18
ATOM     18  C   UNL d   1      56.870  48.734  49.137  0.00  0.00     0.027 C 
ATOM     19  C   UNL d   1      56.168  48.406  49.412  0.00  0.00     0.002 C 
ENDBRANCH  17  18
ENDBRANCH  16  17
ENDBRANCH  14  16
ENDBRANCH   3  14
BRANCH   7  20
ATOM     20  C   UNL d   1      59.517  49.657  51.072  0.00  0.00     0.001 A 
ATOM     21  C   UNL d   1      60.280  49.691  51.388  0.00  0.00     0.000 A 
ATOM     22  C   UNL d   1      60.938  49.707  50.883  0.00  0.00     0.000 A 
ATOM     23  C   UNL d   1      60.827  49.690  50.068  0.00  0.00     0.000 A 
ATOM     24  C   UNL d   1      60.064  49.657  49.752  0.00  0.00     0.000 A 
ATOM     25  C   UNL d   1      59.408  49.641  50.260  0.00  0.00     0.000 A 
ENDBRANCH   7  20
TORSDOF 5
ENDMDL
MODEL 2
REMARK VINA RESULT:      59.5      1.309      3.495
REMARK  5 active torsions:
REMARK  status: ('A' for Active; 'I' for Inactive)
REMARK    1  A    between atoms: C_11  and  C_3 
REMARK    2  A    between atoms: C_14  and  C_7 
REMARK    3  A    between atoms: O_18  and  C_11 
REMARK    4  A    between atoms: C_16  and  C_20 
REMARK    5  A    between atoms: C_20  and  O_18 
ROOT
ATOM      1  C   UNL d   1      58.361  49.571  51.497  0.00  0.00     0.172 A 
ATOM      2  C   UNL d   1      58.893  49.561  50.872  0.00  0.00     0.094 A 
ATOM      3  C   UNL d   1      59.986  49.598  51.781  0.00  0.00     0.081 A 
ATOM      4  C   UNL d   1      58.607  49.536  50.094  0.00  0.00     0.286 A 
ATOM      5  N   UNL d   1      57.554  49.558  51.358  0.00  0.00    -0.172 NA
ATOM      6  N   UNL d   1      57.797  49.523  49.959  0.00  0.00    -0.152 NA
ATOM      7  C   UNL d   1      59.704  49.574  51.012  0.00  0.00     0.014 A 
ATOM      8  C   UNL d   1      59.455  49.609  52.418  0.00  0.00     0.088 A 
ATOM      9  N   UNL d   1      58.638  49.596  52.271  0.00  0.00    -0.226 NA
ATOM     10  C   UNL d   1      57.272  49.534  50.590  0.00  0.00     0.373 A 
ATOM     11  O   UNL d   1      59.138  49.525  49.457  0.00  0.00    -0.265 OA
ATOM     12  O   UNL d   1      56.456  49.520  50.455  0.00  0.00    -0.242 OA
ATOM     13  C   UNL d   1      59.734  49.633  53.190  0.00  0.00     0.021 C 
ENDROOT
BRANCH   3  14
ATOM     14  C   UNL d   1      60.795  49.612  51.930  0.00  0.00     0.302 C 
ATOM     15  O   UNL d   1      61.327  49.675  51.298  0.00  0.00    -0.259 OA
BRANCH  14  16
ATOM     16  O   UNL d   1      61.078  49.563  52.703  0.00  0.00    -0.271 OA
BRANCH  16  17
ATOM     17  C   UNL d   1      61.886  49.654  52.855  0.00  0.00     0.126 C 
BRANCH  17  18
ATOM     18  C   UNL d   1      62.259  49.164  53.406  0.00  0.00     0.027 C 
ATOM     19  C   UNL d   1      63.077  49.177  53.488  0.00  0.00     0.002 C 
ENDBRANCH  17  18
ENDBRANCH  16  17
ENDBRANCH  14  16
ENDBRANCH   3  14
BRANCH   7  20
ATOM     20  C   UNL d   1      60.232  49.563  50.378  0.00  0.00     0.001 A 
ATOM     21  C   UNL d   1      61.041  49.477  50.520  0.00  0.00     0.000 A 
ATOM     22  C   UNL d   1      61.576  49.465  49.885  0.00  0.00     0.000 A 
ATOM     23  C   UNL d   1      61.294  49.541  49.116  0.00  0.00     0.000 A 
ATOM     24  C   UNL d   1      60.485  49.627  48.974  0.00  0.00     0.000 A 
ATOM     25  C   UNL d   1      59.954  49.638  49.611  0.00  0.00     0.000 A 
ENDBRANCH   7  20
TORSDOF 5
ENDMDL
