MODEL 1
REMARK VINA RESULT:      -2.7      0.000      0.000
REMARK  3 active torsions:
REMARK  status: ('A' for Active; 'I' for Inactive)
REMARK    1  A    between atoms: C_5  and  N_1 
REMARK    2  A    between atoms: C_13  and  C_3 
REMARK    3  A    between atoms: C_4  and  C_5 
ROOT
ATOM      1  N   UNL d   1      32.402  17.320 -23.974  0.00  0.00    -0.286 N 
ATOM      2  N   UNL d   1      31.691  16.216 -23.652  0.00  0.00    -0.224 NA
ATOM      3  C   UNL d   1      32.443  16.581 -23.603  0.00  0.00     0.191 A 
ATOM      4  C   UNL d   1      31.624  17.424 -24.257  0.00  0.00     0.083 A 
ATOM      5  C   UNL d   1      31.190  16.745 -24.059  0.00  0.00     0.099 A 
ATOM      6  C   UNL d   1      31.248  18.044 -24.671  0.00  0.00     0.019 A 
ATOM      7  C   UNL d   1      30.386  16.680 -24.269  0.00  0.00     0.021 A 
ATOM      8  C   UNL d   1      30.453  17.982 -24.879  0.00  0.00     0.002 A 
ATOM      9  C   UNL d   1      30.022  17.301 -24.679  0.00  0.00     0.002 A 
ENDROOT
BRANCH   1  10
ATOM     10  C   UNL d   1      33.110  17.744 -23.966  0.00  0.00     0.082 C 
BRANCH  10  11
ATOM     11  C   UNL d   1      33.114  18.530 -23.728  0.00  0.00     0.018 A 
ATOM     12  C   UNL d   1      33.174  19.132 -24.294  0.00  0.00     0.001 A 
ATOM     13  C   UNL d   1      33.179  19.918 -24.057  0.00  0.00     0.000 A 
ATOM     14  C   UNL d   1      33.229  18.941 -25.091  0.00  0.00     0.000 C 
ATOM     15  C   UNL d   1      33.239  20.518 -24.622  0.00  0.00     0.000 C 
ATOM     16  C   UNL d   1      33.124  20.109 -23.259  0.00  0.00     0.000 A 
ATOM     17  C   UNL d   1      33.064  19.505 -22.696  0.00  0.00     0.000 A 
ATOM     18  C   UNL d   1      33.060  18.718 -22.935  0.00  0.00     0.001 A 
ATOM     19  C   UNL d   1      33.009  19.680 -21.895  0.00  0.00     0.000 C 
ATOM     20  C   UNL d   1      33.001  18.116 -22.381  0.00  0.00     0.000 C 
ENDBRANCH  10  11
ENDBRANCH   1  10
BRANCH   3  21
ATOM     21  C   UNL d   1      33.110  16.257 -23.246  0.00  0.00     0.271 C 
ATOM     22  O   UNL d   1      33.135  15.455 -23.066  0.00  0.00    -0.280 OA
ENDBRANCH   3  21
TORSDOF 3
ENDMDL
MODEL 2
REMARK VINA RESULT:      -0.7      1.600      3.574
REMARK  3 active torsions:
REMARK  status: ('A' for Active; 'I' for Inactive)
REMARK    1  A    between atoms: C_5  and  N_1 
REMARK    2  A    between atoms: C_13  and  C_3 
REMARK    3  A    between atoms: C_4  and  C_5 
ROOT
ATOM      1  N   UNL d   1      32.813  18.731 -24.292  0.00  0.00    -0.286 N 
ATOM      2  N   UNL d   1      33.228  19.831 -23.625  0.00  0.00    -0.224 NA
ATOM      3  C   UNL d   1      33.031  19.524 -24.379  0.00  0.00     0.191 A 
ATOM      4  C   UNL d   1      32.872  18.534 -23.483  0.00  0.00     0.083 A 
ATOM      5  C   UNL d   1      33.127  19.211 -23.076  0.00  0.00     0.099 A 
ATOM      6  C   UNL d   1      32.729  17.830 -23.058  0.00  0.00     0.019 A 
ATOM      7  C   UNL d   1      33.240  19.191 -22.250  0.00  0.00     0.021 A 
ATOM      8  C   UNL d   1      32.841  17.808 -22.241  0.00  0.00     0.002 A 
ATOM      9  C   UNL d   1      33.096  18.488 -21.838  0.00  0.00     0.002 A 
ENDROOT
BRANCH   1  10
ATOM     10  C   UNL d   1      32.603  18.356 -24.996  0.00  0.00     0.082 C 
BRANCH  10  11
ATOM     11  C   UNL d   1      32.107  17.702 -24.981  0.00  0.00     0.018 A 
ATOM     12  C   UNL d   1      32.427  16.940 -25.024  0.00  0.00     0.001 A 
ATOM     13  C   UNL d   1      31.932  16.286 -25.008  0.00  0.00     0.000 A 
ATOM     14  C   UNL d   1      33.241  16.840 -25.082  0.00  0.00     0.000 C 
ATOM     15  C   UNL d   1      32.252  15.525 -25.051  0.00  0.00     0.000 C 
ATOM     16  C   UNL d   1      31.118  16.385 -24.950  0.00  0.00     0.000 A 
ATOM     17  C   UNL d   1      30.800  17.149 -24.907  0.00  0.00     0.000 A 
ATOM     18  C   UNL d   1      31.297  17.803 -24.923  0.00  0.00     0.001 A 
ATOM     19  C   UNL d   1      29.989  17.264 -24.848  0.00  0.00     0.000 C 
ATOM     20  C   UNL d   1      30.988  18.562 -24.880  0.00  0.00     0.000 C 
ENDBRANCH  10  11
ENDBRANCH   1  10
BRANCH   3  21
ATOM     21  C   UNL d   1      33.051  19.945 -25.086  0.00  0.00     0.271 C 
ATOM     22  O   UNL d   1      33.209  20.752 -25.085  0.00  0.00    -0.280 OA
ENDBRANCH   3  21
TORSDOF 3
ENDMDL
MODEL 3
REMARK VINA RESULT:      -0.5      1.776      3.802
REMARK  3 active torsions:
REMARK  status: ('A' for Active; 'I' for Inactive)
REMARK    1  A    between atoms: C_5  and  N_1 
REMARK    2  A    between atoms: C_13  and  C_3 
REMARK    3  A    between atoms: C_4  and  C_5 
ROOT
ATOM      1  N   UNL d   1      31.510  17.271 -24.421  0.00  0.00    -0.286 N 
ATOM      2  N   UNL d   1      32.638  17.842 -23.944  0.00  0.00    -0.224 NA
ATOM      3  C   UNL d   1      32.016  17.921 -24.498  0.00  0.00     0.191 A 
ATOM      4  C   UNL d   1      31.811  16.779 -23.818  0.00  0.00     0.083 A 
ATOM      5  C   UNL d   1      32.504  17.131 -23.527  0.00  0.00     0.099 A 
ATOM      6  C   UNL d   1      31.551  16.057 -23.492  0.00  0.00     0.019 A 
ATOM      7  C   UNL d   1      32.938  16.770 -22.914  0.00  0.00     0.021 A 
ATOM      8  C   UNL d   1      31.979  15.696 -22.885  0.00  0.00     0.002 A 
ATOM      9  C   UNL d   1      32.671  16.052 -22.597  0.00  0.00     0.002 A 
ENDROOT
BRANCH   1  10
ATOM     10  C   UNL d   1      30.867  17.277 -24.938  0.00  0.00     0.082 C 
BRANCH  10  11
ATOM     11  C   UNL d   1      30.112  17.119 -24.655  0.00  0.00     0.018 A 
ATOM     12  C   UNL d   1      29.674  17.720 -24.291  0.00  0.00     0.001 A 
ATOM     13  C   UNL d   1      28.919  17.563 -24.008  0.00  0.00     0.000 A 
ATOM     14  C   UNL d   1      29.994  18.472 -24.214  0.00  0.00     0.000 C 
ATOM     15  C   UNL d   1      28.482  18.162 -23.645  0.00  0.00     0.000 C 
ATOM     16  C   UNL d   1      28.598  16.810 -24.085  0.00  0.00     0.000 A 
ATOM     17  C   UNL d   1      29.039  16.211 -24.450  0.00  0.00     0.000 A 
ATOM     18  C   UNL d   1      29.794  16.370 -24.733  0.00  0.00     0.001 A 
ATOM     19  C   UNL d   1      28.731  15.453 -24.534  0.00  0.00     0.000 C 
ATOM     20  C   UNL d   1      30.235  15.780 -25.095  0.00  0.00     0.000 C 
ENDBRANCH  10  11
ENDBRANCH   1  10
BRANCH   3  21
ATOM     21  C   UNL d   1      31.925  18.543 -25.029  0.00  0.00     0.271 C 
ATOM     22  O   UNL d   1      32.508  19.119 -25.097  0.00  0.00    -0.280 OA
ENDBRANCH   3  21
TORSDOF 3
ENDMDL
