MODEL 1
REMARK VINA RESULT:      48.0      0.000      0.000
REMARK  3 active torsions:
REMARK  status: ('A' for Active; 'I' for Inactive)
REMARK    1  A    between atoms: N_10  and  C_3 
REMARK    2  A    between atoms: C_11  and  C_5 
REMARK    3  A    between atoms: C_15  and  N_10 
ROOT
ATOM      1  N   UNL d   1      45.811 -18.103  41.661  0.00  0.00    -0.184 N 
ATOM      2  C   UNL d   1      45.983 -18.645  42.283  0.00  0.00     0.168 A 
ATOM      3  C   UNL d   1      45.926 -18.334  40.871  0.00  0.00     0.217 A 
ATOM      4  N   UNL d   1      45.418 -17.125  42.621  0.00  0.00    -0.162 NA
ATOM      5  C   UNL d   1      45.872 -18.420  43.054  0.00  0.00     0.055 A 
ATOM      6  N   UNL d   1      46.264 -19.398  42.093  0.00  0.00    -0.227 NA
ATOM      7  C   UNL d   1      46.204 -19.081  40.700  0.00  0.00     0.066 A 
ATOM      8  C   UNL d   1      45.588 -17.658  43.234  0.00  0.00     0.104 A 
ATOM      9  C   UNL d   1      46.379 -19.629  41.316  0.00  0.00     0.087 A 
ATOM     10  C   UNL d   1      46.369 -19.459  39.997  0.00  0.00     0.006 A 
ATOM     11  C   UNL d   1      45.477 -17.439  44.018  0.00  0.00     0.023 C 
ATOM     12  C   UNL d   1      46.646 -20.329  40.978  0.00  0.00     0.019 A 
ATOM     13  C   UNL d   1      46.639 -20.219  40.150  0.00  0.00     0.002 A 
ENDROOT
BRANCH   5  14
ATOM     14  C   UNL d   1      46.040 -18.950  43.663  0.00  0.00     0.004 A 
ATOM     15  C   UNL d   1      46.477 -18.705  44.318  0.00  0.00     0.000 A 
ATOM     16  C   UNL d   1      46.647 -19.230  44.926  0.00  0.00     0.000 A 
ATOM     17  C   UNL d   1      46.378 -20.012  44.882  0.00  0.00     0.000 A 
ATOM     18  C   UNL d   1      45.945 -20.263  44.238  0.00  0.00     0.000 A 
ATOM     19  C   UNL d   1      45.775 -19.727  43.622  0.00  0.00     0.000 A 
ENDBRANCH   5  14
BRANCH   3  20
ATOM     20  N   UNL d   1      45.753 -17.789  40.240  0.00  0.00    -0.383 NA
BRANCH  20  21
ATOM     21  C   UNL d   1      45.584 -17.247  39.617  0.00  0.00     0.134 C 
ATOM     22  C   UNL d   1      44.788 -17.151  39.356  0.00  0.00     0.035 C 
ATOM     23  C   UNL d   1      46.217 -16.802  39.259  0.00  0.00     0.035 C 
ENDBRANCH  20  21
ENDBRANCH   3  20
TORSDOF 3
ENDMDL
