MODEL 1
REMARK VINA RESULT:      39.3      0.000      0.000
REMARK  4 active torsions:
REMARK  status: ('A' for Active; 'I' for Inactive)
REMARK    1  A    between atoms: C_6  and  C_1 
REMARK    2  A    between atoms: C_4  and  C_2 
REMARK    3  A    between atoms: C_3  and  N_5 
REMARK    4  A    between atoms: N_5  and  C_7 
ROOT
ATOM      1  C   UNL d   1     -51.913  25.031  33.328  0.00  0.00     0.073 A 
ATOM      2  C   UNL d   1     -51.199  26.263  33.320  0.00  0.00     0.081 A 
ATOM      3  C   UNL d   1     -51.201  25.439  33.327  0.00  0.00     0.023 A 
ATOM      4  C   UNL d   1     -52.620  25.442  33.322  0.00  0.00     0.004 A 
ATOM      5  C   UNL d   1     -52.618  26.269  33.314  0.00  0.00     0.002 A 
ATOM      6  C   UNL d   1     -51.909  26.678  33.313  0.00  0.00     0.019 A 
ENDROOT
BRANCH   2   7
ATOM      7  N   UNL d   1     -50.489  26.675  33.319  0.00  0.00    -0.245 NA
BRANCH   7   8
ATOM      8  C   UNL d   1     -49.784  26.267  33.459  0.00  0.00     0.087 A 
ATOM      9  C   UNL d   1     -49.125  26.673  33.754  0.00  0.00     0.082 A 
ATOM     10  C   UNL d   1     -48.419  26.269  33.896  0.00  0.00     0.008 A 
ATOM     11  C   UNL d   1     -48.367  25.458  33.744  0.00  0.00     0.000 A 
ATOM     12  C   UNL d   1     -49.021  25.049  33.450  0.00  0.00     0.002 A 
ATOM     13  C   UNL d   1     -49.732  25.453  33.307  0.00  0.00     0.019 A 
BRANCH   9  14
ATOM     14  C   UNL d   1     -49.175  27.492  33.909  0.00  0.00     0.212 C 
ATOM     15  O   UNL d   1     -48.988  27.770  34.659  0.00  0.00    -0.644 OA
ATOM     16  O   UNL d   1     -49.407  28.004  33.312  0.00  0.00    -0.644 OA
ENDBRANCH   9  14
ENDBRANCH   7   8
ENDBRANCH   2   7
BRANCH   1  17
ATOM     17  C   UNL d   1     -51.915  24.207  33.336  0.00  0.00     0.419 C 
ATOM     18  F   UNL d   1     -52.634  23.792  33.365  0.00  0.00    -0.166 F 
ATOM     19  F   UNL d   1     -51.200  23.789  33.315  0.00  0.00    -0.166 F 
ATOM     20  F   UNL d   1     -52.135  23.410  33.351  0.00  0.00    -0.166 F 
ENDBRANCH   1  17
TORSDOF 4
ENDMDL
MODEL 2
REMARK VINA RESULT:      40.2      5.301      6.757
REMARK  4 active torsions:
REMARK  status: ('A' for Active; 'I' for Inactive)
REMARK    1  A    between atoms: C_6  and  C_1 
REMARK    2  A    between atoms: C_4  and  C_2 
REMARK    3  A    between atoms: C_3  and  N_5 
REMARK    4  A    between atoms: N_5  and  C_7 
ROOT
ATOM      1  C   UNL d   1     -47.457  29.809  35.557  0.00  0.00     0.073 A 
ATOM      2  C   UNL d   1     -47.107  31.126  35.145  0.00  0.00     0.081 A 
ATOM      3  C   UNL d   1     -47.365  30.366  34.961  0.00  0.00     0.023 A 
ATOM      4  C   UNL d   1     -47.292  30.009  36.333  0.00  0.00     0.004 A 
ATOM      5  C   UNL d   1     -47.033  30.772  36.517  0.00  0.00     0.002 A 
ATOM      6  C   UNL d   1     -46.941  31.330  35.925  0.00  0.00     0.019 A 
ENDROOT
BRANCH   2   7
ATOM      7  N   UNL d   1     -47.014  31.687  34.553  0.00  0.00    -0.245 NA
BRANCH   7   8
ATOM      8  C   UNL d   1     -47.668  32.132  34.310  0.00  0.00     0.087 A 
ATOM      9  C   UNL d   1     -47.568  32.744  33.762  0.00  0.00     0.082 A 
ATOM     10  C   UNL d   1     -48.218  33.191  33.518  0.00  0.00     0.008 A 
ATOM     11  C   UNL d   1     -48.971  33.028  33.819  0.00  0.00     0.000 A 
ATOM     12  C   UNL d   1     -49.075  32.419  34.366  0.00  0.00     0.002 A 
ATOM     13  C   UNL d   1     -48.423  31.968  34.613  0.00  0.00     0.019 A 
BRANCH   9  14
ATOM     14  C   UNL d   1     -46.810  32.911  33.456  0.00  0.00     0.212 C 
ATOM     15  O   UNL d   1     -46.292  32.290  33.310  0.00  0.00    -0.644 OA
ATOM     16  O   UNL d   1     -46.594  33.688  33.307  0.00  0.00    -0.644 OA
ENDBRANCH   9  14
ENDBRANCH   7   8
ENDBRANCH   2   7
BRANCH   1  17
ATOM     17  C   UNL d   1     -47.714  29.049  35.373  0.00  0.00     0.419 C 
ATOM     18  F   UNL d   1     -48.488  28.813  35.564  0.00  0.00    -0.166 F 
ATOM     19  F   UNL d   1     -47.204  28.515  34.997  0.00  0.00    -0.166 F 
ATOM     20  F   UNL d   1     -48.160  28.358  35.281  0.00  0.00    -0.166 F 
ENDBRANCH   1  17
TORSDOF 4
ENDMDL
MODEL 3
REMARK VINA RESULT:      40.9      5.197      6.768
REMARK  4 active torsions:
REMARK  status: ('A' for Active; 'I' for Inactive)
REMARK    1  A    between atoms: C_6  and  C_1 
REMARK    2  A    between atoms: C_4  and  C_2 
REMARK    3  A    between atoms: C_3  and  N_5 
REMARK    4  A    between atoms: N_5  and  C_7 
ROOT
ATOM      1  C   UNL d   1     -47.578  29.839  35.568  0.00  0.00     0.073 A 
ATOM      2  C   UNL d   1     -47.684  31.222  35.250  0.00  0.00     0.081 A 
ATOM      3  C   UNL d   1     -47.957  30.449  35.171  0.00  0.00     0.023 A 
ATOM      4  C   UNL d   1     -46.930  29.998  36.041  0.00  0.00     0.004 A 
ATOM      5  C   UNL d   1     -46.656  30.774  36.120  0.00  0.00     0.002 A 
ATOM      6  C   UNL d   1     -47.032  31.385  35.726  0.00  0.00     0.019 A 
ENDROOT
BRANCH   2   7
ATOM      7  N   UNL d   1     -48.059  31.837  34.856  0.00  0.00    -0.245 NA
BRANCH   7   8
ATOM      8  C   UNL d   1     -47.622  32.314  34.341  0.00  0.00     0.087 A 
ATOM      9  C   UNL d   1     -48.014  32.831  33.826  0.00  0.00     0.082 A 
ATOM     10  C   UNL d   1     -47.582  33.310  33.311  0.00  0.00     0.008 A 
ATOM     11  C   UNL d   1     -46.755  33.274  33.307  0.00  0.00     0.000 A 
ATOM     12  C   UNL d   1     -46.360  32.761  33.818  0.00  0.00     0.002 A 
ATOM     13  C   UNL d   1     -46.793  32.279  34.337  0.00  0.00     0.019 A 
BRANCH   9  14
ATOM     14  C   UNL d   1     -48.848  32.869  33.828  0.00  0.00     0.212 C 
ATOM     15  O   UNL d   1     -49.221  33.459  34.262  0.00  0.00    -0.644 OA
ATOM     16  O   UNL d   1     -49.280  32.319  33.400  0.00  0.00    -0.644 OA
ENDBRANCH   9  14
ENDBRANCH   7   8
ENDBRANCH   2   7
BRANCH   1  17
ATOM     17  C   UNL d   1     -47.851  29.066  35.489  0.00  0.00     0.419 C 
ATOM     18  F   UNL d   1     -47.650  28.619  34.817  0.00  0.00    -0.166 F 
ATOM     19  F   UNL d   1     -48.327  28.729  36.077  0.00  0.00    -0.166 F 
ATOM     20  F   UNL d   1     -48.012  28.300  35.220  0.00  0.00    -0.166 F 
ENDBRANCH   1  17
TORSDOF 4
ENDMDL
MODEL 4
REMARK VINA RESULT:      42.1      5.696      7.113
REMARK  4 active torsions:
REMARK  status: ('A' for Active; 'I' for Inactive)
REMARK    1  A    between atoms: C_6  and  C_1 
REMARK    2  A    between atoms: C_4  and  C_2 
REMARK    3  A    between atoms: C_3  and  N_5 
REMARK    4  A    between atoms: N_5  and  C_7 
ROOT
ATOM      1  C   UNL d   1     -47.850  32.598  34.044  0.00  0.00     0.073 A 
ATOM      2  C   UNL d   1     -47.246  31.679  34.947  0.00  0.00     0.081 A 
ATOM      3  C   UNL d   1     -47.907  32.098  34.691  0.00  0.00     0.023 A 
ATOM      4  C   UNL d   1     -47.137  32.682  33.652  0.00  0.00     0.004 A 
ATOM      5  C   UNL d   1     -46.473  32.261  33.909  0.00  0.00     0.002 A 
ATOM      6  C   UNL d   1     -46.527  31.761  34.555  0.00  0.00     0.019 A 
ENDROOT
BRANCH   2   7
ATOM      7  N   UNL d   1     -47.298  31.177  35.594  0.00  0.00    -0.245 NA
BRANCH   7   8
ATOM      8  C   UNL d   1     -47.501  30.384  35.476  0.00  0.00     0.087 A 
ATOM      9  C   UNL d   1     -47.456  29.849  36.106  0.00  0.00     0.082 A 
ATOM     10  C   UNL d   1     -47.658  29.057  35.993  0.00  0.00     0.008 A 
ATOM     11  C   UNL d   1     -47.907  28.795  35.249  0.00  0.00     0.000 A 
ATOM     12  C   UNL d   1     -47.954  29.324  34.618  0.00  0.00     0.002 A 
ATOM     13  C   UNL d   1     -47.751  30.121  34.730  0.00  0.00     0.019 A 
BRANCH   9  14
ATOM     14  C   UNL d   1     -47.204  30.111  36.858  0.00  0.00     0.212 C 
ATOM     15  O   UNL d   1     -47.704  30.014  37.504  0.00  0.00    -0.644 OA
ATOM     16  O   UNL d   1     -46.467  30.460  36.941  0.00  0.00    -0.644 OA
ENDBRANCH   9  14
ENDBRANCH   7   8
ENDBRANCH   2   7
BRANCH   1  17
ATOM     17  C   UNL d   1     -48.512  33.017  33.788  0.00  0.00     0.419 C 
ATOM     18  F   UNL d   1     -48.420  33.688  33.306  0.00  0.00    -0.166 F 
ATOM     19  F   UNL d   1     -49.272  32.773  34.010  0.00  0.00    -0.166 F 
ATOM     20  F   UNL d   1     -49.023  33.563  33.433  0.00  0.00    -0.166 F 
ENDBRANCH   1  17
TORSDOF 4
ENDMDL
