MODEL 1
REMARK VINA RESULT:      -0.8      0.000      0.000
REMARK  3 active torsions:
REMARK  status: ('A' for Active; 'I' for Inactive)
REMARK    1  A    between atoms: C_16  and  N_3 
REMARK    2  A    between atoms: C_10  and  C_5 
REMARK    3  A    between atoms: C_26  and  C_16 
ROOT
ATOM      1  C   UNL d   1      30.723  17.397 -24.425  0.00  0.00     0.083 A 
ATOM      2  C   UNL d   1      30.309  18.087 -24.594  0.00  0.00     0.161 A 
ATOM      3  N   UNL d   1      31.599  18.315 -24.867  0.00  0.00    -0.268 N 
ATOM      4  C   UNL d   1      30.846  18.659 -24.867  0.00  0.00     0.288 A 
ATOM      5  C   UNL d   1      31.523  17.533 -24.593  0.00  0.00     0.072 A 
ATOM      6  C   UNL d   1      30.329  16.731 -24.142  0.00  0.00     0.201 A 
ATOM      7  O   UNL d   1      29.486  18.112 -24.477  0.00  0.00    -0.302 OA
ATOM      8  C   UNL d   1      29.513  16.759 -24.027  0.00  0.00     0.062 A 
ATOM      9  C   UNL d   1      29.094  17.448 -24.194  0.00  0.00     0.103 A 
ATOM     10  O   UNL d   1      30.666  19.424 -25.097  0.00  0.00    -0.264 OA
ATOM     11  O   UNL d   1      30.744  16.040 -23.973  0.00  0.00    -0.286 OA
ATOM     12  C   UNL d   1      29.115  16.091 -23.742  0.00  0.00     0.012 A 
ATOM     13  C   UNL d   1      28.270  17.468 -24.075  0.00  0.00     0.025 A 
ATOM     14  C   UNL d   1      28.302  16.113 -23.625  0.00  0.00     0.035 A 
ATOM     15  C   UNL d   1      27.878  16.803 -23.792  0.00  0.00     0.009 A 
ATOM     16 BR   UNL d   1      27.909  15.453 -23.344  0.00  0.00    -0.049 Br
ENDROOT
BRANCH   5  17
ATOM     17  C   UNL d   1      31.942  16.844 -24.426  0.00  0.00     0.019 A 
ATOM     18  C   UNL d   1      32.264  16.720 -23.675  0.00  0.00     0.031 A 
ATOM     19  C   UNL d   1      32.681  16.031 -23.511  0.00  0.00     0.140 A 
ATOM     20  F   UNL d   1      33.000  15.913 -22.762  0.00  0.00    -0.204 F 
ATOM     21  C   UNL d   1      32.782  15.453 -24.101  0.00  0.00     0.030 A 
ATOM     22  C   UNL d   1      32.460  15.576 -24.853  0.00  0.00     0.002 A 
ATOM     23  C   UNL d   1      32.039  16.275 -25.014  0.00  0.00     0.002 A 
ENDBRANCH   5  17
BRANCH   3  24
ATOM     24  C   UNL d   1      32.300  18.680 -25.097  0.00  0.00     0.129 C 
BRANCH  24  25
ATOM     25  C   UNL d   1      32.410  19.482 -24.950  0.00  0.00     0.253 C 
ATOM     26  O   UNL d   1      33.145  19.827 -25.079  0.00  0.00    -0.281 OA
ENDBRANCH  24  25
ENDBRANCH   3  24
TORSDOF 3
ENDMDL
MODEL 2
REMARK VINA RESULT:       0.3      5.743      7.217
REMARK  3 active torsions:
REMARK  status: ('A' for Active; 'I' for Inactive)
REMARK    1  A    between atoms: C_16  and  N_3 
REMARK    2  A    between atoms: C_10  and  C_5 
REMARK    3  A    between atoms: C_26  and  C_16 
ROOT
ATOM      1  C   UNL d   1      32.909  21.683 -20.600  0.00  0.00     0.083 A 
ATOM      2  C   UNL d   1      33.073  20.964 -20.234  0.00  0.00     0.161 A 
ATOM      3  N   UNL d   1      32.942  20.728 -21.545  0.00  0.00    -0.268 N 
ATOM      4  C   UNL d   1      33.095  20.370 -20.814  0.00  0.00     0.288 A 
ATOM      5  C   UNL d   1      32.827  21.541 -21.412  0.00  0.00     0.072 A 
ATOM      6  C   UNL d   1      32.854  22.375 -20.156  0.00  0.00     0.201 A 
ATOM      7  O   UNL d   1      33.185  20.937 -19.410  0.00  0.00    -0.302 OA
ATOM      8  C   UNL d   1      32.965  22.345 -19.339  0.00  0.00     0.062 A 
ATOM      9  C   UNL d   1      33.130  21.628 -18.969  0.00  0.00     0.103 A 
ATOM     10  O   UNL d   1      33.240  19.574 -20.689  0.00  0.00    -0.264 OA
ATOM     11  O   UNL d   1      32.690  23.094 -20.522  0.00  0.00    -0.286 OA
ATOM     12  C   UNL d   1      32.910  23.039 -18.891  0.00  0.00     0.012 A 
ATOM     13  C   UNL d   1      33.240  21.607 -18.143  0.00  0.00     0.025 A 
ATOM     14  C   UNL d   1      33.020  23.016 -18.078  0.00  0.00     0.035 A 
ATOM     15  C   UNL d   1      33.185  22.297 -17.703  0.00  0.00     0.009 A 
ATOM     16 BR   UNL d   1      32.965  23.702 -17.636  0.00  0.00    -0.049 Br
ENDROOT
BRANCH   5  17
ATOM     17  C   UNL d   1      32.662  22.258 -21.782  0.00  0.00     0.019 A 
ATOM     18  C   UNL d   1      31.924  22.618 -21.691  0.00  0.00     0.031 A 
ATOM     19  C   UNL d   1      31.763  23.334 -22.062  0.00  0.00     0.140 A 
ATOM     20  F   UNL d   1      31.026  23.687 -21.968  0.00  0.00    -0.204 F 
ATOM     21  C   UNL d   1      32.343  23.702 -22.532  0.00  0.00     0.030 A 
ATOM     22  C   UNL d   1      33.083  23.342 -22.623  0.00  0.00     0.002 A 
ATOM     23  C   UNL d   1      33.241  22.618 -22.246  0.00  0.00     0.002 A 
ENDBRANCH   5  17
BRANCH   3  24
ATOM     24  C   UNL d   1      32.909  20.349 -22.274  0.00  0.00     0.129 C 
BRANCH  24  25
ATOM     25  C   UNL d   1      32.944  19.528 -22.310  0.00  0.00     0.253 C 
ATOM     26  O   UNL d   1      32.861  19.143 -23.032  0.00  0.00    -0.281 OA
ENDBRANCH  24  25
ENDBRANCH   3  24
TORSDOF 3
ENDMDL
MODEL 3
REMARK VINA RESULT:       1.7      3.069      4.502
REMARK  3 active torsions:
REMARK  status: ('A' for Active; 'I' for Inactive)
REMARK    1  A    between atoms: C_16  and  N_3 
REMARK    2  A    between atoms: C_10  and  C_5 
REMARK    3  A    between atoms: C_26  and  C_16 
ROOT
ATOM      1  C   UNL d   1      32.848  20.255 -23.359  0.00  0.00     0.083 A 
ATOM      2  C   UNL d   1      32.947  20.352 -24.171  0.00  0.00     0.161 A 
ATOM      3  N   UNL d   1      33.106  21.552 -23.599  0.00  0.00    -0.268 N 
ATOM      4  C   UNL d   1      33.107  21.153 -24.324  0.00  0.00     0.288 A 
ATOM      5  C   UNL d   1      32.946  20.996 -23.001  0.00  0.00     0.072 A 
ATOM      6  C   UNL d   1      32.683  19.512 -23.044  0.00  0.00     0.201 A 
ATOM      7  O   UNL d   1      32.879  19.695 -24.675  0.00  0.00    -0.302 OA
ATOM      8  C   UNL d   1      32.616  18.862 -23.548  0.00  0.00     0.062 A 
ATOM      9  C   UNL d   1      32.714  18.955 -24.360  0.00  0.00     0.103 A 
ATOM     10  O   UNL d   1      33.241  21.489 -25.059  0.00  0.00    -0.264 OA
ATOM     11  O   UNL d   1      32.584  19.415 -22.233  0.00  0.00    -0.286 OA
ATOM     12  C   UNL d   1      32.449  18.114 -23.234  0.00  0.00     0.012 A 
ATOM     13  C   UNL d   1      32.644  18.293 -24.861  0.00  0.00     0.025 A 
ATOM     14  C   UNL d   1      32.381  17.463 -23.729  0.00  0.00     0.035 A 
ATOM     15  C   UNL d   1      32.479  17.553 -24.546  0.00  0.00     0.009 A 
ATOM     16 BR   UNL d   1      32.217  16.725 -23.418  0.00  0.00    -0.049 Br
ENDROOT
BRANCH   5  17
ATOM     17  C   UNL d   1      32.848  20.903 -22.189  0.00  0.00     0.019 A 
ATOM     18  C   UNL d   1      32.360  21.417 -21.763  0.00  0.00     0.031 A 
ATOM     19  C   UNL d   1      32.264  21.321 -20.952  0.00  0.00     0.140 A 
ATOM     20  F   UNL d   1      31.777  21.836 -20.534  0.00  0.00    -0.204 F 
ATOM     21  C   UNL d   1      32.658  20.706 -20.554  0.00  0.00     0.030 A 
ATOM     22  C   UNL d   1      33.147  20.191 -20.980  0.00  0.00     0.002 A 
ATOM     23  C   UNL d   1      33.241  20.292 -21.800  0.00  0.00     0.002 A 
ENDBRANCH   5  17
BRANCH   3  24
ATOM     24  C   UNL d   1      33.240  22.356 -23.487  0.00  0.00     0.129 C 
BRANCH  24  25
ATOM     25  C   UNL d   1      33.171  22.875 -24.122  0.00  0.00     0.253 C 
ATOM     26  O   UNL d   1      32.822  23.611 -24.016  0.00  0.00    -0.281 OA
ENDBRANCH  24  25
ENDBRANCH   3  24
TORSDOF 3
ENDMDL
