MODEL 1
REMARK VINA RESULT:      -8.3      0.000      0.000
REMARK  4 active torsions:
REMARK  status: ('A' for Active; 'I' for Inactive)
REMARK    1  A    between atoms: C_2  and  C_3 
REMARK    2  A    between atoms: N_4  and  C_2 
REMARK    3  A    between atoms: C_12  and  N_4 
REMARK    4  A    between atoms: N_8  and  C_7 
ROOT
ATOM      1  C   UNL d   1      51.619  33.549  53.235  0.00  0.00     0.153 C 
ATOM      2  S   UNL d   1      51.044  32.958  53.270  0.00  0.00    -0.056 SA
ENDROOT
BRANCH   1   3
ATOM      3  C   UNL d   1      52.386  33.386  53.485  0.00  0.00     0.109 A 
ATOM      4  N   UNL d   1      52.720  33.818  54.106  0.00  0.00    -0.243 NA
ATOM      5  C   UNL d   1      53.487  33.656  54.355  0.00  0.00     0.081 A 
ATOM      6  C   UNL d   1      53.925  33.062  53.986  0.00  0.00     0.018 A 
ATOM      7  C   UNL d   1      53.825  34.089  54.978  0.00  0.00     0.019 A 
ATOM      8  C   UNL d   1      53.597  32.627  53.366  0.00  0.00     0.003 A 
ATOM      9  C   UNL d   1      54.699  32.900  54.240  0.00  0.00     0.002 A 
ATOM     10  C   UNL d   1      52.826  32.789  53.113  0.00  0.00     0.021 A 
ATOM     11  C   UNL d   1      55.029  33.332  54.858  0.00  0.00     0.000 A 
ATOM     12  C   UNL d   1      54.592  33.926  55.228  0.00  0.00     0.002 A 
ENDBRANCH   1   3
BRANCH   1  13
ATOM     13  N   UNL d   1      51.427  34.299  52.952  0.00  0.00    -0.233 NA
BRANCH  13  14
ATOM     14  C   UNL d   1      50.714  34.419  52.562  0.00  0.00     0.083 A 
ATOM     15  C   UNL d   1      50.052  34.673  52.990  0.00  0.00     0.021 A 
ATOM     16  C   UNL d   1      49.339  34.792  52.597  0.00  0.00     0.019 A 
ATOM     17  C   UNL d   1      49.287  34.659  51.775  0.00  0.00     0.064 A 
ATOM     18  C   UNL d   1      49.949  34.407  51.357  0.00  0.00     0.019 A 
ATOM     19  C   UNL d   1      50.663  34.287  51.749  0.00  0.00     0.021 A 
BRANCH  17  20
ATOM     20  N   UNL d   1      48.562  34.782  51.383  0.00  0.00    -0.301 N 
ATOM     21  C   UNL d   1      48.419  34.406  50.672  0.00  0.00     0.100 C 
ATOM     22  C   UNL d   1      47.996  35.276  51.709  0.00  0.00     0.100 C 
ENDBRANCH  17  20
ENDBRANCH  13  14
ENDBRANCH   1  13
TORSDOF 4
ENDMDL
MODEL 2
REMARK VINA RESULT:      -7.7      0.945      5.056
REMARK  4 active torsions:
REMARK  status: ('A' for Active; 'I' for Inactive)
REMARK    1  A    between atoms: C_2  and  C_3 
REMARK    2  A    between atoms: N_4  and  C_2 
REMARK    3  A    between atoms: C_12  and  N_4 
REMARK    4  A    between atoms: N_8  and  C_7 
ROOT
ATOM      1  C   UNL d   1      50.629  34.109  52.847  0.00  0.00     0.153 C 
ATOM      2  S   UNL d   1      50.567  33.420  53.296  0.00  0.00    -0.056 SA
ENDROOT
BRANCH   1   3
ATOM      3  C   UNL d   1      49.946  34.482  52.576  0.00  0.00     0.109 A 
ATOM      4  N   UNL d   1      49.522  34.986  53.076  0.00  0.00    -0.243 NA
ATOM      5  C   UNL d   1      48.841  35.358  52.804  0.00  0.00     0.081 A 
ATOM      6  C   UNL d   1      48.579  35.229  52.032  0.00  0.00     0.018 A 
ATOM      7  C   UNL d   1      48.413  35.864  53.304  0.00  0.00     0.019 A 
ATOM      8  C   UNL d   1      48.998  34.727  51.528  0.00  0.00     0.003 A 
ATOM      9  C   UNL d   1      47.890  35.606  51.761  0.00  0.00     0.002 A 
ATOM     10  C   UNL d   1      49.683  34.352  51.799  0.00  0.00     0.021 A 
ATOM     11  C   UNL d   1      47.470  36.107  52.261  0.00  0.00     0.000 A 
ATOM     12  C   UNL d   1      47.732  36.236  53.033  0.00  0.00     0.002 A 
ENDBRANCH   1   3
BRANCH   1  13
ATOM     13  N   UNL d   1      51.370  34.425  52.670  0.00  0.00    -0.233 NA
BRANCH  13  14
ATOM     14  C   UNL d   1      52.040  34.126  53.037  0.00  0.00     0.083 A 
ATOM     15  C   UNL d   1      52.431  34.582  53.608  0.00  0.00     0.021 A 
ATOM     16  C   UNL d   1      53.102  34.280  53.975  0.00  0.00     0.019 A 
ATOM     17  C   UNL d   1      53.385  33.522  53.772  0.00  0.00     0.064 A 
ATOM     18  C   UNL d   1      52.992  33.075  53.204  0.00  0.00     0.019 A 
ATOM     19  C   UNL d   1      52.320  33.376  52.836  0.00  0.00     0.021 A 
BRANCH  17  20
ATOM     20  N   UNL d   1      54.066  33.222  54.147  0.00  0.00    -0.301 N 
ATOM     21  C   UNL d   1      54.657  32.880  53.698  0.00  0.00     0.100 C 
ATOM     22  C   UNL d   1      54.142  33.269  54.961  0.00  0.00     0.100 C 
ENDBRANCH  17  20
ENDBRANCH  13  14
ENDBRANCH   1  13
TORSDOF 4
ENDMDL
