MODEL 1
REMARK VINA RESULT:      77.1      0.000      0.000
REMARK  5 active torsions:
REMARK  status: ('A' for Active; 'I' for Inactive)
REMARK    1  A    between atoms: N_3  and  C_1 
REMARK       I    between atoms: C_7  and  N_3 
REMARK    2  A    between atoms: S_9  and  C_4 
REMARK    3  A    between atoms: C_8  and  C_7 
REMARK    4  A    between atoms: C_13  and  S_9 
REMARK    5  A    between atoms: C_16  and  C_13 
ROOT
ATOM      1  C   UNL d   1      61.125  47.281  50.675  0.00  0.00     0.219 A 
ATOM      2  S   UNL d   1      61.312  48.117  50.605  0.00  0.00    -0.019 SA
ATOM      3  C   UNL d   1      60.659  48.541  50.991  0.00  0.00     0.165 A 
ATOM      4  N   UNL d   1      60.503  47.268  51.025  0.00  0.00    -0.120 NA
ATOM      5  N   UNL d   1      60.220  48.059  51.218  0.00  0.00    -0.133 NA
ENDROOT
BRANCH   1   6
ATOM      6  N   UNL d   1      61.636  46.583  50.357  0.00  0.00    -0.181 NA
ATOM      7  C   UNL d   1      61.354  45.778  50.403  0.00  0.00     0.281 C 
ATOM      8  O   UNL d   1      60.731  45.669  50.686  0.00  0.00    -0.265 OA
BRANCH   7   9
ATOM      9  C   UNL d   1      61.707  45.080  50.160  0.00  0.00     0.058 A 
ATOM     10  C   UNL d   1      62.120  45.056  49.448  0.00  0.00     0.006 A 
ATOM     11  C   UNL d   1      62.476  44.346  49.205  0.00  0.00     0.012 A 
ATOM     12  C   UNL d   1      62.411  43.671  49.685  0.00  0.00     0.058 A 
ATOM     13  C   UNL d   1      61.993  43.715  50.395  0.00  0.00     0.012 A 
ATOM     14 CL   UNL d   1      62.819  42.969  49.347  0.00  0.00    -0.082 Cl
ATOM     15  C   UNL d   1      61.644  44.419  50.628  0.00  0.00     0.006 A 
ENDBRANCH   7   9
ENDBRANCH   1   6
BRANCH   3  16
ATOM     16  S   UNL d   1      60.477  49.418  51.131  0.00  0.00    -0.059 SA
BRANCH  16  17
ATOM     17  C   UNL d   1      60.085  49.707  50.568  0.00  0.00     0.037 C 
BRANCH  17  18
ATOM     18  C   UNL d   1      59.269  49.704  50.591  0.00  0.00     0.007 A 
ATOM     19  C   UNL d   1      58.865  49.698  51.304  0.00  0.00     0.001 A 
ATOM     20  C   UNL d   1      58.037  49.695  51.328  0.00  0.00     0.007 A 
ATOM     21  C   UNL d   1      57.614  49.698  50.616  0.00  0.00     0.035 A 
ATOM     22  C   UNL d   1      58.024  49.704  49.880  0.00  0.00     0.007 A 
ATOM     23 BR   UNL d   1      56.596  49.694  50.611  0.00  0.00    -0.049 Br
ATOM     24  C   UNL d   1      58.858  49.707  49.896  0.00  0.00     0.001 A 
ENDBRANCH  17  18
ENDBRANCH  16  17
ENDBRANCH   3  16
TORSDOF 5
ENDMDL
