MODEL 1
REMARK VINA RESULT:      -3.1      0.000      0.000
REMARK  2 active torsions:
REMARK  status: ('A' for Active; 'I' for Inactive)
REMARK    1  A    between atoms: N_2  and  S_1 
REMARK    2  A    between atoms: C_8  and  S_1 
ROOT
ATOM      1  N   UNL d   1      31.538  16.016 -23.706  0.00  0.00    -0.231 N 
ATOM      2  C   UNL d   1      32.120  15.453 -23.594  0.00  0.00     0.092 A 
ATOM      3  C   UNL d   1      31.908  16.753 -23.741  0.00  0.00     0.075 A 
ATOM      4  C   UNL d   1      32.850  15.832 -23.560  0.00  0.00     0.021 A 
ATOM      5  C   UNL d   1      32.722  16.639 -23.651  0.00  0.00     0.018 A 
ATOM      6  C   UNL d   1      31.607  17.511 -23.844  0.00  0.00     0.018 A 
ATOM      7  C   UNL d   1      33.231  17.283 -23.665  0.00  0.00     0.002 A 
ATOM      8  C   UNL d   1      32.118  18.161 -23.858  0.00  0.00     0.002 A 
ATOM      9  C   UNL d   1      32.932  18.047 -23.768  0.00  0.00     0.000 A 
ENDROOT
BRANCH   1  10
ATOM     10  S   UNL d   1      30.728  15.876 -23.770  0.00  0.00     0.271 S 
ATOM     11  O   UNL d   1      30.798  15.875 -24.597  0.00  0.00    -0.200 OA
ATOM     12  O   UNL d   1      30.662  15.876 -22.947  0.00  0.00    -0.200 OA
BRANCH  10  13
ATOM     13  C   UNL d   1      29.915  15.734 -23.832  0.00  0.00     0.104 A 
ATOM     14  C   UNL d   1      29.441  15.732 -23.162  0.00  0.00     0.013 A 
ATOM     15  C   UNL d   1      28.639  15.593 -23.223  0.00  0.00     0.001 A 
ATOM     16  C   UNL d   1      28.299  15.453 -23.965  0.00  0.00     0.000 A 
ATOM     17  C   UNL d   1      28.766  15.453 -24.639  0.00  0.00     0.001 A 
ATOM     18  C   UNL d   1      29.578  15.594 -24.575  0.00  0.00     0.013 A 
ENDBRANCH  10  13
ENDBRANCH   1  10
TORSDOF 2
ENDMDL
MODEL 2
REMARK VINA RESULT:      -3.0      1.194      3.539
REMARK  2 active torsions:
REMARK  status: ('A' for Active; 'I' for Inactive)
REMARK    1  A    between atoms: N_2  and  S_1 
REMARK    2  A    between atoms: C_8  and  S_1 
ROOT
ATOM      1  N   UNL d   1      31.177  16.654 -23.940  0.00  0.00    -0.231 N 
ATOM      2  C   UNL d   1      31.381  15.911 -23.664  0.00  0.00     0.092 A 
ATOM      3  C   UNL d   1      30.360  16.659 -24.062  0.00  0.00     0.075 A 
ATOM      4  C   UNL d   1      30.699  15.453 -23.613  0.00  0.00     0.021 A 
ATOM      5  C   UNL d   1      30.064  15.914 -23.859  0.00  0.00     0.018 A 
ATOM      6  C   UNL d   1      29.852  17.245 -24.331  0.00  0.00     0.018 A 
ATOM      7  C   UNL d   1      29.260  15.759 -23.926  0.00  0.00     0.002 A 
ATOM      8  C   UNL d   1      29.042  17.091 -24.399  0.00  0.00     0.002 A 
ATOM      9  C   UNL d   1      28.746  16.347 -24.196  0.00  0.00     0.000 A 
ENDROOT
BRANCH   1  10
ATOM     10  S   UNL d   1      31.692  17.284 -24.073  0.00  0.00     0.271 S 
ATOM     11  O   UNL d   1      31.787  17.035 -24.859  0.00  0.00    -0.200 OA
ATOM     12  O   UNL d   1      31.594  17.529 -23.291  0.00  0.00    -0.200 OA
BRANCH  10  13
ATOM     13  C   UNL d   1      32.208  17.918 -24.204  0.00  0.00     0.104 A 
ATOM     14  C   UNL d   1      32.411  18.137 -24.969  0.00  0.00     0.013 A 
ATOM     15  C   UNL d   1      32.920  18.762 -25.097  0.00  0.00     0.001 A 
ATOM     16  C   UNL d   1      33.235  19.178 -24.454  0.00  0.00     0.000 A 
ATOM     17  C   UNL d   1      33.037  18.964 -23.689  0.00  0.00     0.001 A 
ATOM     18  C   UNL d   1      32.521  18.331 -23.560  0.00  0.00     0.013 A 
ENDBRANCH  10  13
ENDBRANCH   1  10
TORSDOF 2
ENDMDL
MODEL 3
REMARK VINA RESULT:      -2.9      1.192      3.651
REMARK  2 active torsions:
REMARK  status: ('A' for Active; 'I' for Inactive)
REMARK    1  A    between atoms: N_2  and  S_1 
REMARK    2  A    between atoms: C_8  and  S_1 
ROOT
ATOM      1  N   UNL d   1      30.013  16.892 -24.461  0.00  0.00    -0.231 N 
ATOM      2  C   UNL d   1      29.430  17.188 -24.952  0.00  0.00     0.092 A 
ATOM      3  C   UNL d   1      29.650  16.384 -23.921  0.00  0.00     0.075 A 
ATOM      4  C   UNL d   1      28.706  16.869 -24.723  0.00  0.00     0.021 A 
ATOM      5  C   UNL d   1      28.840  16.370 -24.083  0.00  0.00     0.018 A 
ATOM      6  C   UNL d   1      29.955  15.935 -23.304  0.00  0.00     0.018 A 
ATOM      7  C   UNL d   1      28.338  15.906 -23.628  0.00  0.00     0.002 A 
ATOM      8  C   UNL d   1      29.451  15.467 -22.844  0.00  0.00     0.002 A 
ATOM      9  C   UNL d   1      28.640  15.453 -23.007  0.00  0.00     0.000 A 
ENDROOT
BRANCH   1  10
ATOM     10  S   UNL d   1      30.818  17.069 -24.497  0.00  0.00     0.271 S 
ATOM     11  O   UNL d   1      30.949  16.364 -24.915  0.00  0.00    -0.200 OA
ATOM     12  O   UNL d   1      30.683  17.769 -24.082  0.00  0.00    -0.200 OA
BRANCH  10  13
ATOM     13  C   UNL d   1      31.625  17.248 -24.532  0.00  0.00     0.104 A 
ATOM     14  C   UNL d   1      32.119  16.842 -25.047  0.00  0.00     0.013 A 
ATOM     15  C   UNL d   1      32.915  17.019 -25.081  0.00  0.00     0.001 A 
ATOM     16  C   UNL d   1      33.229  17.612 -24.595  0.00  0.00     0.000 A 
ATOM     17  C   UNL d   1      32.741  18.022 -24.079  0.00  0.00     0.001 A 
ATOM     18  C   UNL d   1      31.935  17.841 -24.045  0.00  0.00     0.013 A 
ENDBRANCH  10  13
ENDBRANCH   1  10
TORSDOF 2
ENDMDL
MODEL 4
REMARK VINA RESULT:      -2.5      1.900      3.026
REMARK  2 active torsions:
REMARK  status: ('A' for Active; 'I' for Inactive)
REMARK    1  A    between atoms: N_2  and  S_1 
REMARK    2  A    between atoms: C_8  and  S_1 
ROOT
ATOM      1  N   UNL d   1      32.717  18.607 -23.915  0.00  0.00    -0.231 N 
ATOM      2  C   UNL d   1      32.945  19.012 -24.588  0.00  0.00     0.092 A 
ATOM      3  C   UNL d   1      32.809  19.118 -23.273  0.00  0.00     0.075 A 
ATOM      4  C   UNL d   1      33.179  19.771 -24.371  0.00  0.00     0.021 A 
ATOM      5  C   UNL d   1      33.096  19.840 -23.556  0.00  0.00     0.018 A 
ATOM      6  C   UNL d   1      32.669  19.017 -22.470  0.00  0.00     0.018 A 
ATOM      7  C   UNL d   1      33.241  20.458 -23.035  0.00  0.00     0.002 A 
ATOM      8  C   UNL d   1      32.814  19.638 -21.943  0.00  0.00     0.002 A 
ATOM      9  C   UNL d   1      33.101  20.360 -22.226  0.00  0.00     0.000 A 
ENDROOT
BRANCH   1  10
ATOM     10  S   UNL d   1      32.444  17.830 -23.881  0.00  0.00     0.271 S 
ATOM     11  O   UNL d   1      33.207  17.575 -23.679  0.00  0.00    -0.200 OA
ATOM     12  O   UNL d   1      31.686  18.088 -24.082  0.00  0.00    -0.200 OA
BRANCH  10  13
ATOM     13  C   UNL d   1      32.167  17.050 -23.849  0.00  0.00     0.104 A 
ATOM     14  C   UNL d   1      31.364  16.893 -23.909  0.00  0.00     0.013 A 
ATOM     15  C   UNL d   1      31.091  16.124 -23.877  0.00  0.00     0.001 A 
ATOM     16  C   UNL d   1      31.626  15.498 -23.782  0.00  0.00     0.000 A 
ATOM     17  C   UNL d   1      32.429  15.649 -23.721  0.00  0.00     0.001 A 
ATOM     18  C   UNL d   1      32.704  16.428 -23.754  0.00  0.00     0.013 A 
ENDBRANCH  10  13
ENDBRANCH   1  10
TORSDOF 2
ENDMDL
MODEL 5
REMARK VINA RESULT:      -2.4      1.961      3.886
REMARK  2 active torsions:
REMARK  status: ('A' for Active; 'I' for Inactive)
REMARK    1  A    between atoms: N_2  and  S_1 
REMARK    2  A    between atoms: C_8  and  S_1 
ROOT
ATOM      1  N   UNL d   1      32.587  17.569 -23.871  0.00  0.00    -0.231 N 
ATOM      2  C   UNL d   1      33.094  16.928 -23.905  0.00  0.00     0.092 A 
ATOM      3  C   UNL d   1      31.879  17.345 -24.232  0.00  0.00     0.075 A 
ATOM      4  C   UNL d   1      32.708  16.307 -24.283  0.00  0.00     0.021 A 
ATOM      5  C   UNL d   1      31.954  16.562 -24.487  0.00  0.00     0.018 A 
ATOM      6  C   UNL d   1      31.177  17.755 -24.359  0.00  0.00     0.018 A 
ATOM      7  C   UNL d   1      31.328  16.192 -24.868  0.00  0.00     0.002 A 
ATOM      8  C   UNL d   1      30.546  17.384 -24.742  0.00  0.00     0.002 A 
ATOM      9  C   UNL d   1      30.621  16.601 -24.998  0.00  0.00     0.000 A 
ENDROOT
BRANCH   1  10
ATOM     10  S   UNL d   1      32.752  18.305 -23.539  0.00  0.00     0.271 S 
ATOM     11  O   UNL d   1      33.112  18.541 -24.247  0.00  0.00    -0.200 OA
ATOM     12  O   UNL d   1      32.392  18.067 -22.834  0.00  0.00    -0.200 OA
BRANCH  10  13
ATOM     13  C   UNL d   1      32.915  19.044 -23.202  0.00  0.00     0.104 A 
ATOM     14  C   UNL d   1      33.014  19.117 -22.390  0.00  0.00     0.013 A 
ATOM     15  C   UNL d   1      33.175  19.845 -22.059  0.00  0.00     0.001 A 
ATOM     16  C   UNL d   1      33.241  20.515 -22.541  0.00  0.00     0.000 A 
ATOM     17  C   UNL d   1      33.144  20.448 -23.352  0.00  0.00     0.001 A 
ATOM     18  C   UNL d   1      32.981  19.710 -23.687  0.00  0.00     0.013 A 
ENDBRANCH  10  13
ENDBRANCH   1  10
TORSDOF 2
ENDMDL
MODEL 6
REMARK VINA RESULT:      -1.2      4.458      5.899
REMARK  2 active torsions:
REMARK  status: ('A' for Active; 'I' for Inactive)
REMARK    1  A    between atoms: N_2  and  S_1 
REMARK    2  A    between atoms: C_8  and  S_1 
ROOT
ATOM      1  N   UNL d   1      32.522  21.240 -21.375  0.00  0.00    -0.231 N 
ATOM      2  C   UNL d   1      32.191  21.174 -20.630  0.00  0.00     0.092 A 
ATOM      3  C   UNL d   1      32.646  22.043 -21.523  0.00  0.00     0.075 A 
ATOM      4  C   UNL d   1      32.107  21.929 -20.312  0.00  0.00     0.021 A 
ATOM      5  C   UNL d   1      32.388  22.470 -20.863  0.00  0.00     0.018 A 
ATOM      6  C   UNL d   1      32.959  22.437 -22.173  0.00  0.00     0.018 A 
ATOM      7  C   UNL d   1      32.446  23.289 -20.856  0.00  0.00     0.002 A 
ATOM      8  C   UNL d   1      33.017  23.262 -22.168  0.00  0.00     0.002 A 
ATOM      9  C   UNL d   1      32.760  23.689 -21.508  0.00  0.00     0.000 A 
ENDROOT
BRANCH   1  10
ATOM     10  S   UNL d   1      32.700  20.619 -21.887  0.00  0.00     0.271 S 
ATOM     11  O   UNL d   1      32.165  20.926 -22.441  0.00  0.00    -0.200 OA
ATOM     12  O   UNL d   1      33.233  20.316 -21.333  0.00  0.00    -0.200 OA
BRANCH  10  13
ATOM     13  C   UNL d   1      32.881  19.994 -22.399  0.00  0.00     0.104 A 
ATOM     14  C   UNL d   1      33.032  20.138 -23.193  0.00  0.00     0.013 A 
ATOM     15  C   UNL d   1      33.211  19.521 -23.697  0.00  0.00     0.001 A 
ATOM     16  C   UNL d   1      33.240  18.746 -23.409  0.00  0.00     0.000 A 
ATOM     17  C   UNL d   1      33.091  18.595 -22.617  0.00  0.00     0.001 A 
ATOM     18  C   UNL d   1      32.910  19.220 -22.107  0.00  0.00     0.013 A 
ENDBRANCH  10  13
ENDBRANCH   1  10
TORSDOF 2
ENDMDL
MODEL 7
REMARK VINA RESULT:      -1.0      2.221      4.201
REMARK  2 active torsions:
REMARK  status: ('A' for Active; 'I' for Inactive)
REMARK    1  A    between atoms: N_2  and  S_1 
REMARK    2  A    between atoms: C_8  and  S_1 
ROOT
ATOM      1  N   UNL d   1      32.633  18.056 -23.761  0.00  0.00    -0.231 N 
ATOM      2  C   UNL d   1      33.138  17.545 -23.370  0.00  0.00     0.092 A 
ATOM      3  C   UNL d   1      31.944  17.640 -23.939  0.00  0.00     0.075 A 
ATOM      4  C   UNL d   1      32.768  16.812 -23.303  0.00  0.00     0.021 A 
ATOM      5  C   UNL d   1      32.027  16.868 -23.655  0.00  0.00     0.018 A 
ATOM      6  C   UNL d   1      31.253  17.865 -24.322  0.00  0.00     0.018 A 
ATOM      7  C   UNL d   1      31.419  16.325 -23.756  0.00  0.00     0.002 A 
ATOM      8  C   UNL d   1      30.639  17.320 -24.425  0.00  0.00     0.002 A 
ATOM      9  C   UNL d   1      30.723  16.548 -24.141  0.00  0.00     0.000 A 
ENDROOT
BRANCH   1  10
ATOM     10  S   UNL d   1      32.785  18.846 -23.944  0.00  0.00     0.271 S 
ATOM     11  O   UNL d   1      32.640  18.684 -24.745  0.00  0.00    -0.200 OA
ATOM     12  O   UNL d   1      32.928  19.004 -23.147  0.00  0.00    -0.200 OA
BRANCH  10  13
ATOM     13  C   UNL d   1      32.938  19.639 -24.126  0.00  0.00     0.104 A 
ATOM     14  C   UNL d   1      33.049  19.873 -24.905  0.00  0.00     0.013 A 
ATOM     15  C   UNL d   1      33.200  20.655 -25.083  0.00  0.00     0.001 A 
ATOM     16  C   UNL d   1      33.241  21.218 -24.477  0.00  0.00     0.000 A 
ATOM     17  C   UNL d   1      33.131  20.991 -23.697  0.00  0.00     0.001 A 
ATOM     18  C   UNL d   1      32.978  20.199 -23.517  0.00  0.00     0.013 A 
ENDBRANCH  10  13
ENDBRANCH   1  10
TORSDOF 2
ENDMDL
MODEL 8
REMARK VINA RESULT:      -0.7      4.440      6.043
REMARK  2 active torsions:
REMARK  status: ('A' for Active; 'I' for Inactive)
REMARK    1  A    between atoms: N_2  and  S_1 
REMARK    2  A    between atoms: C_8  and  S_1 
ROOT
ATOM      1  N   UNL d   1      32.932  20.484 -21.545  0.00  0.00    -0.231 N 
ATOM      2  C   UNL d   1      33.098  19.987 -20.917  0.00  0.00     0.092 A 
ATOM      3  C   UNL d   1      32.971  20.035 -22.236  0.00  0.00     0.075 A 
ATOM      4  C   UNL d   1      33.240  19.231 -21.211  0.00  0.00     0.021 A 
ATOM      5  C   UNL d   1      33.162  19.257 -22.029  0.00  0.00     0.018 A 
ATOM      6  C   UNL d   1      32.858  20.234 -23.025  0.00  0.00     0.018 A 
ATOM      7  C   UNL d   1      33.239  18.683 -22.611  0.00  0.00     0.002 A 
ATOM      8  C   UNL d   1      32.934  19.658 -23.613  0.00  0.00     0.002 A 
ATOM      9  C   UNL d   1      33.125  18.880 -23.406  0.00  0.00     0.000 A 
ENDROOT
BRANCH   1  10
ATOM     10  S   UNL d   1      32.757  21.289 -21.498  0.00  0.00     0.271 S 
ATOM     11  O   UNL d   1      33.140  21.410 -22.224  0.00  0.00    -0.200 OA
ATOM     12  O   UNL d   1      32.377  21.164 -20.776  0.00  0.00    -0.200 OA
BRANCH  10  13
ATOM     13  C   UNL d   1      32.581  22.096 -21.449  0.00  0.00     0.104 A 
ATOM     14  C   UNL d   1      31.947  22.355 -20.996  0.00  0.00     0.013 A 
ATOM     15  C   UNL d   1      31.773  23.151 -20.947  0.00  0.00     0.001 A 
ATOM     16  C   UNL d   1      32.237  23.702 -21.355  0.00  0.00     0.000 A 
ATOM     17  C   UNL d   1      32.871  23.450 -21.809  0.00  0.00     0.001 A 
ATOM     18  C   UNL d   1      33.046  22.644 -21.858  0.00  0.00     0.013 A 
ENDBRANCH  10  13
ENDBRANCH   1  10
TORSDOF 2
ENDMDL
