MODEL 1
REMARK VINA RESULT:      69.8      0.000      0.000
REMARK  7 active torsions:
REMARK  status: ('A' for Active; 'I' for Inactive)
REMARK    1  A    between atoms: N_2  and  S_1 
REMARK    2  A    between atoms: C_3  and  S_1 
REMARK    3  A    between atoms: C_16  and  N_2 
REMARK    4  A    between atoms: C_4  and  C_10 
REMARK       I    between atoms: N_7  and  C_4 
REMARK    5  A    between atoms: C_17  and  N_7 
REMARK    6  A    between atoms: C_9  and  C_17 
REMARK    7  A    between atoms: O_23  and  C_20 
ROOT
ATOM      1  C   UNL d   1     -55.936 -99.932 -44.057  0.00  0.00     0.058 A 
ATOM      2  C   UNL d   1     -55.117-101.060 -43.176  0.00  0.00     0.094 A 
ATOM      3  C   UNL d   1     -55.512 -99.707 -43.386  0.00  0.00     0.006 A 
ATOM      4  C   UNL d   1     -55.950-100.724 -44.287  0.00  0.00     0.006 A 
ATOM      5  C   UNL d   1     -55.101-100.270 -42.944  0.00  0.00     0.020 A 
ATOM      6  C   UNL d   1     -55.543-101.292 -43.851  0.00  0.00     0.020 A 
ENDROOT
BRANCH   2   7
ATOM      7  N   UNL d   1     -54.711-101.622 -42.741  0.00  0.00    -0.158 NA
BRANCH   7   8
ATOM      8  S   UNL d   1     -54.975-101.824 -41.983  0.00  0.00     0.285 S 
ATOM      9  O   UNL d   1     -54.856-101.044 -41.733  0.00  0.00    -0.198 OA
ATOM     10  O   UNL d   1     -55.095-102.600 -42.226  0.00  0.00    -0.198 OA
BRANCH   8  11
ATOM     11  C   UNL d   1     -55.236-102.019 -41.229  0.00  0.00     0.107 A 
ATOM     12  C   UNL d   1     -56.024-102.225 -41.108  0.00  0.00     0.037 A 
ATOM     13  C   UNL d   1     -56.297-102.423 -40.348  0.00  0.00     0.095 A 
ATOM     14  C   UNL d   1     -55.770-102.413 -39.715  0.00  0.00     0.024 A 
ATOM     15  C   UNL d   1     -54.979-102.208 -39.833  0.00  0.00     0.003 A 
ATOM     16  C   UNL d   1     -54.711-102.010 -40.590  0.00  0.00     0.013 A 
BRANCH  13  17
ATOM     17  O   UNL d   1     -57.098-102.632 -40.225  0.00  0.00    -0.328 OA
ATOM     18  C   UNL d   1     -57.380-102.734 -39.451  0.00  0.00     0.181 C 
ENDBRANCH  13  17
ENDBRANCH   8  11
ENDBRANCH   7   8
ENDBRANCH   2   7
BRANCH   1  19
ATOM     19  C   UNL d   1     -56.352 -99.364 -44.505  0.00  0.00     0.279 C 
ATOM     20  N   UNL d   1     -57.172 -99.396 -44.545  0.00  0.00    -0.204 NA
ATOM     21  O   UNL d   1     -55.939 -98.768 -44.910  0.00  0.00    -0.265 OA
BRANCH  20  22
ATOM     22  C   UNL d   1     -57.587 -98.830 -44.991  0.00  0.00     0.127 C 
BRANCH  22  23
ATOM     23  C   UNL d   1     -58.342 -99.014 -45.293  0.00  0.00     0.119 A 
ATOM     24  O   UNL d   1     -58.498 -99.426 -45.985  0.00  0.00    -0.304 OA
ATOM     25  C   UNL d   1     -59.315 -99.476 -46.063  0.00  0.00     0.123 A 
ATOM     26  C   UNL d   1     -59.653 -99.099 -45.425  0.00  0.00     0.029 A 
ATOM     27  C   UNL d   1     -59.049 -98.811 -44.946  0.00  0.00     0.028 A 
ENDBRANCH  22  23
ENDBRANCH  20  22
ENDBRANCH   1  19
TORSDOF 7
ENDMDL
