MODEL 1
REMARK VINA RESULT:      -6.4      0.000      0.000
REMARK  6 active torsions:
REMARK  status: ('A' for Active; 'I' for Inactive)
REMARK    1  A    between atoms: S_9  and  C_3 
REMARK    2  A    between atoms: C_4  and  C_17 
REMARK       I    between atoms: N_8  and  C_4 
REMARK    3  A    between atoms: C_5  and  C_16 
REMARK    4  A    between atoms: C_14  and  C_6 
REMARK    5  A    between atoms: C_16  and  N_8 
REMARK    6  A    between atoms: C_17  and  S_9 
ROOT
ATOM      1  N   UNL d   1     -48.483  13.631  22.445  0.00  0.00    -0.148 NA
ATOM      2  N   UNL d   1     -47.690  13.411  22.391  0.00  0.00    -0.141 NA
ATOM      3  C   UNL d   1     -47.095  13.972  22.478  0.00  0.00     0.133 A 
ATOM      4  C   UNL d   1     -48.673  14.426  22.589  0.00  0.00     0.103 A 
ATOM      5  C   UNL d   1     -48.086  14.985  22.677  0.00  0.00     0.023 A 
ATOM      6  C   UNL d   1     -47.296  14.770  22.623  0.00  0.00     0.029 A 
ENDROOT
BRANCH   3   7
ATOM      7  S   UNL d   1     -46.307  13.745  22.422  0.00  0.00    -0.061 SA
BRANCH   7   8
ATOM      8  C   UNL d   1     -46.022  13.135  22.895  0.00  0.00     0.099 C 
BRANCH   8   9
ATOM      9  C   UNL d   1     -45.319  12.748  22.697  0.00  0.00     0.286 C 
ATOM     10  N   UNL d   1     -45.161  12.003  22.998  0.00  0.00    -0.204 NA
ATOM     11  O   UNL d   1     -44.780  13.113  22.197  0.00  0.00    -0.265 OA
BRANCH  10  12
ATOM     12  C   UNL d   1     -44.469  11.619  22.804  0.00  0.00     0.127 C 
BRANCH  12  13
ATOM     13  C   UNL d   1     -44.285  10.900  23.156  0.00  0.00     0.119 A 
ATOM     14  O   UNL d   1     -44.815  10.310  23.365  0.00  0.00    -0.304 OA
ATOM     15  C   UNL d   1     -44.396   9.690  23.698  0.00  0.00     0.123 A 
ATOM     16  C   UNL d   1     -43.602   9.896  23.695  0.00  0.00     0.029 A 
ATOM     17  C   UNL d   1     -43.523  10.641  23.362  0.00  0.00     0.028 A 
ENDBRANCH  12  13
ENDBRANCH  10  12
ENDBRANCH   8   9
ENDBRANCH   7   8
ENDBRANCH   3   7
BRANCH   4  18
ATOM     18  C   UNL d   1     -49.469  14.651  22.645  0.00  0.00     0.019 A 
ATOM     19  C   UNL d   1     -49.695  15.306  23.114  0.00  0.00     0.002 A 
ATOM     20  C   UNL d   1     -50.489  15.524  23.163  0.00  0.00     0.000 A 
ATOM     21  C   UNL d   1     -51.060  15.102  22.757  0.00  0.00     0.000 A 
ATOM     22  C   UNL d   1     -50.847  14.450  22.289  0.00  0.00     0.000 A 
ATOM     23  C   UNL d   1     -50.053  14.229  22.236  0.00  0.00     0.002 A 
ENDBRANCH   4  18
TORSDOF 6
ENDMDL
MODEL 2
REMARK VINA RESULT:      -6.2      1.555      5.951
REMARK  6 active torsions:
REMARK  status: ('A' for Active; 'I' for Inactive)
REMARK    1  A    between atoms: S_9  and  C_3 
REMARK    2  A    between atoms: C_4  and  C_17 
REMARK       I    between atoms: N_8  and  C_4 
REMARK    3  A    between atoms: C_5  and  C_16 
REMARK    4  A    between atoms: C_14  and  C_6 
REMARK    5  A    between atoms: C_16  and  N_8 
REMARK    6  A    between atoms: C_17  and  S_9 
ROOT
ATOM      1  N   UNL d   1     -45.595  12.155  23.603  0.00  0.00    -0.148 NA
ATOM      2  N   UNL d   1     -46.054  12.823  23.450  0.00  0.00    -0.141 NA
ATOM      3  C   UNL d   1     -45.973  13.230  22.740  0.00  0.00     0.133 A 
ATOM      4  C   UNL d   1     -45.050  11.899  23.032  0.00  0.00     0.103 A 
ATOM      5  C   UNL d   1     -44.966  12.300  22.327  0.00  0.00     0.023 A 
ATOM      6  C   UNL d   1     -45.421  12.965  22.171  0.00  0.00     0.029 A 
ENDROOT
BRANCH   3   7
ATOM      7  S   UNL d   1     -46.434  13.894  22.594  0.00  0.00    -0.061 SA
BRANCH   7   8
ATOM      8  C   UNL d   1     -47.244  13.870  22.733  0.00  0.00     0.099 C 
BRANCH   8   9
ATOM      9  C   UNL d   1     -47.700  14.555  22.665  0.00  0.00     0.286 C 
ATOM     10  N   UNL d   1     -48.514  14.518  22.746  0.00  0.00    -0.204 NA
ATOM     11  O   UNL d   1     -47.334  15.275  22.516  0.00  0.00    -0.265 OA
BRANCH  10  12
ATOM     12  C   UNL d   1     -48.966  15.192  22.680  0.00  0.00     0.127 C 
BRANCH  12  13
ATOM     13  C   UNL d   1     -49.783  15.151  22.764  0.00  0.00     0.119 A 
ATOM     14  O   UNL d   1     -50.226  15.469  23.377  0.00  0.00    -0.304 OA
ATOM     15  C   UNL d   1     -51.015  15.299  23.242  0.00  0.00     0.123 A 
ATOM     16  C   UNL d   1     -51.063  14.874  22.542  0.00  0.00     0.029 A 
ATOM     17  C   UNL d   1     -50.307  14.778  22.240  0.00  0.00     0.028 A 
ENDBRANCH  12  13
ENDBRANCH  10  12
ENDBRANCH   8   9
ENDBRANCH   7   8
ENDBRANCH   3   7
BRANCH   4  18
ATOM     18  C   UNL d   1     -44.586  11.229  23.183  0.00  0.00     0.019 A 
ATOM     19  C   UNL d   1     -44.919  10.555  23.551  0.00  0.00     0.002 A 
ATOM     20  C   UNL d   1     -44.451   9.891  23.697  0.00  0.00     0.000 A 
ATOM     21  C   UNL d   1     -43.660   9.887  23.485  0.00  0.00     0.000 A 
ATOM     22  C   UNL d   1     -43.321  10.550  23.119  0.00  0.00     0.000 A 
ATOM     23  C   UNL d   1     -43.785  11.216  22.971  0.00  0.00     0.002 A 
ENDBRANCH   4  18
TORSDOF 6
ENDMDL
MODEL 3
REMARK VINA RESULT:      -6.2      2.384      3.056
REMARK  6 active torsions:
REMARK  status: ('A' for Active; 'I' for Inactive)
REMARK    1  A    between atoms: S_9  and  C_3 
REMARK    2  A    between atoms: C_4  and  C_17 
REMARK       I    between atoms: N_8  and  C_4 
REMARK    3  A    between atoms: C_5  and  C_16 
REMARK    4  A    between atoms: C_14  and  C_6 
REMARK    5  A    between atoms: C_16  and  N_8 
REMARK    6  A    between atoms: C_17  and  S_9 
ROOT
ATOM      1  N   UNL d   1     -46.667  14.278  22.988  0.00  0.00    -0.148 NA
ATOM      2  N   UNL d   1     -45.926  13.932  22.880  0.00  0.00    -0.141 NA
ATOM      3  C   UNL d   1     -45.851  13.236  22.448  0.00  0.00     0.133 A 
ATOM      4  C   UNL d   1     -47.335  13.916  22.655  0.00  0.00     0.103 A 
ATOM      5  C   UNL d   1     -47.265  13.227  22.226  0.00  0.00     0.023 A 
ATOM      6  C   UNL d   1     -46.530  12.879  22.116  0.00  0.00     0.029 A 
ENDROOT
BRANCH   3   7
ATOM      7  S   UNL d   1     -45.110  12.897  22.344  0.00  0.00    -0.061 SA
BRANCH   7   8
ATOM      8  C   UNL d   1     -44.614  13.170  21.747  0.00  0.00     0.099 C 
BRANCH   8   9
ATOM      9  C   UNL d   1     -43.840  12.888  21.687  0.00  0.00     0.286 C 
ATOM     10  N   UNL d   1     -43.262  13.345  21.330  0.00  0.00    -0.204 NA
ATOM     11  O   UNL d   1     -43.652  12.147  21.987  0.00  0.00    -0.265 OA
BRANCH  10  12
ATOM     12  C   UNL d   1     -42.497  13.070  21.270  0.00  0.00     0.127 C 
BRANCH  12  13
ATOM     13  C   UNL d   1     -41.917  13.537  20.923  0.00  0.00     0.119 A 
ATOM     14  O   UNL d   1     -41.744  13.584  20.122  0.00  0.00    -0.304 OA
ATOM     15  C   UNL d   1     -41.129  14.115  20.021  0.00  0.00     0.123 A 
ATOM     16  C   UNL d   1     -40.920  14.399  20.761  0.00  0.00     0.029 A 
ATOM     17  C   UNL d   1     -41.401  14.048  21.324  0.00  0.00     0.028 A 
ENDBRANCH  12  13
ENDBRANCH  10  12
ENDBRANCH   8   9
ENDBRANCH   7   8
ENDBRANCH   3   7
BRANCH   4  18
ATOM     18  C   UNL d   1     -48.082  14.261  22.762  0.00  0.00     0.019 A 
ATOM     19  C   UNL d   1     -48.690  13.848  23.161  0.00  0.00     0.002 A 
ATOM     20  C   UNL d   1     -49.429  14.199  23.263  0.00  0.00     0.000 A 
ATOM     21  C   UNL d   1     -49.574  14.951  22.975  0.00  0.00     0.000 A 
ATOM     22  C   UNL d   1     -48.977  15.370  22.578  0.00  0.00     0.000 A 
ATOM     23  C   UNL d   1     -48.236  15.023  22.474  0.00  0.00     0.002 A 
ENDBRANCH   4  18
TORSDOF 6
ENDMDL
MODEL 4
REMARK VINA RESULT:      -5.3      4.663      7.190
REMARK  6 active torsions:
REMARK  status: ('A' for Active; 'I' for Inactive)
REMARK    1  A    between atoms: S_9  and  C_3 
REMARK    2  A    between atoms: C_4  and  C_17 
REMARK       I    between atoms: N_8  and  C_4 
REMARK    3  A    between atoms: C_5  and  C_16 
REMARK    4  A    between atoms: C_14  and  C_6 
REMARK    5  A    between atoms: C_16  and  N_8 
REMARK    6  A    between atoms: C_17  and  S_9 
ROOT
ATOM      1  N   UNL d   1     -41.214  13.877  19.492  0.00  0.00    -0.148 NA
ATOM      2  N   UNL d   1     -41.739  13.458  19.971  0.00  0.00    -0.141 NA
ATOM      3  C   UNL d   1     -41.847  13.670  20.758  0.00  0.00     0.133 A 
ATOM      4  C   UNL d   1     -40.795  14.516  19.816  0.00  0.00     0.103 A 
ATOM      5  C   UNL d   1     -40.898  14.730  20.596  0.00  0.00     0.023 A 
ATOM      6  C   UNL d   1     -41.420  14.315  21.075  0.00  0.00     0.029 A 
ENDROOT
BRANCH   3   7
ATOM      7  S   UNL d   1     -42.371  13.248  21.228  0.00  0.00    -0.061 SA
BRANCH   7   8
ATOM      8  C   UNL d   1     -43.180  13.304  21.091  0.00  0.00     0.099 C 
BRANCH   8   9
ATOM      9  C   UNL d   1     -43.714  12.905  21.579  0.00  0.00     0.286 C 
ATOM     10  N   UNL d   1     -44.433  13.248  21.771  0.00  0.00    -0.204 NA
ATOM     11  O   UNL d   1     -43.523  12.162  21.871  0.00  0.00    -0.265 OA
BRANCH  10  12
ATOM     12  C   UNL d   1     -44.962  12.857  22.252  0.00  0.00     0.127 C 
BRANCH  12  13
ATOM     13  C   UNL d   1     -45.667  13.218  22.469  0.00  0.00     0.119 A 
ATOM     14  O   UNL d   1     -45.746  13.909  22.905  0.00  0.00    -0.304 OA
ATOM     15  C   UNL d   1     -46.545  14.069  22.993  0.00  0.00     0.123 A 
ATOM     16  C   UNL d   1     -46.962  13.476  22.611  0.00  0.00     0.029 A 
ATOM     17  C   UNL d   1     -46.429  12.945  22.284  0.00  0.00     0.028 A 
ENDBRANCH  12  13
ENDBRANCH  10  12
ENDBRANCH   8   9
ENDBRANCH   7   8
ENDBRANCH   3   7
BRANCH   4  18
ATOM     18  C   UNL d   1     -40.266  14.940  19.339  0.00  0.00     0.019 A 
ATOM     19  C   UNL d   1     -39.441  14.812  19.398  0.00  0.00     0.002 A 
ATOM     20  C   UNL d   1     -38.922  15.239  18.919  0.00  0.00     0.000 A 
ATOM     21  C   UNL d   1     -39.208  15.788  18.384  0.00  0.00     0.000 A 
ATOM     22  C   UNL d   1     -40.025  15.922  18.317  0.00  0.00     0.000 A 
ATOM     23  C   UNL d   1     -40.548  15.498  18.794  0.00  0.00     0.002 A 
ENDBRANCH   4  18
TORSDOF 6
ENDMDL
MODEL 5
REMARK VINA RESULT:      -5.2      7.861      9.606
REMARK  6 active torsions:
REMARK  status: ('A' for Active; 'I' for Inactive)
REMARK    1  A    between atoms: S_9  and  C_3 
REMARK    2  A    between atoms: C_4  and  C_17 
REMARK       I    between atoms: N_8  and  C_4 
REMARK    3  A    between atoms: C_5  and  C_16 
REMARK    4  A    between atoms: C_14  and  C_6 
REMARK    5  A    between atoms: C_16  and  N_8 
REMARK    6  A    between atoms: C_17  and  S_9 
ROOT
ATOM      1  N   UNL d   1     -39.043  14.102  20.762  0.00  0.00    -0.148 NA
ATOM      2  N   UNL d   1     -39.365  14.108  20.002  0.00  0.00    -0.141 NA
ATOM      3  C   UNL d   1     -40.142  14.348  19.880  0.00  0.00     0.133 A 
ATOM      4  C   UNL d   1     -39.515  14.341  21.402  0.00  0.00     0.103 A 
ATOM      5  C   UNL d   1     -40.286  14.579  21.286  0.00  0.00     0.023 A 
ATOM      6  C   UNL d   1     -40.609  14.586  20.531  0.00  0.00     0.029 A 
ENDROOT
BRANCH   3   7
ATOM      7  S   UNL d   1     -40.455  14.351  19.121  0.00  0.00    -0.061 SA
BRANCH   7   8
ATOM      8  C   UNL d   1     -40.420  15.036  18.666  0.00  0.00     0.099 C 
BRANCH   8   9
ATOM      9  C   UNL d   1     -40.429  14.990  17.841  0.00  0.00     0.286 C 
ATOM     10  N   UNL d   1     -39.757  15.176  17.411  0.00  0.00    -0.204 NA
ATOM     11  O   UNL d   1     -41.114  14.756  17.454  0.00  0.00    -0.265 OA
BRANCH  10  12
ATOM     12  C   UNL d   1     -39.763  15.131  16.597  0.00  0.00     0.127 C 
BRANCH  12  13
ATOM     13  C   UNL d   1     -39.062  15.205  16.176  0.00  0.00     0.119 A 
ATOM     14  O   UNL d   1     -38.718  15.905  15.921  0.00  0.00    -0.304 OA
ATOM     15  C   UNL d   1     -38.026  15.724  15.523  0.00  0.00     0.123 A 
ATOM     16  C   UNL d   1     -37.940  14.909  15.530  0.00  0.00     0.029 A 
ATOM     17  C   UNL d   1     -38.575  14.579  15.930  0.00  0.00     0.028 A 
ENDBRANCH  12  13
ENDBRANCH  10  12
ENDBRANCH   8   9
ENDBRANCH   7   8
ENDBRANCH   3   7
BRANCH   4  18
ATOM     18  C   UNL d   1     -39.195  14.336  22.167  0.00  0.00     0.019 A 
ATOM     19  C   UNL d   1     -38.997  15.053  22.551  0.00  0.00     0.002 A 
ATOM     20  C   UNL d   1     -38.680  15.039  23.312  0.00  0.00     0.000 A 
ATOM     21  C   UNL d   1     -38.557  14.328  23.697  0.00  0.00     0.000 A 
ATOM     22  C   UNL d   1     -38.750  13.611  23.325  0.00  0.00     0.000 A 
ATOM     23  C   UNL d   1     -39.068  13.620  22.564  0.00  0.00     0.002 A 
ENDBRANCH   4  18
TORSDOF 6
ENDMDL
MODEL 6
REMARK VINA RESULT:      -4.7      8.095      9.885
REMARK  6 active torsions:
REMARK  status: ('A' for Active; 'I' for Inactive)
REMARK    1  A    between atoms: S_9  and  C_3 
REMARK    2  A    between atoms: C_4  and  C_17 
REMARK       I    between atoms: N_8  and  C_4 
REMARK    3  A    between atoms: C_5  and  C_16 
REMARK    4  A    between atoms: C_14  and  C_6 
REMARK    5  A    between atoms: C_16  and  N_8 
REMARK    6  A    between atoms: C_17  and  S_9 
ROOT
ATOM      1  N   UNL d   1     -38.533  14.041  18.029  0.00  0.00    -0.148 NA
ATOM      2  N   UNL d   1     -38.883  14.111  18.773  0.00  0.00    -0.141 NA
ATOM      3  C   UNL d   1     -39.671  14.339  18.843  0.00  0.00     0.133 A 
ATOM      4  C   UNL d   1     -38.985  14.203  17.353  0.00  0.00     0.103 A 
ATOM      5  C   UNL d   1     -39.766  14.428  17.417  0.00  0.00     0.023 A 
ATOM      6  C   UNL d   1     -40.118  14.499  18.156  0.00  0.00     0.029 A 
ENDROOT
BRANCH   3   7
ATOM      7  S   UNL d   1     -40.012  14.406  19.586  0.00  0.00    -0.061 SA
BRANCH   7   8
ATOM      8  C   UNL d   1     -39.924  15.101  20.017  0.00  0.00     0.099 C 
BRANCH   8   9
ATOM      9  C   UNL d   1     -40.086  15.114  20.827  0.00  0.00     0.286 C 
ATOM     10  N   UNL d   1     -39.473  15.124  21.369  0.00  0.00    -0.204 NA
ATOM     11  O   UNL d   1     -40.865  15.118  21.086  0.00  0.00    -0.265 OA
BRANCH  10  12
ATOM     12  C   UNL d   1     -39.630  15.137  22.169  0.00  0.00     0.127 C 
BRANCH  12  13
ATOM     13  C   UNL d   1     -39.016  15.221  22.708  0.00  0.00     0.119 A 
ATOM     14  O   UNL d   1     -38.494  14.636  22.948  0.00  0.00    -0.304 OA
ATOM     15  C   UNL d   1     -37.973  14.960  23.490  0.00  0.00     0.123 A 
ATOM     16  C   UNL d   1     -38.172  15.749  23.587  0.00  0.00     0.029 A 
ATOM     17  C   UNL d   1     -38.815  15.920  23.109  0.00  0.00     0.028 A 
ENDBRANCH  12  13
ENDBRANCH  10  12
ENDBRANCH   8   9
ENDBRANCH   7   8
ENDBRANCH   3   7
BRANCH   4  18
ATOM     18  C   UNL d   1     -38.637  14.134  16.604  0.00  0.00     0.019 A 
ATOM     19  C   UNL d   1     -38.630  14.782  16.075  0.00  0.00     0.002 A 
ATOM     20  C   UNL d   1     -38.281  14.704  15.331  0.00  0.00     0.000 A 
ATOM     21  C   UNL d   1     -37.940  13.996  15.106  0.00  0.00     0.000 A 
ATOM     22  C   UNL d   1     -37.940  13.347  15.623  0.00  0.00     0.000 A 
ATOM     23  C   UNL d   1     -38.288  13.420  16.368  0.00  0.00     0.002 A 
ENDBRANCH   4  18
TORSDOF 6
ENDMDL
MODEL 7
REMARK VINA RESULT:      -3.9      3.157      6.353
REMARK  6 active torsions:
REMARK  status: ('A' for Active; 'I' for Inactive)
REMARK    1  A    between atoms: S_9  and  C_3 
REMARK    2  A    between atoms: C_4  and  C_17 
REMARK       I    between atoms: N_8  and  C_4 
REMARK    3  A    between atoms: C_5  and  C_16 
REMARK    4  A    between atoms: C_14  and  C_6 
REMARK    5  A    between atoms: C_16  and  N_8 
REMARK    6  A    between atoms: C_17  and  S_9 
ROOT
ATOM      1  N   UNL d   1     -42.860  14.153  21.398  0.00  0.00    -0.148 NA
ATOM      2  N   UNL d   1     -43.599  13.868  21.630  0.00  0.00    -0.141 NA
ATOM      3  C   UNL d   1     -43.746  13.059  21.649  0.00  0.00     0.133 A 
ATOM      4  C   UNL d   1     -42.267  13.613  21.184  0.00  0.00     0.103 A 
ATOM      5  C   UNL d   1     -42.409  12.811  21.202  0.00  0.00     0.023 A 
ATOM      6  C   UNL d   1     -43.143  12.523  21.432  0.00  0.00     0.029 A 
ENDROOT
BRANCH   3   7
ATOM      7  S   UNL d   1     -44.484  12.783  21.881  0.00  0.00    -0.061 SA
BRANCH   7   8
ATOM      8  C   UNL d   1     -45.069  13.316  22.104  0.00  0.00     0.099 C 
BRANCH   8   9
ATOM      9  C   UNL d   1     -45.767  13.046  22.455  0.00  0.00     0.286 C 
ATOM     10  N   UNL d   1     -46.493  13.238  22.128  0.00  0.00    -0.204 NA
ATOM     11  O   UNL d   1     -45.731  12.584  23.132  0.00  0.00    -0.265 OA
BRANCH  10  12
ATOM     12  C   UNL d   1     -47.183  12.974  22.472  0.00  0.00     0.127 C 
BRANCH  12  13
ATOM     13  C   UNL d   1     -47.906  13.122  22.111  0.00  0.00     0.119 A 
ATOM     14  O   UNL d   1     -48.257  12.673  21.520  0.00  0.00    -0.304 OA
ATOM     15  C   UNL d   1     -48.973  13.019  21.323  0.00  0.00     0.123 A 
ATOM     16  C   UNL d   1     -49.067  13.684  21.792  0.00  0.00     0.029 A 
ATOM     17  C   UNL d   1     -48.413  13.756  22.283  0.00  0.00     0.028 A 
ENDBRANCH  12  13
ENDBRANCH  10  12
ENDBRANCH   8   9
ENDBRANCH   7   8
ENDBRANCH   3   7
BRANCH   4  18
ATOM     18  C   UNL d   1     -41.524  13.896  20.951  0.00  0.00     0.019 A 
ATOM     19  C   UNL d   1     -40.884  13.909  21.490  0.00  0.00     0.002 A 
ATOM     20  C   UNL d   1     -40.147  14.192  21.249  0.00  0.00     0.000 A 
ATOM     21  C   UNL d   1     -40.036  14.461  20.485  0.00  0.00     0.000 A 
ATOM     22  C   UNL d   1     -40.665  14.452  19.942  0.00  0.00     0.000 A 
ATOM     23  C   UNL d   1     -41.403  14.170  20.178  0.00  0.00     0.002 A 
ENDBRANCH   4  18
TORSDOF 6
ENDMDL
MODEL 8
REMARK VINA RESULT:      -3.7      6.980      9.165
REMARK  6 active torsions:
REMARK  status: ('A' for Active; 'I' for Inactive)
REMARK    1  A    between atoms: S_9  and  C_3 
REMARK    2  A    between atoms: C_4  and  C_17 
REMARK       I    between atoms: N_8  and  C_4 
REMARK    3  A    between atoms: C_5  and  C_16 
REMARK    4  A    between atoms: C_14  and  C_6 
REMARK    5  A    between atoms: C_16  and  N_8 
REMARK    6  A    between atoms: C_17  and  S_9 
ROOT
ATOM      1  N   UNL d   1     -39.906  14.568  17.363  0.00  0.00    -0.148 NA
ATOM      2  N   UNL d   1     -40.286  14.661  18.090  0.00  0.00    -0.141 NA
ATOM      3  C   UNL d   1     -39.864  14.909  18.752  0.00  0.00     0.133 A 
ATOM      4  C   UNL d   1     -39.094  14.729  17.308  0.00  0.00     0.103 A 
ATOM      5  C   UNL d   1     -38.673  14.975  17.961  0.00  0.00     0.023 A 
ATOM      6  C   UNL d   1     -39.046  15.068  18.686  0.00  0.00     0.029 A 
ENDROOT
BRANCH   3   7
ATOM      7  S   UNL d   1     -40.249  14.999  19.472  0.00  0.00    -0.061 SA
BRANCH   7   8
ATOM      8  C   UNL d   1     -40.504  14.336  19.885  0.00  0.00     0.099 C 
BRANCH   8   9
ATOM      9  C   UNL d   1     -41.021  14.416  20.524  0.00  0.00     0.286 C 
ATOM     10  N   UNL d   1     -41.585  13.841  20.673  0.00  0.00    -0.204 NA
ATOM     11  O   UNL d   1     -40.969  15.076  21.011  0.00  0.00    -0.265 OA
BRANCH  10  12
ATOM     12  C   UNL d   1     -42.096  13.918  21.303  0.00  0.00     0.127 C 
BRANCH  12  13
ATOM     13  C   UNL d   1     -42.670  13.346  21.440  0.00  0.00     0.119 A 
ATOM     14  O   UNL d   1     -42.563  12.632  21.830  0.00  0.00    -0.304 OA
ATOM     15  C   UNL d   1     -43.278  12.233  21.841  0.00  0.00     0.123 A 
ATOM     16  C   UNL d   1     -43.831  12.701  21.458  0.00  0.00     0.029 A 
ATOM     17  C   UNL d   1     -43.465  13.391  21.207  0.00  0.00     0.028 A 
ENDBRANCH  12  13
ENDBRANCH  10  12
ENDBRANCH   8   9
ENDBRANCH   7   8
ENDBRANCH   3   7
BRANCH   4  18
ATOM     18  C   UNL d   1     -38.710  14.637  16.579  0.00  0.00     0.019 A 
ATOM     19  C   UNL d   1     -38.567  15.298  16.086  0.00  0.00     0.002 A 
ATOM     20  C   UNL d   1     -38.184  15.198  15.362  0.00  0.00     0.000 A 
ATOM     21  C   UNL d   1     -37.941  14.454  15.122  0.00  0.00     0.000 A 
ATOM     22  C   UNL d   1     -38.077  13.792  15.604  0.00  0.00     0.000 A 
ATOM     23  C   UNL d   1     -38.460  13.888  16.328  0.00  0.00     0.002 A 
ENDBRANCH   4  18
TORSDOF 6
ENDMDL
MODEL 9
REMARK VINA RESULT:      -3.6      4.810      7.176
REMARK  6 active torsions:
REMARK  status: ('A' for Active; 'I' for Inactive)
REMARK    1  A    between atoms: S_9  and  C_3 
REMARK    2  A    between atoms: C_4  and  C_17 
REMARK       I    between atoms: N_8  and  C_4 
REMARK    3  A    between atoms: C_5  and  C_16 
REMARK    4  A    between atoms: C_14  and  C_6 
REMARK    5  A    between atoms: C_16  and  N_8 
REMARK    6  A    between atoms: C_17  and  S_9 
ROOT
ATOM      1  N   UNL d   1     -41.312  13.818  19.214  0.00  0.00    -0.148 NA
ATOM      2  N   UNL d   1     -41.846  13.617  19.811  0.00  0.00    -0.141 NA
ATOM      3  C   UNL d   1     -41.739  13.896  20.577  0.00  0.00     0.133 A 
ATOM      4  C   UNL d   1     -40.666  14.305  19.397  0.00  0.00     0.103 A 
ATOM      5  C   UNL d   1     -40.556  14.584  20.155  0.00  0.00     0.023 A 
ATOM      6  C   UNL d   1     -41.084  14.386  20.751  0.00  0.00     0.029 A 
ENDROOT
BRANCH   3   7
ATOM      7  S   UNL d   1     -42.274  13.692  21.165  0.00  0.00    -0.061 SA
BRANCH   7   8
ATOM      8  C   UNL d   1     -42.599  12.937  21.180  0.00  0.00     0.099 C 
BRANCH   8   9
ATOM      9  C   UNL d   1     -43.250  12.772  21.661  0.00  0.00     0.286 C 
ATOM     10  N   UNL d   1     -43.290  12.065  22.072  0.00  0.00    -0.204 NA
ATOM     11  O   UNL d   1     -43.858  13.320  21.726  0.00  0.00    -0.265 OA
BRANCH  10  12
ATOM     12  C   UNL d   1     -43.931  11.900  22.548  0.00  0.00     0.127 C 
BRANCH  12  13
ATOM     13  C   UNL d   1     -43.949  11.207  22.989  0.00  0.00     0.119 A 
ATOM     14  O   UNL d   1     -43.301  10.808  23.295  0.00  0.00    -0.304 OA
ATOM     15  C   UNL d   1     -43.571  10.147  23.696  0.00  0.00     0.123 A 
ATOM     16  C   UNL d   1     -44.388  10.136  23.639  0.00  0.00     0.029 A 
ATOM     17  C   UNL d   1     -44.631  10.787  23.204  0.00  0.00     0.028 A 
ENDBRANCH  12  13
ENDBRANCH  10  12
ENDBRANCH   8   9
ENDBRANCH   7   8
ENDBRANCH   3   7
BRANCH   4  18
ATOM     18  C   UNL d   1     -40.128  14.509  18.800  0.00  0.00     0.019 A 
ATOM     19  C   UNL d   1     -39.708  13.917  18.384  0.00  0.00     0.002 A 
ATOM     20  C   UNL d   1     -39.174  14.128  17.792  0.00  0.00     0.000 A 
ATOM     21  C   UNL d   1     -39.051  14.915  17.607  0.00  0.00     0.000 A 
ATOM     22  C   UNL d   1     -39.463  15.511  18.013  0.00  0.00     0.000 A 
ATOM     23  C   UNL d   1     -39.998  15.304  18.606  0.00  0.00     0.002 A 
ENDBRANCH   4  18
TORSDOF 6
ENDMDL
