MODEL 1
REMARK VINA RESULT:      -4.5      0.000      0.000
REMARK  2 active torsions:
REMARK  status: ('A' for Active; 'I' for Inactive)
REMARK       I    between atoms: N_2  and  C_1 
REMARK       I    between atoms: N_3  and  C_1 
REMARK    1  A    between atoms: C_6  and  N_2 
REMARK    2  A    between atoms: C_5  and  N_3 
ROOT
ATOM      1  C   UNL d   1      56.628  -0.767  32.076  0.00  0.00     0.369 C 
ATOM      2  N   UNL d   1      56.091  -0.989  32.643  0.00  0.00    -0.191 NA
ATOM      3  N   UNL d   1      56.902  -0.004  32.054  0.00  0.00    -0.191 NA
ATOM      4  O   UNL d   1      56.938  -1.296  31.478  0.00  0.00    -0.242 OA
ENDROOT
BRANCH   2   5
ATOM      5  C   UNL d   1      55.831  -0.440  33.187  0.00  0.00     0.086 A 
ATOM      6  C   UNL d   1      55.133  -0.031  33.057  0.00  0.00     0.019 A 
ATOM      7  C   UNL d   1      54.852   0.532  33.599  0.00  0.00     0.002 A 
ATOM      8  C   UNL d   1      55.292   0.682  34.292  0.00  0.00     0.000 A 
ATOM      9  C   UNL d   1      56.000   0.265  34.422  0.00  0.00     0.002 A 
ATOM     10  C   UNL d   1      56.267  -0.292  33.874  0.00  0.00     0.019 A 
ENDBRANCH   2   5
BRANCH   3  11
ATOM     11  C   UNL d   1      57.440   0.222  31.487  0.00  0.00     0.086 A 
ATOM     12  C   UNL d   1      58.202   0.430  31.706  0.00  0.00     0.019 A 
ATOM     13  C   UNL d   1      58.754   0.661  31.138  0.00  0.00     0.002 A 
ATOM     14  C   UNL d   1      58.534   0.682  30.333  0.00  0.00     0.000 A 
ATOM     15  C   UNL d   1      57.766   0.472  30.116  0.00  0.00     0.002 A 
ATOM     16  C   UNL d   1      57.222   0.243  30.693  0.00  0.00     0.019 A 
ENDBRANCH   3  11
TORSDOF 2
ENDMDL
MODEL 2
REMARK VINA RESULT:      -4.5      1.355      4.003
REMARK  2 active torsions:
REMARK  status: ('A' for Active; 'I' for Inactive)
REMARK       I    between atoms: N_2  and  C_1 
REMARK       I    between atoms: N_3  and  C_1 
REMARK    1  A    between atoms: C_6  and  N_2 
REMARK    2  A    between atoms: C_5  and  N_3 
ROOT
ATOM      1  C   UNL d   1      58.229   0.394  31.329  0.00  0.00     0.369 C 
ATOM      2  N   UNL d   1      58.798   0.512  30.763  0.00  0.00    -0.191 NA
ATOM      3  N   UNL d   1      57.548  -0.003  31.143  0.00  0.00    -0.191 NA
ATOM      4  O   UNL d   1      58.296   0.668  32.138  0.00  0.00    -0.242 OA
ENDROOT
BRANCH   2   5
ATOM      5  C   UNL d   1      58.678   0.228  30.007  0.00  0.00     0.086 A 
ATOM      6  C   UNL d   1      58.965  -0.511  29.796  0.00  0.00     0.019 A 
ATOM      7  C   UNL d   1      58.853  -0.818  29.033  0.00  0.00     0.002 A 
ATOM      8  C   UNL d   1      58.439  -0.362  28.469  0.00  0.00     0.000 A 
ATOM      9  C   UNL d   1      58.150   0.387  28.686  0.00  0.00     0.002 A 
ATOM     10  C   UNL d   1      58.268   0.680  29.449  0.00  0.00     0.019 A 
ENDBRANCH   2   5
BRANCH   3  11
ATOM     11  C   UNL d   1      56.975  -0.123  31.708  0.00  0.00     0.086 A 
ATOM     12  C   UNL d   1      56.547   0.513  31.998  0.00  0.00     0.019 A 
ATOM     13  C   UNL d   1      55.965   0.401  32.572  0.00  0.00     0.002 A 
ATOM     14  C   UNL d   1      55.811  -0.368  32.859  0.00  0.00     0.000 A 
ATOM     15  C   UNL d   1      56.244  -1.006  32.565  0.00  0.00     0.002 A 
ATOM     16  C   UNL d   1      56.824  -0.882  31.991  0.00  0.00     0.019 A 
ENDBRANCH   3  11
TORSDOF 2
ENDMDL
MODEL 3
REMARK VINA RESULT:      -4.4      1.172      1.559
REMARK  2 active torsions:
REMARK  status: ('A' for Active; 'I' for Inactive)
REMARK       I    between atoms: N_2  and  C_1 
REMARK       I    between atoms: N_3  and  C_1 
REMARK    1  A    between atoms: C_6  and  N_2 
REMARK    2  A    between atoms: C_5  and  N_3 
ROOT
ATOM      1  C   UNL d   1      57.844   0.394  31.971  0.00  0.00     0.369 C 
ATOM      2  N   UNL d   1      57.516   0.429  32.712  0.00  0.00    -0.191 NA
ATOM      3  N   UNL d   1      57.424   0.071  31.357  0.00  0.00    -0.191 NA
ATOM      4  O   UNL d   1      58.628   0.682  31.781  0.00  0.00    -0.242 OA
ENDROOT
BRANCH   2   5
ATOM      5  C   UNL d   1      56.763   0.138  32.833  0.00  0.00     0.086 A 
ATOM      6  C   UNL d   1      56.133   0.654  32.926  0.00  0.00     0.019 A 
ATOM      7  C   UNL d   1      55.360   0.378  33.050  0.00  0.00     0.002 A 
ATOM      8  C   UNL d   1      55.224  -0.445  33.080  0.00  0.00     0.000 A 
ATOM      9  C   UNL d   1      55.865  -0.967  32.986  0.00  0.00     0.002 A 
ATOM     10  C   UNL d   1      56.629  -0.677  32.864  0.00  0.00     0.019 A 
ENDBRANCH   2   5
BRANCH   3  11
ATOM     11  C   UNL d   1      57.750   0.035  30.612  0.00  0.00     0.086 A 
ATOM     12  C   UNL d   1      57.703   0.682  30.113  0.00  0.00     0.019 A 
ATOM     13  C   UNL d   1      58.030   0.654  29.356  0.00  0.00     0.002 A 
ATOM     14  C   UNL d   1      58.413  -0.042  29.098  0.00  0.00     0.000 A 
ATOM     15  C   UNL d   1      58.459  -0.692  29.604  0.00  0.00     0.002 A 
ATOM     16  C   UNL d   1      58.128  -0.652  30.358  0.00  0.00     0.019 A 
ENDBRANCH   3  11
TORSDOF 2
ENDMDL
MODEL 4
REMARK VINA RESULT:      -4.4      1.306      3.925
REMARK  2 active torsions:
REMARK  status: ('A' for Active; 'I' for Inactive)
REMARK       I    between atoms: N_2  and  C_1 
REMARK       I    between atoms: N_3  and  C_1 
REMARK    1  A    between atoms: C_6  and  N_2 
REMARK    2  A    between atoms: C_5  and  N_3 
ROOT
ATOM      1  C   UNL d   1      57.240   0.378  30.566  0.00  0.00     0.369 C 
ATOM      2  N   UNL d   1      57.679   0.558  29.907  0.00  0.00    -0.191 NA
ATOM      3  N   UNL d   1      57.543  -0.114  31.133  0.00  0.00    -0.191 NA
ATOM      4  O   UNL d   1      56.453   0.682  30.712  0.00  0.00    -0.242 OA
ENDROOT
BRANCH   2   5
ATOM      5  C   UNL d   1      58.425   0.238  29.822  0.00  0.00     0.086 A 
ATOM      6  C   UNL d   1      58.524  -0.474  29.427  0.00  0.00     0.019 A 
ATOM      7  C   UNL d   1      59.275  -0.815  29.329  0.00  0.00     0.002 A 
ATOM      8  C   UNL d   1      59.942  -0.422  29.642  0.00  0.00     0.000 A 
ATOM      9  C   UNL d   1      59.838   0.299  30.042  0.00  0.00     0.002 A 
ATOM     10  C   UNL d   1      59.086   0.627  30.131  0.00  0.00     0.019 A 
ENDBRANCH   2   5
BRANCH   3  11
ATOM     11  C   UNL d   1      57.106  -0.296  31.795  0.00  0.00     0.086 A 
ATOM     12  C   UNL d   1      57.082   0.227  32.425  0.00  0.00     0.019 A 
ATOM     13  C   UNL d   1      56.641   0.051  33.101  0.00  0.00     0.002 A 
ATOM     14  C   UNL d   1      56.217  -0.667  33.140  0.00  0.00     0.000 A 
ATOM     15  C   UNL d   1      56.243  -1.191  32.504  0.00  0.00     0.002 A 
ATOM     16  C   UNL d   1      56.687  -1.004  31.834  0.00  0.00     0.019 A 
ENDBRANCH   3  11
TORSDOF 2
ENDMDL
MODEL 5
REMARK VINA RESULT:      -4.2      1.789      4.300
REMARK  2 active torsions:
REMARK  status: ('A' for Active; 'I' for Inactive)
REMARK       I    between atoms: N_2  and  C_1 
REMARK       I    between atoms: N_3  and  C_1 
REMARK    1  A    between atoms: C_6  and  N_2 
REMARK    2  A    between atoms: C_5  and  N_3 
ROOT
ATOM      1  C   UNL d   1      57.718   0.207  29.929  0.00  0.00     0.369 C 
ATOM      2  N   UNL d   1      58.169   0.181  29.254  0.00  0.00    -0.191 NA
ATOM      3  N   UNL d   1      57.936  -0.226  30.577  0.00  0.00    -0.191 NA
ATOM      4  O   UNL d   1      57.006   0.675  30.009  0.00  0.00    -0.242 OA
ENDROOT
BRANCH   2   5
ATOM      5  C   UNL d   1      58.839  -0.283  29.235  0.00  0.00     0.086 A 
ATOM      6  C   UNL d   1      59.564   0.032  29.453  0.00  0.00     0.019 A 
ATOM      7  C   UNL d   1      60.257  -0.424  29.441  0.00  0.00     0.002 A 
ATOM      8  C   UNL d   1      60.212  -1.223  29.202  0.00  0.00     0.000 A 
ATOM      9  C   UNL d   1      59.476  -1.541  28.982  0.00  0.00     0.002 A 
ATOM     10  C   UNL d   1      58.795  -1.075  28.999  0.00  0.00     0.019 A 
ENDBRANCH   2   5
BRANCH   3  11
ATOM     11  C   UNL d   1      57.486  -0.202  31.256  0.00  0.00     0.086 A 
ATOM     12  C   UNL d   1      56.998  -0.832  31.445  0.00  0.00     0.019 A 
ATOM     13  C   UNL d   1      56.539  -0.817  32.131  0.00  0.00     0.002 A 
ATOM     14  C   UNL d   1      56.573  -0.153  32.635  0.00  0.00     0.000 A 
ATOM     15  C   UNL d   1      57.066   0.481  32.441  0.00  0.00     0.002 A 
ATOM     16  C   UNL d   1      57.520   0.454  31.753  0.00  0.00     0.019 A 
ENDBRANCH   3  11
TORSDOF 2
ENDMDL
MODEL 6
REMARK VINA RESULT:      -3.8      9.015      9.709
REMARK  2 active torsions:
REMARK  status: ('A' for Active; 'I' for Inactive)
REMARK       I    between atoms: N_2  and  C_1 
REMARK       I    between atoms: N_3  and  C_1 
REMARK    1  A    between atoms: C_6  and  N_2 
REMARK    2  A    between atoms: C_5  and  N_3 
ROOT
ATOM      1  C   UNL d   1      60.633  -9.058  35.077  0.00  0.00     0.369 C 
ATOM      2  N   UNL d   1      60.796  -8.693  35.783  0.00  0.00    -0.191 NA
ATOM      3  N   UNL d   1      60.120  -8.715  34.552  0.00  0.00    -0.191 NA
ATOM      4  O   UNL d   1      60.976  -9.805  34.836  0.00  0.00    -0.242 OA
ENDROOT
BRANCH   2   5
ATOM      5  C   UNL d   1      60.438  -7.981  35.959  0.00  0.00     0.086 A 
ATOM      6  C   UNL d   1      59.640  -7.957  36.145  0.00  0.00     0.019 A 
ATOM      7  C   UNL d   1      59.258  -7.242  36.326  0.00  0.00     0.002 A 
ATOM      8  C   UNL d   1      59.699  -6.533  36.318  0.00  0.00     0.000 A 
ATOM      9  C   UNL d   1      60.509  -6.561  36.129  0.00  0.00     0.002 A 
ATOM     10  C   UNL d   1      60.875  -7.279  35.951  0.00  0.00     0.019 A 
ENDBRANCH   2   5
BRANCH   3  11
ATOM     11  C   UNL d   1      59.956  -9.079  33.843  0.00  0.00     0.086 A 
ATOM     12  C   UNL d   1      59.232  -9.447  33.730  0.00  0.00     0.019 A 
ATOM     13  C   UNL d   1      59.056  -9.818  33.014  0.00  0.00     0.002 A 
ATOM     14  C   UNL d   1      59.622  -9.818  32.400  0.00  0.00     0.000 A 
ATOM     15  C   UNL d   1      60.350  -9.447  32.517  0.00  0.00     0.002 A 
ATOM     16  C   UNL d   1      60.514  -9.079  33.237  0.00  0.00     0.019 A 
ENDBRANCH   3  11
TORSDOF 2
ENDMDL
MODEL 7
REMARK VINA RESULT:      -3.5      0.695      3.449
REMARK  2 active torsions:
REMARK  status: ('A' for Active; 'I' for Inactive)
REMARK       I    between atoms: N_2  and  C_1 
REMARK       I    between atoms: N_3  and  C_1 
REMARK    1  A    between atoms: C_6  and  N_2 
REMARK    2  A    between atoms: C_5  and  N_3 
ROOT
ATOM      1  C   UNL d   1      56.618  -0.782  32.128  0.00  0.00     0.369 C 
ATOM      2  N   UNL d   1      57.011  -1.006  31.454  0.00  0.00    -0.191 NA
ATOM      3  N   UNL d   1      56.643  -0.010  32.374  0.00  0.00    -0.191 NA
ATOM      4  O   UNL d   1      56.161  -1.318  32.615  0.00  0.00    -0.242 OA
ENDROOT
BRANCH   2   5
ATOM      5  C   UNL d   1      57.430  -0.449  31.029  0.00  0.00     0.086 A 
ATOM      6  C   UNL d   1      58.248  -0.423  31.083  0.00  0.00     0.019 A 
ATOM      7  C   UNL d   1      58.692   0.136  30.659  0.00  0.00     0.002 A 
ATOM      8  C   UNL d   1      58.295   0.682  30.167  0.00  0.00     0.000 A 
ATOM      9  C   UNL d   1      57.465   0.652  30.116  0.00  0.00     0.002 A 
ATOM     10  C   UNL d   1      57.036   0.091  30.543  0.00  0.00     0.019 A 
ENDBRANCH   2   5
BRANCH   3  11
ATOM     11  C   UNL d   1      56.250   0.218  33.049  0.00  0.00     0.086 A 
ATOM     12  C   UNL d   1      56.671   0.390  33.730  0.00  0.00     0.019 A 
ATOM     13  C   UNL d   1      56.282   0.622  34.419  0.00  0.00     0.002 A 
ATOM     14  C   UNL d   1      55.449   0.682  34.421  0.00  0.00     0.000 A 
ATOM     15  C   UNL d   1      55.027   0.508  33.733  0.00  0.00     0.002 A 
ATOM     16  C   UNL d   1      55.428   0.277  33.051  0.00  0.00     0.019 A 
ENDBRANCH   3  11
TORSDOF 2
ENDMDL
