MODEL 1
REMARK VINA RESULT:     -11.6      0.000      0.000
REMARK  2 active torsions:
REMARK  status: ('A' for Active; 'I' for Inactive)
REMARK    1  A    between atoms: C_9  and  C_3 
REMARK    2  A    between atoms: C_12  and  N_4 
ROOT
ATOM      1  C   UNL d   1      53.420  33.180  54.010  0.00  0.00     0.035 A 
ATOM      2  C   UNL d   1      52.844  33.726  53.786  0.00  0.00     0.065 A 
ATOM      3  C   UNL d   1      53.246  32.465  53.650  0.00  0.00     0.166 A 
ATOM      4  N   UNL d   1      52.316  33.341  53.286  0.00  0.00    -0.233 N 
ATOM      5  N   UNL d   1      52.566  32.563  53.203  0.00  0.00    -0.159 NA
ATOM      6  C   UNL d   1      53.188  34.230  54.196  0.00  0.00     0.057 A 
ATOM      7  C   UNL d   1      53.824  33.704  54.469  0.00  0.00    -0.020 A 
ATOM      8  C   UNL d   1      54.454  33.673  54.902  0.00  0.00     0.027 A 
ATOM      9  C   UNL d   1      53.022  34.997  54.333  0.00  0.00    -0.021 A 
ATOM     10  C   UNL d   1      53.560  34.508  54.550  0.00  0.00    -0.008 A 
ATOM     11  C   UNL d   1      52.609  34.606  53.913  0.00  0.00     0.011 C 
ATOM     12  C   UNL d   1      54.847  33.041  54.969  0.00  0.00     0.005 C 
ATOM     13  C   UNL d   1      54.941  34.014  55.359  0.00  0.00     0.005 C 
ENDROOT
BRANCH   4  14
ATOM     14  C   UNL d   1      51.637  33.686  52.923  0.00  0.00     0.083 A 
ATOM     15  C   UNL d   1      50.893  33.678  53.333  0.00  0.00     0.019 A 
ATOM     16  C   UNL d   1      50.220  34.022  52.968  0.00  0.00     0.002 A 
ATOM     17  C   UNL d   1      50.280  34.371  52.207  0.00  0.00     0.000 A 
ATOM     18  C   UNL d   1      51.028  34.377  51.799  0.00  0.00     0.002 A 
ATOM     19  C   UNL d   1      51.698  34.032  52.167  0.00  0.00     0.019 A 
ENDBRANCH   4  14
BRANCH   3  20
ATOM     20  C   UNL d   1      53.691  31.756  53.727  0.00  0.00     0.231 C 
ATOM     21  O   UNL d   1      54.355  31.605  53.225  0.00  0.00    -0.643 OA
ATOM     22  O   UNL d   1      53.469  31.188  54.315  0.00  0.00    -0.643 OA
ENDBRANCH   3  20
TORSDOF 2
ENDMDL
MODEL 2
REMARK VINA RESULT:     -11.0      1.542      2.935
REMARK  2 active torsions:
REMARK  status: ('A' for Active; 'I' for Inactive)
REMARK    1  A    between atoms: C_9  and  C_3 
REMARK    2  A    between atoms: C_12  and  N_4 
ROOT
ATOM      1  C   UNL d   1      52.700  33.508  53.549  0.00  0.00     0.035 A 
ATOM      2  C   UNL d   1      53.044  32.784  53.741  0.00  0.00     0.065 A 
ATOM      3  C   UNL d   1      52.179  33.385  52.929  0.00  0.00     0.166 A 
ATOM      4  N   UNL d   1      52.730  32.216  53.235  0.00  0.00    -0.233 N 
ATOM      5  N   UNL d   1      52.196  32.589  52.734  0.00  0.00    -0.159 NA
ATOM      6  C   UNL d   1      53.428  33.126  54.266  0.00  0.00     0.057 A 
ATOM      7  C   UNL d   1      53.103  33.917  54.113  0.00  0.00    -0.020 A 
ATOM      8  C   UNL d   1      53.129  34.647  54.339  0.00  0.00     0.027 A 
ATOM      9  C   UNL d   1      53.960  32.850  54.791  0.00  0.00    -0.021 A 
ATOM     10  C   UNL d   1      53.654  33.524  54.628  0.00  0.00    -0.008 A 
ATOM     11  C   UNL d   1      53.651  32.416  54.326  0.00  0.00     0.011 C 
ATOM     12  C   UNL d   1      52.709  35.171  54.008  0.00  0.00     0.005 C 
ATOM     13  C   UNL d   1      53.408  35.173  54.796  0.00  0.00     0.005 C 
ENDROOT
BRANCH   4  14
ATOM     14  C   UNL d   1      52.924  31.395  53.232  0.00  0.00     0.083 A 
ATOM     15  C   UNL d   1      52.382  30.835  53.572  0.00  0.00     0.019 A 
ATOM     16  C   UNL d   1      52.578  30.019  53.567  0.00  0.00     0.002 A 
ATOM     17  C   UNL d   1      53.301  29.757  53.229  0.00  0.00     0.000 A 
ATOM     18  C   UNL d   1      53.841  30.321  52.889  0.00  0.00     0.002 A 
ATOM     19  C   UNL d   1      53.641  31.136  52.896  0.00  0.00     0.019 A 
ENDBRANCH   4  14
BRANCH   3  20
ATOM     20  C   UNL d   1      51.708  33.976  52.559  0.00  0.00     0.231 C 
ATOM     21  O   UNL d   1      52.007  34.417  51.901  0.00  0.00    -0.643 OA
ATOM     22  O   UNL d   1      50.928  34.128  52.848  0.00  0.00    -0.643 OA
ENDBRANCH   3  20
TORSDOF 2
ENDMDL
MODEL 3
REMARK VINA RESULT:     -10.8      0.971      3.276
REMARK  2 active torsions:
REMARK  status: ('A' for Active; 'I' for Inactive)
REMARK    1  A    between atoms: C_9  and  C_3 
REMARK    2  A    between atoms: C_12  and  N_4 
ROOT
ATOM      1  C   UNL d   1      52.431  33.190  53.264  0.00  0.00     0.035 A 
ATOM      2  C   UNL d   1      52.962  33.644  53.702  0.00  0.00     0.065 A 
ATOM      3  C   UNL d   1      52.683  32.411  53.288  0.00  0.00     0.166 A 
ATOM      4  N   UNL d   1      53.542  33.138  53.993  0.00  0.00    -0.233 N 
ATOM      5  N   UNL d   1      53.369  32.378  53.737  0.00  0.00    -0.159 NA
ATOM      6  C   UNL d   1      52.558  34.236  53.543  0.00  0.00     0.057 A 
ATOM      7  C   UNL d   1      51.963  33.815  53.070  0.00  0.00    -0.020 A 
ATOM      8  C   UNL d   1      51.323  33.908  52.662  0.00  0.00     0.027 A 
ATOM      9  C   UNL d   1      52.648  35.003  53.745  0.00  0.00    -0.021 A 
ATOM     10  C   UNL d   1      52.149  34.600  53.339  0.00  0.00    -0.008 A 
ATOM     11  C   UNL d   1      53.110  34.514  53.961  0.00  0.00     0.011 C 
ATOM     12  C   UNL d   1      50.987  33.327  52.332  0.00  0.00     0.005 C 
ATOM     13  C   UNL d   1      50.788  34.359  52.392  0.00  0.00     0.005 C 
ENDROOT
BRANCH   4  14
ATOM     14  C   UNL d   1      54.200  33.363  54.471  0.00  0.00     0.083 A 
ATOM     15  C   UNL d   1      54.936  33.573  54.100  0.00  0.00     0.019 A 
ATOM     16  C   UNL d   1      55.588  33.796  54.580  0.00  0.00     0.002 A 
ATOM     17  C   UNL d   1      55.516  33.812  55.416  0.00  0.00     0.000 A 
ATOM     18  C   UNL d   1      54.777  33.602  55.783  0.00  0.00     0.002 A 
ATOM     19  C   UNL d   1      54.127  33.379  55.301  0.00  0.00     0.019 A 
ENDBRANCH   4  14
BRANCH   3  20
ATOM     20  C   UNL d   1      52.304  31.760  52.915  0.00  0.00     0.231 C 
ATOM     21  O   UNL d   1      51.652  31.368  53.288  0.00  0.00    -0.643 OA
ATOM     22  O   UNL d   1      52.577  31.496  52.159  0.00  0.00    -0.643 OA
ENDBRANCH   3  20
TORSDOF 2
ENDMDL
MODEL 4
REMARK VINA RESULT:     -10.8      1.433      2.985
REMARK  2 active torsions:
REMARK  status: ('A' for Active; 'I' for Inactive)
REMARK    1  A    between atoms: C_9  and  C_3 
REMARK    2  A    between atoms: C_12  and  N_4 
ROOT
ATOM      1  C   UNL d   1      53.572  33.315  54.145  0.00  0.00     0.035 A 
ATOM      2  C   UNL d   1      53.186  32.672  53.803  0.00  0.00     0.065 A 
ATOM      3  C   UNL d   1      54.251  33.038  54.511  0.00  0.00     0.166 A 
ATOM      4  N   UNL d   1      53.631  32.000  53.961  0.00  0.00    -0.233 N 
ATOM      5  N   UNL d   1      54.289  32.226  54.398  0.00  0.00    -0.159 NA
ATOM      6  C   UNL d   1      52.667  33.135  53.565  0.00  0.00     0.057 A 
ATOM      7  C   UNL d   1      53.024  33.852  53.902  0.00  0.00    -0.020 A 
ATOM      8  C   UNL d   1      52.935  34.608  53.975  0.00  0.00     0.027 A 
ATOM      9  C   UNL d   1      52.003  33.007  53.141  0.00  0.00    -0.021 A 
ATOM     10  C   UNL d   1      52.346  33.609  53.450  0.00  0.00    -0.008 A 
ATOM     11  C   UNL d   1      52.433  32.473  53.313  0.00  0.00     0.011 C 
ATOM     12  C   UNL d   1      53.434  35.022  54.347  0.00  0.00     0.005 C 
ATOM     13  C   UNL d   1      52.537  35.228  53.837  0.00  0.00     0.005 C 
ENDROOT
BRANCH   4  14
ATOM     14  C   UNL d   1      53.445  31.214  53.716  0.00  0.00     0.083 A 
ATOM     15  C   UNL d   1      53.131  30.662  54.281  0.00  0.00     0.019 A 
ATOM     16  C   UNL d   1      52.947  29.881  54.034  0.00  0.00     0.002 A 
ATOM     17  C   UNL d   1      53.071  29.647  53.237  0.00  0.00     0.000 A 
ATOM     18  C   UNL d   1      53.385  30.203  52.674  0.00  0.00     0.002 A 
ATOM     19  C   UNL d   1      53.568  30.982  52.925  0.00  0.00     0.019 A 
ENDBRANCH   4  14
BRANCH   3  20
ATOM     20  C   UNL d   1      54.810  33.506  54.929  0.00  0.00     0.231 C 
ATOM     21  O   UNL d   1      54.694  33.691  55.747  0.00  0.00    -0.643 OA
ATOM     22  O   UNL d   1      55.496  33.795  54.525  0.00  0.00    -0.643 OA
ENDBRANCH   3  20
TORSDOF 2
ENDMDL
MODEL 5
REMARK VINA RESULT:     -10.7      1.424      2.059
REMARK  2 active torsions:
REMARK  status: ('A' for Active; 'I' for Inactive)
REMARK    1  A    between atoms: C_9  and  C_3 
REMARK    2  A    between atoms: C_12  and  N_4 
ROOT
ATOM      1  C   UNL d   1      53.022  33.860  53.970  0.00  0.00     0.035 A 
ATOM      2  C   UNL d   1      52.454  33.613  53.426  0.00  0.00     0.065 A 
ATOM      3  C   UNL d   1      52.889  34.652  54.134  0.00  0.00     0.166 A 
ATOM      4  N   UNL d   1      51.972  34.258  53.257  0.00  0.00    -0.233 N 
ATOM      5  N   UNL d   1      52.241  34.899  53.694  0.00  0.00    -0.159 NA
ATOM      6  C   UNL d   1      52.757  32.944  53.442  0.00  0.00     0.057 A 
ATOM      7  C   UNL d   1      53.380  33.141  54.014  0.00  0.00    -0.020 A 
ATOM      8  C   UNL d   1      53.976  32.855  54.398  0.00  0.00     0.027 A 
ATOM      9  C   UNL d   1      52.566  32.272  53.057  0.00  0.00    -0.021 A 
ATOM     10  C   UNL d   1      53.095  32.483  53.558  0.00  0.00    -0.008 A 
ATOM     11  C   UNL d   1      52.194  32.865  52.958  0.00  0.00     0.011 C 
ATOM     12  C   UNL d   1      54.375  33.279  54.867  0.00  0.00     0.005 C 
ATOM     13  C   UNL d   1      54.421  32.273  54.560  0.00  0.00     0.005 C 
ENDROOT
BRANCH   4  14
ATOM     14  C   UNL d   1      51.316  34.260  52.726  0.00  0.00     0.083 A 
ATOM     15  C   UNL d   1      50.527  34.190  53.034  0.00  0.00     0.019 A 
ATOM     16  C   UNL d   1      49.877  34.193  52.503  0.00  0.00     0.002 A 
ATOM     17  C   UNL d   1      50.003  34.263  51.676  0.00  0.00     0.000 A 
ATOM     18  C   UNL d   1      50.796  34.333  51.371  0.00  0.00     0.002 A 
ATOM     19  C   UNL d   1      51.443  34.331  51.905  0.00  0.00     0.019 A 
ENDBRANCH   4  14
BRANCH   3  20
ATOM     20  C   UNL d   1      53.339  35.127  54.661  0.00  0.00     0.231 C 
ATOM     21  O   UNL d   1      53.167  35.135  55.490  0.00  0.00    -0.643 OA
ATOM     22  O   UNL d   1      53.971  35.602  54.358  0.00  0.00    -0.643 OA
ENDBRANCH   3  20
TORSDOF 2
ENDMDL
