MODEL 1
REMARK VINA RESULT:      -7.7      0.000      0.000
REMARK  5 active torsions:
REMARK  status: ('A' for Active; 'I' for Inactive)
REMARK    1  A    between atoms: C_11  and  N_2 
REMARK    2  A    between atoms: C_5  and  C_3 
REMARK    3  A    between atoms: C_7  and  C_5 
REMARK    4  A    between atoms: C_8  and  C_7 
REMARK    5  A    between atoms: C_10  and  C_8 
ROOT
ATOM      1  C   UNL d   1      52.915  32.938  53.284  0.00  0.00     0.006 C 
ENDROOT
BRANCH   1   2
ATOM      2  C   UNL d   1      53.095  33.572  53.777  0.00  0.00     0.039 A 
ATOM      3  C   UNL d   1      53.598  33.647  54.424  0.00  0.00     0.122 A 
ATOM      4  N   UNL d   1      53.549  34.420  54.696  0.00  0.00    -0.164 NA
ATOM      5  N   UNL d   1      53.019  34.826  54.223  0.00  0.00    -0.228 N 
ATOM      6  C   UNL d   1      52.735  34.301  53.650  0.00  0.00     0.085 A 
ATOM      7  C   UNL d   1      52.183  34.485  53.055  0.00  0.00     0.021 C 
BRANCH   5   8
ATOM      8  C   UNL d   1      52.810  35.618  54.307  0.00  0.00     0.101 C 
ATOM      9  C   UNL d   1      53.211  36.098  54.848  0.00  0.00     0.022 C 
ENDBRANCH   5   8
ENDBRANCH   1   2
BRANCH   1  10
ATOM     10  C   UNL d   1      53.163  32.177  53.485  0.00  0.00     0.042 C 
BRANCH  10  11
ATOM     11  C   UNL d   1      52.981  31.535  52.992  0.00  0.00     0.196 C 
ATOM     12  O   UNL d   1      52.745  31.665  52.214  0.00  0.00    -0.287 OA
BRANCH  11  13
ATOM     13  C   UNL d   1      53.038  30.758  53.283  0.00  0.00     0.039 A 
ATOM     14  C   UNL d   1      52.374  30.264  53.268  0.00  0.00     0.003 A 
ATOM     15  C   UNL d   1      52.425  29.494  53.555  0.00  0.00     0.000 A 
ATOM     16  C   UNL d   1      53.140  29.212  53.859  0.00  0.00     0.000 A 
ATOM     17  C   UNL d   1      53.801  29.706  53.873  0.00  0.00     0.000 A 
ATOM     18  C   UNL d   1      53.747  30.475  53.586  0.00  0.00     0.003 A 
ENDBRANCH  11  13
ENDBRANCH  10  11
ENDBRANCH   1  10
TORSDOF 5
ENDMDL
MODEL 2
REMARK VINA RESULT:      -7.5      2.358      3.149
REMARK  5 active torsions:
REMARK  status: ('A' for Active; 'I' for Inactive)
REMARK    1  A    between atoms: C_11  and  N_2 
REMARK    2  A    between atoms: C_5  and  C_3 
REMARK    3  A    between atoms: C_7  and  C_5 
REMARK    4  A    between atoms: C_8  and  C_7 
REMARK    5  A    between atoms: C_10  and  C_8 
ROOT
ATOM      1  C   UNL d   1      52.353  33.179  53.011  0.00  0.00     0.006 C 
ENDROOT
BRANCH   1   2
ATOM      2  C   UNL d   1      51.567  33.423  53.019  0.00  0.00     0.039 A 
ATOM      3  C   UNL d   1      50.932  33.234  53.508  0.00  0.00     0.122 A 
ATOM      4  N   UNL d   1      50.276  33.652  53.246  0.00  0.00    -0.164 NA
ATOM      5  N   UNL d   1      50.498  34.098  52.598  0.00  0.00    -0.228 N 
ATOM      6  C   UNL d   1      51.301  33.959  52.454  0.00  0.00     0.085 A 
ATOM      7  C   UNL d   1      51.751  34.302  51.845  0.00  0.00     0.021 C 
BRANCH   5   8
ATOM      8  C   UNL d   1      50.005  34.599  52.168  0.00  0.00     0.101 C 
ATOM      9  C   UNL d   1      49.272  34.825  52.477  0.00  0.00     0.022 C 
ENDBRANCH   5   8
ENDBRANCH   1   2
BRANCH   1  10
ATOM     10  C   UNL d   1      52.752  33.051  53.721  0.00  0.00     0.042 C 
BRANCH  10  11
ATOM     11  C   UNL d   1      53.521  32.740  53.718  0.00  0.00     0.196 C 
ATOM     12  O   UNL d   1      53.722  32.140  53.192  0.00  0.00    -0.287 OA
BRANCH  11  13
ATOM     13  C   UNL d   1      54.091  33.034  54.248  0.00  0.00     0.039 A 
ATOM     14  C   UNL d   1      53.992  32.922  55.063  0.00  0.00     0.003 A 
ATOM     15  C   UNL d   1      54.553  33.211  55.591  0.00  0.00     0.000 A 
ATOM     16  C   UNL d   1      55.216  33.615  55.309  0.00  0.00     0.000 A 
ATOM     17  C   UNL d   1      55.313  33.727  54.498  0.00  0.00     0.000 A 
ATOM     18  C   UNL d   1      54.751  33.436  53.971  0.00  0.00     0.003 A 
ENDBRANCH  11  13
ENDBRANCH  10  11
ENDBRANCH   1  10
TORSDOF 5
ENDMDL
MODEL 3
REMARK VINA RESULT:      -7.3      2.020      4.342
REMARK  5 active torsions:
REMARK  status: ('A' for Active; 'I' for Inactive)
REMARK    1  A    between atoms: C_11  and  N_2 
REMARK    2  A    between atoms: C_5  and  C_3 
REMARK    3  A    between atoms: C_7  and  C_5 
REMARK    4  A    between atoms: C_8  and  C_7 
REMARK    5  A    between atoms: C_10  and  C_8 
ROOT
ATOM      1  C   UNL d   1      52.839  32.452  53.111  0.00  0.00     0.006 C 
ENDROOT
BRANCH   1   2
ATOM      2  C   UNL d   1      52.901  31.632  53.153  0.00  0.00     0.039 A 
ATOM      3  C   UNL d   1      52.529  31.026  52.738  0.00  0.00     0.122 A 
ATOM      4  N   UNL d   1      52.816  30.311  53.023  0.00  0.00    -0.164 NA
ATOM      5  N   UNL d   1      53.361  30.468  53.611  0.00  0.00    -0.228 N 
ATOM      6  C   UNL d   1      53.417  31.290  53.694  0.00  0.00     0.085 A 
ATOM      7  C   UNL d   1      53.909  31.690  54.232  0.00  0.00     0.021 C 
BRANCH   5   8
ATOM      8  C   UNL d   1      53.780  29.904  54.041  0.00  0.00     0.101 C 
ATOM      9  C   UNL d   1      53.423  29.186  54.240  0.00  0.00     0.022 C 
ENDBRANCH   5   8
ENDBRANCH   1   2
BRANCH   1  10
ATOM     10  C   UNL d   1      52.139  32.799  52.847  0.00  0.00     0.042 C 
BRANCH  10  11
ATOM     11  C   UNL d   1      52.060  33.625  52.838  0.00  0.00     0.196 C 
ATOM     12  O   UNL d   1      52.708  34.104  53.007  0.00  0.00    -0.287 OA
BRANCH  11  13
ATOM     13  C   UNL d   1      51.325  33.971  52.657  0.00  0.00     0.039 A 
ATOM     14  C   UNL d   1      51.107  34.083  51.866  0.00  0.00     0.003 A 
ATOM     15  C   UNL d   1      50.381  34.425  51.683  0.00  0.00     0.000 A 
ATOM     16  C   UNL d   1      49.868  34.657  52.288  0.00  0.00     0.000 A 
ATOM     17  C   UNL d   1      50.087  34.544  53.075  0.00  0.00     0.000 A 
ATOM     18  C   UNL d   1      50.814  34.202  53.256  0.00  0.00     0.003 A 
ENDBRANCH  11  13
ENDBRANCH  10  11
ENDBRANCH   1  10
TORSDOF 5
ENDMDL
MODEL 4
REMARK VINA RESULT:      -6.9      1.817      2.237
REMARK  5 active torsions:
REMARK  status: ('A' for Active; 'I' for Inactive)
REMARK    1  A    between atoms: C_11  and  N_2 
REMARK    2  A    between atoms: C_5  and  C_3 
REMARK    3  A    between atoms: C_7  and  C_5 
REMARK    4  A    between atoms: C_8  and  C_7 
REMARK    5  A    between atoms: C_10  and  C_8 
ROOT
ATOM      1  C   UNL d   1      52.115  33.187  52.900  0.00  0.00     0.006 C 
ENDROOT
BRANCH   1   2
ATOM      2  C   UNL d   1      51.378  33.534  53.017  0.00  0.00     0.039 A 
ATOM      3  C   UNL d   1      50.826  33.473  53.624  0.00  0.00     0.122 A 
ATOM      4  N   UNL d   1      50.187  33.953  53.436  0.00  0.00    -0.164 NA
ATOM      5  N   UNL d   1      50.338  34.311  52.717  0.00  0.00    -0.228 N 
ATOM      6  C   UNL d   1      51.079  34.053  52.453  0.00  0.00     0.085 A 
ATOM      7  C   UNL d   1      51.447  34.282  51.744  0.00  0.00     0.021 C 
BRANCH   5   8
ATOM      8  C   UNL d   1      49.837  34.837  52.328  0.00  0.00     0.101 C 
ATOM      9  C   UNL d   1      49.136  35.085  52.688  0.00  0.00     0.022 C 
ENDBRANCH   5   8
ENDBRANCH   1   2
BRANCH   1  10
ATOM     10  C   UNL d   1      52.286  32.457  53.244  0.00  0.00     0.042 C 
BRANCH  10  11
ATOM     11  C   UNL d   1      53.035  32.114  53.147  0.00  0.00     0.196 C 
ATOM     12  O   UNL d   1      53.670  32.573  52.894  0.00  0.00    -0.287 OA
BRANCH  11  13
ATOM     13  C   UNL d   1      53.146  31.305  53.304  0.00  0.00     0.039 A 
ATOM     14  C   UNL d   1      53.573  31.070  53.973  0.00  0.00     0.003 A 
ATOM     15  C   UNL d   1      53.685  30.271  54.133  0.00  0.00     0.000 A 
ATOM     16  C   UNL d   1      53.371  29.699  53.625  0.00  0.00     0.000 A 
ATOM     17  C   UNL d   1      52.945  29.935  52.959  0.00  0.00     0.000 A 
ATOM     18  C   UNL d   1      52.834  30.735  52.801  0.00  0.00     0.003 A 
ENDBRANCH  11  13
ENDBRANCH  10  11
ENDBRANCH   1  10
TORSDOF 5
ENDMDL
MODEL 5
REMARK VINA RESULT:      -6.8      1.876      3.704
REMARK  5 active torsions:
REMARK  status: ('A' for Active; 'I' for Inactive)
REMARK    1  A    between atoms: C_11  and  N_2 
REMARK    2  A    between atoms: C_5  and  C_3 
REMARK    3  A    between atoms: C_7  and  C_5 
REMARK    4  A    between atoms: C_8  and  C_7 
REMARK    5  A    between atoms: C_10  and  C_8 
ROOT
ATOM      1  C   UNL d   1      52.361  33.342  53.829  0.00  0.00     0.006 C 
ENDROOT
BRANCH   1   2
ATOM      2  C   UNL d   1      53.001  33.685  54.217  0.00  0.00     0.039 A 
ATOM      3  C   UNL d   1      53.148  34.452  54.473  0.00  0.00     0.122 A 
ATOM      4  N   UNL d   1      53.888  34.465  54.829  0.00  0.00    -0.164 NA
ATOM      5  N   UNL d   1      54.201  33.710  54.795  0.00  0.00    -0.228 N 
ATOM      6  C   UNL d   1      53.652  33.222  54.415  0.00  0.00     0.085 A 
ATOM      7  C   UNL d   1      53.748  32.410  54.265  0.00  0.00     0.021 C 
BRANCH   5   8
ATOM      8  C   UNL d   1      54.936  33.482  55.090  0.00  0.00     0.101 C 
ATOM      9  C   UNL d   1      55.526  34.047  55.217  0.00  0.00     0.022 C 
ENDBRANCH   5   8
ENDBRANCH   1   2
BRANCH   1  10
ATOM     10  C   UNL d   1      51.786  33.820  53.482  0.00  0.00     0.042 C 
BRANCH  10  11
ATOM     11  C   UNL d   1      51.067  33.492  53.226  0.00  0.00     0.196 C 
ATOM     12  O   UNL d   1      50.876  32.716  53.422  0.00  0.00    -0.287 OA
BRANCH  11  13
ATOM     13  C   UNL d   1      50.540  33.947  52.772  0.00  0.00     0.039 A 
ATOM     14  C   UNL d   1      49.988  34.435  53.149  0.00  0.00     0.003 A 
ATOM     15  C   UNL d   1      49.464  34.887  52.704  0.00  0.00     0.000 A 
ATOM     16  C   UNL d   1      49.488  34.856  51.878  0.00  0.00     0.000 A 
ATOM     17  C   UNL d   1      50.040  34.369  51.504  0.00  0.00     0.000 A 
ATOM     18  C   UNL d   1      50.562  33.918  51.951  0.00  0.00     0.003 A 
ENDBRANCH  11  13
ENDBRANCH  10  11
ENDBRANCH   1  10
TORSDOF 5
ENDMDL
