MODEL 1
REMARK VINA RESULT:      -5.6      0.000      0.000
REMARK  8 active torsions:
REMARK  status: ('A' for Active; 'I' for Inactive)
REMARK    1  A    between atoms: N_10  and  C_1 
REMARK    2  A    between atoms: C_20  and  N_2 
REMARK    3  A    between atoms: C_4  and  S_13 
REMARK       I    between atoms: C_14  and  N_10 
REMARK       I    between atoms: C_12  and  N_18 
REMARK    4  A    between atoms: C_16  and  C_12 
REMARK    5  A    between atoms: S_13  and  C_19 
REMARK    6  A    between atoms: C_19  and  C_14 
REMARK    7  A    between atoms: N_18  and  C_22 
REMARK    8  A    between atoms: C_22  and  C_20 
ROOT
ATOM      1  N   UNL d   1     -40.755  14.569  20.231  0.00  0.00    -0.302 N 
ATOM      2  C   UNL d   1     -41.408  13.737  21.047  0.00  0.00     0.049 A 
ATOM      3  C   UNL d   1     -41.464  14.140  20.337  0.00  0.00     0.087 A 
ATOM      4  C   UNL d   1     -40.672  13.907  21.389  0.00  0.00     0.024 A 
ATOM      5  C   UNL d   1     -40.271  14.421  20.883  0.00  0.00     0.065 A 
ATOM      6  C   UNL d   1     -40.326  13.659  22.089  0.00  0.00     0.002 A 
ATOM      7  C   UNL d   1     -39.523  14.682  21.084  0.00  0.00     0.018 A 
ATOM      8  C   UNL d   1     -39.573  13.925  22.288  0.00  0.00     0.000 A 
ATOM      9  C   UNL d   1     -39.168  14.438  21.787  0.00  0.00     0.002 A 
ENDROOT
BRANCH   1  10
ATOM     10  C   UNL d   1     -40.566  15.053  19.594  0.00  0.00     0.101 C 
BRANCH  10  11
ATOM     11  C   UNL d   1     -40.633  14.767  18.826  0.00  0.00     0.121 C 
BRANCH  11  12
ATOM     12  N   UNL d   1     -40.037  14.930  18.272  0.00  0.00    -0.205 NA
ATOM     13  C   UNL d   1     -40.184  14.822  17.465  0.00  0.00     0.279 C 
ATOM     14  O   UNL d   1     -40.925  14.551  17.213  0.00  0.00    -0.265 OA
BRANCH  13  15
ATOM     15  C   UNL d   1     -39.593  14.985  16.920  0.00  0.00     0.058 A 
ATOM     16  C   UNL d   1     -39.112  14.396  16.648  0.00  0.00     0.005 A 
ATOM     17  C   UNL d   1     -38.515  14.542  16.101  0.00  0.00     0.000 A 
ATOM     18  C   UNL d   1     -38.401  15.310  15.819  0.00  0.00     0.000 A 
ATOM     19  C   UNL d   1     -38.891  15.922  16.093  0.00  0.00     0.000 A 
ATOM     20  C   UNL d   1     -39.486  15.759  16.642  0.00  0.00     0.005 A 
ENDBRANCH  13  15
ENDBRANCH  11  12
ENDBRANCH  10  11
ENDBRANCH   1  10
BRANCH   2  21
ATOM     21  S   UNL d   1     -41.984  13.244  21.372  0.00  0.00    -0.080 SA
BRANCH  21  22
ATOM     22  C   UNL d   1     -42.763  13.302  21.111  0.00  0.00     0.098 C 
BRANCH  22  23
ATOM     23  C   UNL d   1     -43.376  12.951  21.548  0.00  0.00     0.288 C 
ATOM     24  N   UNL d   1     -44.061  13.375  21.697  0.00  0.00    -0.181 NA
ATOM     25  O   UNL d   1     -43.290  12.184  21.828  0.00  0.00    -0.265 OA
BRANCH  24  26
ATOM     26  C   UNL d   1     -44.678  13.032  22.133  0.00  0.00     0.219 A 
ATOM     27  S   UNL d   1     -45.438  13.325  22.214  0.00  0.00    -0.026 SA
ATOM     28  C   UNL d   1     -45.860  12.803  22.695  0.00  0.00     0.135 A 
ATOM     29  C   UNL d   1     -46.650  12.886  22.921  0.00  0.00     0.030 C 
ATOM     30  N   UNL d   1     -45.372  12.190  22.914  0.00  0.00    -0.139 NA
ATOM     31  N   UNL d   1     -44.636  12.325  22.568  0.00  0.00    -0.121 NA
ENDBRANCH  24  26
ENDBRANCH  22  23
ENDBRANCH  21  22
ENDBRANCH   2  21
TORSDOF 8
ENDMDL
MODEL 2
REMARK VINA RESULT:      -5.0      2.760      4.632
REMARK  8 active torsions:
REMARK  status: ('A' for Active; 'I' for Inactive)
REMARK    1  A    between atoms: N_10  and  C_1 
REMARK    2  A    between atoms: C_20  and  N_2 
REMARK    3  A    between atoms: C_4  and  S_13 
REMARK       I    between atoms: C_14  and  N_10 
REMARK       I    between atoms: C_12  and  N_18 
REMARK    4  A    between atoms: C_16  and  C_12 
REMARK    5  A    between atoms: S_13  and  C_19 
REMARK    6  A    between atoms: C_19  and  C_14 
REMARK    7  A    between atoms: N_18  and  C_22 
REMARK    8  A    between atoms: C_22  and  C_20 
ROOT
ATOM      1  N   UNL d   1     -43.910  12.130  22.260  0.00  0.00    -0.302 N 
ATOM      2  C   UNL d   1     -45.204  12.183  22.589  0.00  0.00     0.049 A 
ATOM      3  C   UNL d   1     -44.616  12.568  22.168  0.00  0.00     0.087 A 
ATOM      4  C   UNL d   1     -44.875  11.509  22.944  0.00  0.00     0.024 A 
ATOM      5  C   UNL d   1     -44.077  11.480  22.739  0.00  0.00     0.065 A 
ATOM      6  C   UNL d   1     -45.205  10.930  23.421  0.00  0.00     0.002 A 
ATOM      7  C   UNL d   1     -43.613  10.866  23.016  0.00  0.00     0.018 A 
ATOM      8  C   UNL d   1     -44.734  10.314  23.698  0.00  0.00     0.000 A 
ATOM      9  C   UNL d   1     -43.936  10.279  23.497  0.00  0.00     0.002 A 
ENDROOT
BRANCH   1  10
ATOM     10  C   UNL d   1     -43.177  12.310  21.935  0.00  0.00     0.101 C 
BRANCH  10  11
ATOM     11  C   UNL d   1     -43.110  12.915  21.381  0.00  0.00     0.121 C 
BRANCH  11  12
ATOM     12  N   UNL d   1     -42.512  13.483  21.462  0.00  0.00    -0.205 NA
ATOM     13  C   UNL d   1     -42.037  13.677  20.813  0.00  0.00     0.279 C 
ATOM     14  O   UNL d   1     -42.162  13.303  20.084  0.00  0.00    -0.265 OA
BRANCH  13  15
ATOM     15  C   UNL d   1     -41.446  14.240  20.896  0.00  0.00     0.058 A 
ATOM     16  C   UNL d   1     -40.672  14.016  20.956  0.00  0.00     0.005 A 
ATOM     17  C   UNL d   1     -40.066  14.567  21.040  0.00  0.00     0.000 A 
ATOM     18  C   UNL d   1     -40.251  15.372  21.062  0.00  0.00     0.000 A 
ATOM     19  C   UNL d   1     -41.043  15.612  21.000  0.00  0.00     0.000 A 
ATOM     20  C   UNL d   1     -41.639  15.046  20.917  0.00  0.00     0.005 A 
ENDBRANCH  13  15
ENDBRANCH  11  12
ENDBRANCH  10  11
ENDBRANCH   1  10
BRANCH   2  21
ATOM     21  S   UNL d   1     -45.991  12.422  22.651  0.00  0.00    -0.080 SA
BRANCH  21  22
ATOM     22  C   UNL d   1     -46.203  13.184  22.423  0.00  0.00     0.098 C 
BRANCH  22  23
ATOM     23  C   UNL d   1     -47.001  13.416  22.439  0.00  0.00     0.288 C 
ATOM     24  N   UNL d   1     -47.244  13.992  22.967  0.00  0.00    -0.181 NA
ATOM     25  O   UNL d   1     -47.538  13.066  21.925  0.00  0.00    -0.265 OA
BRANCH  24  26
ATOM     26  C   UNL d   1     -48.039  14.231  22.990  0.00  0.00     0.219 A 
ATOM     27  S   UNL d   1     -48.354  14.911  22.661  0.00  0.00    -0.026 SA
ATOM     28  C   UNL d   1     -49.164  14.918  22.821  0.00  0.00     0.135 A 
ATOM     29  C   UNL d   1     -49.697  15.504  22.590  0.00  0.00     0.030 C 
ATOM     30  N   UNL d   1     -49.356  14.250  23.244  0.00  0.00    -0.139 NA
ATOM     31  N   UNL d   1     -48.663  13.818  23.354  0.00  0.00    -0.121 NA
ENDBRANCH  24  26
ENDBRANCH  22  23
ENDBRANCH  21  22
ENDBRANCH   2  21
TORSDOF 8
ENDMDL
MODEL 3
REMARK VINA RESULT:      -4.7      2.536      7.928
REMARK  8 active torsions:
REMARK  status: ('A' for Active; 'I' for Inactive)
REMARK    1  A    between atoms: N_10  and  C_1 
REMARK    2  A    between atoms: C_20  and  N_2 
REMARK    3  A    between atoms: C_4  and  S_13 
REMARK       I    between atoms: C_14  and  N_10 
REMARK       I    between atoms: C_12  and  N_18 
REMARK    4  A    between atoms: C_16  and  C_12 
REMARK    5  A    between atoms: S_13  and  C_19 
REMARK    6  A    between atoms: C_19  and  C_14 
REMARK    7  A    between atoms: N_18  and  C_22 
REMARK    8  A    between atoms: C_22  and  C_20 
ROOT
ATOM      1  N   UNL d   1     -46.432  13.165  23.102  0.00  0.00    -0.302 N 
ATOM      2  C   UNL d   1     -45.319  12.686  22.540  0.00  0.00     0.049 A 
ATOM      3  C   UNL d   1     -45.752  13.370  22.661  0.00  0.00     0.087 A 
ATOM      4  C   UNL d   1     -45.718  12.054  22.899  0.00  0.00     0.024 A 
ATOM      5  C   UNL d   1     -46.404  12.353  23.244  0.00  0.00     0.065 A 
ATOM      6  C   UNL d   1     -45.540  11.256  22.950  0.00  0.00     0.002 A 
ATOM      7  C   UNL d   1     -46.909  11.847  23.641  0.00  0.00     0.018 A 
ATOM      8  C   UNL d   1     -46.051  10.749  23.350  0.00  0.00     0.000 A 
ATOM      9  C   UNL d   1     -46.738  11.042  23.697  0.00  0.00     0.002 A 
ENDROOT
BRANCH   1  10
ATOM     10  C   UNL d   1     -47.025  13.677  23.351  0.00  0.00     0.101 C 
BRANCH  10  11
ATOM     11  C   UNL d   1     -47.446  14.118  22.799  0.00  0.00     0.121 C 
BRANCH  11  12
ATOM     12  N   UNL d   1     -48.262  14.233  22.901  0.00  0.00    -0.205 NA
ATOM     13  C   UNL d   1     -48.621  14.917  22.606  0.00  0.00     0.279 C 
ATOM     14  O   UNL d   1     -48.164  15.486  22.210  0.00  0.00    -0.265 OA
BRANCH  13  15
ATOM     15  C   UNL d   1     -49.427  15.029  22.707  0.00  0.00     0.058 A 
ATOM     16  C   UNL d   1     -49.704  15.533  23.274  0.00  0.00     0.005 A 
ATOM     17  C   UNL d   1     -50.510  15.656  23.389  0.00  0.00     0.000 A 
ATOM     18  C   UNL d   1     -51.053  15.256  22.913  0.00  0.00     0.000 A 
ATOM     19  C   UNL d   1     -50.779  14.736  22.327  0.00  0.00     0.000 A 
ATOM     20  C   UNL d   1     -49.966  14.624  22.225  0.00  0.00     0.005 A 
ENDBRANCH  13  15
ENDBRANCH  11  12
ENDBRANCH  10  11
ENDBRANCH   1  10
BRANCH   2  21
ATOM     21  S   UNL d   1     -44.605  12.630  22.130  0.00  0.00    -0.080 SA
BRANCH  21  22
ATOM     22  C   UNL d   1     -44.310  13.290  21.736  0.00  0.00     0.098 C 
BRANCH  22  23
ATOM     23  C   UNL d   1     -43.558  13.263  21.383  0.00  0.00     0.288 C 
ATOM     24  N   UNL d   1     -43.061  13.911  21.441  0.00  0.00    -0.181 NA
ATOM     25  O   UNL d   1     -43.321  12.588  20.980  0.00  0.00    -0.265 OA
BRANCH  24  26
ATOM     26  C   UNL d   1     -42.308  13.893  21.092  0.00  0.00     0.219 A 
ATOM     27  S   UNL d   1     -41.723  14.460  21.166  0.00  0.00    -0.026 SA
ATOM     28  C   UNL d   1     -41.071  14.211  20.725  0.00  0.00     0.135 A 
ATOM     29  C   UNL d   1     -40.357  14.617  20.645  0.00  0.00     0.030 C 
ATOM     30  N   UNL d   1     -41.244  13.495  20.378  0.00  0.00    -0.139 NA
ATOM     31  N   UNL d   1     -42.010  13.291  20.601  0.00  0.00    -0.121 NA
ENDBRANCH  24  26
ENDBRANCH  22  23
ENDBRANCH  21  22
ENDBRANCH   2  21
TORSDOF 8
ENDMDL
