MODEL 1
REMARK VINA RESULT:      -6.1      0.000      0.000
REMARK  3 active torsions:
REMARK  status: ('A' for Active; 'I' for Inactive)
REMARK    1  A    between atoms: C_6  and  C_2 
REMARK    2  A    between atoms: O_7  and  C_6 
REMARK    3  A    between atoms: C_8  and  O_7 
ROOT
ATOM      1  N   UNL d   1     -41.278-122.963 -53.119  0.00  0.00    -0.224 NA
ATOM      2  C   UNL d   1     -41.640-122.424 -52.611  0.00  0.00     0.188 A 
ATOM      3  N   UNL d   1     -42.054-121.862 -53.090  0.00  0.00    -0.224 NA
ATOM      4  C   UNL d   1     -41.467-122.737 -53.907  0.00  0.00     0.101 A 
ATOM      5  C   UNL d   1     -41.943-122.062 -53.890  0.00  0.00     0.101 A 
ATOM      6  C   UNL d   1     -41.257-123.074 -54.631  0.00  0.00     0.021 A 
ATOM      7  C   UNL d   1     -42.207-121.726 -54.596  0.00  0.00     0.021 A 
ATOM      8  C   UNL d   1     -41.519-122.738 -55.280  0.00  0.00     0.002 A 
ATOM      9  C   UNL d   1     -41.994-122.063 -55.262  0.00  0.00     0.002 A 
ENDROOT
BRANCH   2  10
ATOM     10  C   UNL d   1     -41.378-122.758 -51.930  0.00  0.00     0.161 C 
BRANCH  10  11
ATOM     11  O   UNL d   1     -41.783-122.616 -51.228  0.00  0.00    -0.302 OA
BRANCH  11  12
ATOM     12  C   UNL d   1     -41.897-122.766 -50.425  0.00  0.00     0.100 A 
ATOM     13  C   UNL d   1     -41.282-123.077 -49.971  0.00  0.00     0.026 A 
ATOM     14  C   UNL d   1     -41.396-123.227 -49.173  0.00  0.00     0.013 A 
ATOM     15  C   UNL d   1     -42.126-123.068 -48.819  0.00  0.00     0.058 A 
ATOM     16  C   UNL d   1     -42.744-122.756 -49.277  0.00  0.00     0.013 A 
ATOM     17 CL   UNL d   1     -42.240-123.218 -48.021  0.00  0.00    -0.082 Cl
ATOM     18  C   UNL d   1     -42.630-122.606 -50.075  0.00  0.00     0.026 A 
ENDBRANCH  11  12
ENDBRANCH  10  11
ENDBRANCH   2  10
TORSDOF 3
ENDMDL
MODEL 2
REMARK VINA RESULT:      -5.9      2.112      4.742
REMARK  3 active torsions:
REMARK  status: ('A' for Active; 'I' for Inactive)
REMARK    1  A    between atoms: C_6  and  C_2 
REMARK    2  A    between atoms: O_7  and  C_6 
REMARK    3  A    between atoms: C_8  and  O_7 
ROOT
ATOM      1  N   UNL d   1     -41.227-122.943 -50.944  0.00  0.00    -0.224 NA
ATOM      2  C   UNL d   1     -41.821-122.548 -51.357  0.00  0.00     0.188 A 
ATOM      3  N   UNL d   1     -42.459-122.411 -50.817  0.00  0.00    -0.224 NA
ATOM      4  C   UNL d   1     -41.495-123.051 -50.154  0.00  0.00     0.101 A 
ATOM      5  C   UNL d   1     -42.249-122.725 -50.076  0.00  0.00     0.101 A 
ATOM      6  C   UNL d   1     -41.131-123.408 -49.505  0.00  0.00     0.021 A 
ATOM      7  C   UNL d   1     -42.639-122.757 -49.349  0.00  0.00     0.021 A 
ATOM      8  C   UNL d   1     -41.520-123.425 -48.833  0.00  0.00     0.002 A 
ATOM      9  C   UNL d   1     -42.275-123.099 -48.755  0.00  0.00     0.002 A 
ENDROOT
BRANCH   2  10
ATOM     10  C   UNL d   1     -41.434-122.521 -52.060  0.00  0.00     0.161 C 
BRANCH  10  11
ATOM     11  O   UNL d   1     -41.865-122.454 -52.757  0.00  0.00    -0.302 OA
BRANCH  11  12
ATOM     12  C   UNL d   1     -41.892-122.336 -53.574  0.00  0.00     0.100 A 
ATOM     13  C   UNL d   1     -42.357-121.732 -53.889  0.00  0.00     0.026 A 
ATOM     14  C   UNL d   1     -42.383-121.615 -54.700  0.00  0.00     0.013 A 
ATOM     15  C   UNL d   1     -41.946-122.101 -55.206  0.00  0.00     0.058 A 
ATOM     16  C   UNL d   1     -41.479-122.709 -54.887  0.00  0.00     0.013 A 
ATOM     17 CL   UNL d   1     -41.973-121.984 -56.017  0.00  0.00    -0.082 Cl
ATOM     18  C   UNL d   1     -41.453-122.825 -54.076  0.00  0.00     0.026 A 
ENDBRANCH  11  12
ENDBRANCH  10  11
ENDBRANCH   2  10
TORSDOF 3
ENDMDL
MODEL 3
REMARK VINA RESULT:      -4.7      2.202      5.015
REMARK  3 active torsions:
REMARK  status: ('A' for Active; 'I' for Inactive)
REMARK    1  A    between atoms: C_6  and  C_2 
REMARK    2  A    between atoms: O_7  and  C_6 
REMARK    3  A    between atoms: C_8  and  O_7 
ROOT
ATOM      1  N   UNL d   1     -42.244-122.749 -49.388  0.00  0.00    -0.224 NA
ATOM      2  C   UNL d   1     -41.583-123.029 -49.794  0.00  0.00     0.188 A 
ATOM      3  N   UNL d   1     -41.123-123.483 -49.247  0.00  0.00    -0.224 NA
ATOM      4  C   UNL d   1     -42.193-123.028 -48.595  0.00  0.00     0.101 A 
ATOM      5  C   UNL d   1     -41.506-123.478 -48.509  0.00  0.00     0.101 A 
ATOM      6  C   UNL d   1     -42.698-122.919 -47.951  0.00  0.00     0.021 A 
ATOM      7  C   UNL d   1     -41.325-123.817 -47.779  0.00  0.00     0.021 A 
ATOM      8  C   UNL d   1     -42.503-123.249 -47.276  0.00  0.00     0.002 A 
ATOM      9  C   UNL d   1     -41.816-123.699 -47.190  0.00  0.00     0.002 A 
ENDROOT
BRANCH   2  10
ATOM     10  C   UNL d   1     -41.768-122.695 -50.499  0.00  0.00     0.161 C 
BRANCH  10  11
ATOM     11  O   UNL d   1     -41.355-122.919 -51.175  0.00  0.00    -0.302 OA
BRANCH  11  12
ATOM     12  C   UNL d   1     -41.310-122.992 -51.995  0.00  0.00     0.100 A 
ATOM     13  C   UNL d   1     -41.211-123.736 -52.338  0.00  0.00     0.026 A 
ATOM     14  C   UNL d   1     -41.167-123.809 -53.154  0.00  0.00     0.013 A 
ATOM     15  C   UNL d   1     -41.221-123.139 -53.636  0.00  0.00     0.058 A 
ATOM     16  C   UNL d   1     -41.321-122.392 -53.289  0.00  0.00     0.013 A 
ATOM     17 CL   UNL d   1     -41.177-123.212 -54.452  0.00  0.00    -0.082 Cl
ATOM     18  C   UNL d   1     -41.365-122.320 -52.473  0.00  0.00     0.026 A 
ENDBRANCH  11  12
ENDBRANCH  10  11
ENDBRANCH   2  10
TORSDOF 3
ENDMDL
