MODEL 1
REMARK VINA RESULT:      -9.3      0.000      0.000
REMARK  7 active torsions:
REMARK  status: ('A' for Active; 'I' for Inactive)
REMARK    1  A    between atoms: C_6  and  C_1 
REMARK    2  A    between atoms: O_8  and  C_6 
REMARK    3  A    between atoms: C_13  and  O_8 
REMARK    4  A    between atoms: C_9  and  C_13 
REMARK    5  A    between atoms: C_15  and  C_9 
REMARK    6  A    between atoms: C_19  and  C_11 
REMARK    7  A    between atoms: C_16  and  C_19 
ROOT
ATOM      1  C   UNL d   1      51.787  33.969  52.756  0.00  0.00     0.127 A 
ATOM      2  C   UNL d   1      52.356  34.463  53.165  0.00  0.00     0.305 A 
ATOM      3  O   UNL d   1      53.001  34.140  53.539  0.00  0.00    -0.273 OA
ATOM      4  C   UNL d   1      51.902  33.185  52.750  0.00  0.00     0.013 A 
ATOM      5  C   UNL d   1      53.096  33.319  53.516  0.00  0.00     0.103 A 
ATOM      6  C   UNL d   1      52.548  32.844  53.123  0.00  0.00     0.023 A 
ATOM      7  O   UNL d   1      52.284  35.325  53.206  0.00  0.00    -0.259 OA
ATOM      8  C   UNL d   1      53.744  32.992  53.892  0.00  0.00     0.023 A 
ATOM      9  C   UNL d   1      52.645  32.038  53.103  0.00  0.00     0.002 A 
ATOM     10  C   UNL d   1      53.262  31.690  53.457  0.00  0.00     0.000 A 
ATOM     11  C   UNL d   1      53.831  32.184  53.865  0.00  0.00     0.002 A 
ENDROOT
BRANCH   1  12
ATOM     12  C   UNL d   1      51.116  34.270  52.364  0.00  0.00     0.305 C 
ATOM     13  O   UNL d   1      51.118  34.349  51.531  0.00  0.00    -0.259 OA
BRANCH  12  14
ATOM     14  O   UNL d   1      50.418  34.501  52.808  0.00  0.00    -0.268 OA
BRANCH  14  15
ATOM     15  C   UNL d   1      49.766  34.705  52.375  0.00  0.00     0.168 C 
BRANCH  15  16
ATOM     16  C   UNL d   1      49.132  35.061  52.765  0.00  0.00     0.220 C 
ATOM     17  O   UNL d   1      49.153  35.153  53.581  0.00  0.00    -0.284 OA
BRANCH  16  18
ATOM     18  C   UNL d   1      48.460  35.333  52.346  0.00  0.00     0.041 A 
ATOM     19  C   UNL d   1      48.241  34.969  51.653  0.00  0.00     0.003 A 
ATOM     20  C   UNL d   1      47.577  35.242  51.244  0.00  0.00     0.000 A 
ATOM     21  C   UNL d   1      47.125  35.899  51.544  0.00  0.00     0.000 A 
ATOM     22  C   UNL d   1      47.366  36.254  52.249  0.00  0.00     0.000 A 
ATOM     23  C   UNL d   1      48.036  35.968  52.650  0.00  0.00     0.003 A 
ENDBRANCH  16  18
ENDBRANCH  15  16
ENDBRANCH  14  15
ENDBRANCH  12  14
ENDBRANCH   1  12
BRANCH   8  24
ATOM     24  C   UNL d   1      54.306  33.446  54.292  0.00  0.00     0.002 C 
BRANCH  24  25
ATOM     25  C   UNL d   1      54.669  33.134  54.945  0.00  0.00     0.000 C 
ATOM     26  C   UNL d   1      55.190  33.628  55.414  0.00  0.00     0.000 C 
ENDBRANCH  24  25
ENDBRANCH   8  24
TORSDOF 7
ENDMDL
MODEL 2
REMARK VINA RESULT:      -8.9      1.733      3.245
REMARK  7 active torsions:
REMARK  status: ('A' for Active; 'I' for Inactive)
REMARK    1  A    between atoms: C_6  and  C_1 
REMARK    2  A    between atoms: O_8  and  C_6 
REMARK    3  A    between atoms: C_13  and  O_8 
REMARK    4  A    between atoms: C_9  and  C_13 
REMARK    5  A    between atoms: C_15  and  C_9 
REMARK    6  A    between atoms: C_19  and  C_11 
REMARK    7  A    between atoms: C_16  and  C_19 
ROOT
ATOM      1  C   UNL d   1      53.577  32.320  53.739  0.00  0.00     0.127 A 
ATOM      2  C   UNL d   1      53.762  31.945  54.486  0.00  0.00     0.305 A 
ATOM      3  O   UNL d   1      53.663  31.144  54.592  0.00  0.00    -0.273 OA
ATOM      4  C   UNL d   1      53.305  31.869  53.147  0.00  0.00     0.013 A 
ATOM      5  C   UNL d   1      53.378  30.699  53.957  0.00  0.00     0.103 A 
ATOM      6  C   UNL d   1      53.200  31.060  53.237  0.00  0.00     0.023 A 
ATOM      7  O   UNL d   1      54.062  32.384  55.170  0.00  0.00    -0.259 OA
ATOM      8  C   UNL d   1      53.278  29.894  54.060  0.00  0.00     0.023 A 
ATOM      9  C   UNL d   1      52.920  30.619  52.615  0.00  0.00     0.002 A 
ATOM     10  C   UNL d   1      52.812  29.838  52.683  0.00  0.00     0.000 A 
ATOM     11  C   UNL d   1      52.997  29.462  53.431  0.00  0.00     0.002 A 
ENDROOT
BRANCH   1  12
ATOM     12  C   UNL d   1      53.667  33.137  53.600  0.00  0.00     0.305 C 
ATOM     13  O   UNL d   1      54.391  33.434  53.305  0.00  0.00    -0.259 OA
BRANCH  12  14
ATOM     14  O   UNL d   1      53.021  33.680  53.758  0.00  0.00    -0.268 OA
BRANCH  14  15
ATOM     15  C   UNL d   1      52.754  34.115  53.131  0.00  0.00     0.168 C 
BRANCH  15  16
ATOM     16  C   UNL d   1      52.108  34.615  53.247  0.00  0.00     0.220 C 
ATOM     17  O   UNL d   1      52.155  35.223  53.797  0.00  0.00    -0.284 OA
BRANCH  16  18
ATOM     18  C   UNL d   1      51.399  34.518  52.814  0.00  0.00     0.041 A 
ATOM     19  C   UNL d   1      51.429  34.406  52.009  0.00  0.00     0.003 A 
ATOM     20  C   UNL d   1      50.725  34.311  51.586  0.00  0.00     0.000 A 
ATOM     21  C   UNL d   1      49.974  34.330  51.989  0.00  0.00     0.000 A 
ATOM     22  C   UNL d   1      49.967  34.445  52.806  0.00  0.00     0.000 A 
ATOM     23  C   UNL d   1      50.683  34.539  53.218  0.00  0.00     0.003 A 
ENDBRANCH  16  18
ENDBRANCH  15  16
ENDBRANCH  14  15
ENDBRANCH  12  14
ENDBRANCH   1  12
BRANCH   8  24
ATOM     24  C   UNL d   1      53.449  29.509  54.770  0.00  0.00     0.002 C 
BRANCH  24  25
ATOM     25  C   UNL d   1      53.342  28.708  54.817  0.00  0.00     0.000 C 
ATOM     26  C   UNL d   1      53.419  28.317  55.576  0.00  0.00     0.000 C 
ENDBRANCH  24  25
ENDBRANCH   8  24
TORSDOF 7
ENDMDL
MODEL 3
REMARK VINA RESULT:      -8.4      0.951      5.787
REMARK  7 active torsions:
REMARK  status: ('A' for Active; 'I' for Inactive)
REMARK    1  A    between atoms: C_6  and  C_1 
REMARK    2  A    between atoms: O_8  and  C_6 
REMARK    3  A    between atoms: C_13  and  O_8 
REMARK    4  A    between atoms: C_9  and  C_13 
REMARK    5  A    between atoms: C_15  and  C_9 
REMARK    6  A    between atoms: C_19  and  C_11 
REMARK    7  A    between atoms: C_16  and  C_19 
ROOT
ATOM      1  C   UNL d   1      49.789  34.575  52.759  0.00  0.00     0.127 A 
ATOM      2  C   UNL d   1      49.373  34.563  52.010  0.00  0.00     0.305 A 
ATOM      3  O   UNL d   1      48.705  35.013  51.892  0.00  0.00    -0.273 OA
ATOM      4  C   UNL d   1      49.510  35.036  53.339  0.00  0.00     0.013 A 
ATOM      5  C   UNL d   1      48.437  35.484  52.516  0.00  0.00     0.103 A 
ATOM      6  C   UNL d   1      48.837  35.495  53.237  0.00  0.00     0.023 A 
ATOM      7  O   UNL d   1      49.629  34.081  51.338  0.00  0.00    -0.259 OA
ATOM      8  C   UNL d   1      47.766  35.937  52.400  0.00  0.00     0.023 A 
ATOM      9  C   UNL d   1      48.570  35.959  53.847  0.00  0.00     0.002 A 
ATOM     10  C   UNL d   1      47.924  36.409  53.767  0.00  0.00     0.000 A 
ATOM     11  C   UNL d   1      47.507  36.398  53.018  0.00  0.00     0.002 A 
ENDROOT
BRANCH   1  12
ATOM     12  C   UNL d   1      50.475  34.126  52.910  0.00  0.00     0.305 C 
ATOM     13  O   UNL d   1      50.421  33.296  53.001  0.00  0.00    -0.259 OA
BRANCH  12  14
ATOM     14  O   UNL d   1      51.241  34.509  52.972  0.00  0.00    -0.268 OA
BRANCH  14  15
ATOM     15  C   UNL d   1      51.843  34.064  53.280  0.00  0.00     0.168 C 
BRANCH  15  16
ATOM     16  C   UNL d   1      52.592  34.403  53.338  0.00  0.00     0.220 C 
ATOM     17  O   UNL d   1      52.761  35.094  52.925  0.00  0.00    -0.284 OA
BRANCH  16  18
ATOM     18  C   UNL d   1      53.191  34.059  53.810  0.00  0.00     0.041 A 
ATOM     19  C   UNL d   1      53.339  34.354  54.553  0.00  0.00     0.003 A 
ATOM     20  C   UNL d   1      53.932  34.011  55.015  0.00  0.00     0.000 A 
ATOM     21  C   UNL d   1      54.386  33.354  54.716  0.00  0.00     0.000 A 
ATOM     22  C   UNL d   1      54.219  33.071  53.959  0.00  0.00     0.000 A 
ATOM     23  C   UNL d   1      53.619  33.426  53.506  0.00  0.00     0.003 A 
ENDBRANCH  16  18
ENDBRANCH  15  16
ENDBRANCH  14  15
ENDBRANCH  12  14
ENDBRANCH   1  12
BRANCH   8  24
ATOM     24  C   UNL d   1      47.347  35.943  51.689  0.00  0.00     0.002 C 
BRANCH  24  25
ATOM     25  C   UNL d   1      46.557  36.120  51.701  0.00  0.00     0.000 C 
ATOM     26  C   UNL d   1      46.068  35.908  51.029  0.00  0.00     0.000 C 
ENDBRANCH  24  25
ENDBRANCH   8  24
TORSDOF 7
ENDMDL
MODEL 4
REMARK VINA RESULT:      -7.3      1.193      5.282
REMARK  7 active torsions:
REMARK  status: ('A' for Active; 'I' for Inactive)
REMARK    1  A    between atoms: C_6  and  C_1 
REMARK    2  A    between atoms: O_8  and  C_6 
REMARK    3  A    between atoms: C_13  and  O_8 
REMARK    4  A    between atoms: C_9  and  C_13 
REMARK    5  A    between atoms: C_15  and  C_9 
REMARK    6  A    between atoms: C_19  and  C_11 
REMARK    7  A    between atoms: C_16  and  C_19 
ROOT
ATOM      1  C   UNL d   1      51.446  34.293  52.878  0.00  0.00     0.127 A 
ATOM      2  C   UNL d   1      51.125  34.826  53.467  0.00  0.00     0.305 A 
ATOM      3  O   UNL d   1      50.365  35.110  53.409  0.00  0.00    -0.273 OA
ATOM      4  C   UNL d   1      50.985  34.079  52.270  0.00  0.00     0.013 A 
ATOM      5  C   UNL d   1      49.907  34.870  52.764  0.00  0.00     0.103 A 
ATOM      6  C   UNL d   1      50.217  34.357  52.197  0.00  0.00     0.023 A 
ATOM      7  O   UNL d   1      51.579  35.095  54.154  0.00  0.00    -0.259 OA
ATOM      8  C   UNL d   1      49.143  35.154  52.702  0.00  0.00     0.023 A 
ATOM      9  C   UNL d   1      49.764  34.124  51.564  0.00  0.00     0.002 A 
ATOM     10  C   UNL d   1      49.020  34.380  51.476  0.00  0.00     0.000 A 
ATOM     11  C   UNL d   1      48.698  34.914  52.065  0.00  0.00     0.002 A 
ENDROOT
BRANCH   1  12
ATOM     12  C   UNL d   1      52.220  33.985  52.911  0.00  0.00     0.305 C 
ATOM     13  O   UNL d   1      52.827  34.328  52.447  0.00  0.00    -0.259 OA
BRANCH  12  14
ATOM     14  O   UNL d   1      52.403  33.317  53.418  0.00  0.00    -0.268 OA
BRANCH  14  15
ATOM     15  C   UNL d   1      52.896  32.755  53.110  0.00  0.00     0.168 C 
BRANCH  15  16
ATOM     16  C   UNL d   1      53.246  32.214  53.626  0.00  0.00     0.220 C 
ATOM     17  O   UNL d   1      53.640  32.484  54.294  0.00  0.00    -0.284 OA
BRANCH  16  18
ATOM     18  C   UNL d   1      53.209  31.390  53.485  0.00  0.00     0.041 A 
ATOM     19  C   UNL d   1      52.817  31.110  52.830  0.00  0.00     0.003 A 
ATOM     20  C   UNL d   1      52.784  30.295  52.695  0.00  0.00     0.000 A 
ATOM     21  C   UNL d   1      53.156  29.753  53.238  0.00  0.00     0.000 A 
ATOM     22  C   UNL d   1      53.548  30.059  53.896  0.00  0.00     0.000 A 
ATOM     23  C   UNL d   1      53.573  30.881  54.018  0.00  0.00     0.003 A 
ENDBRANCH  16  18
ENDBRANCH  15  16
ENDBRANCH  14  15
ENDBRANCH  12  14
ENDBRANCH   1  12
BRANCH   8  24
ATOM     24  C   UNL d   1      48.810  35.668  53.256  0.00  0.00     0.002 C 
BRANCH  24  25
ATOM     25  C   UNL d   1      48.075  35.975  53.114  0.00  0.00     0.000 C 
ATOM     26  C   UNL d   1      47.729  36.519  53.679  0.00  0.00     0.000 C 
ENDBRANCH  24  25
ENDBRANCH   8  24
TORSDOF 7
ENDMDL
MODEL 5
REMARK VINA RESULT:      -7.2      0.881      5.616
REMARK  7 active torsions:
REMARK  status: ('A' for Active; 'I' for Inactive)
REMARK    1  A    between atoms: C_6  and  C_1 
REMARK    2  A    between atoms: O_8  and  C_6 
REMARK    3  A    between atoms: C_13  and  O_8 
REMARK    4  A    between atoms: C_9  and  C_13 
REMARK    5  A    between atoms: C_15  and  C_9 
REMARK    6  A    between atoms: C_19  and  C_11 
REMARK    7  A    between atoms: C_16  and  C_19 
ROOT
ATOM      1  C   UNL d   1      50.004  34.384  52.758  0.00  0.00     0.127 A 
ATOM      2  C   UNL d   1      49.585  34.956  53.240  0.00  0.00     0.305 A 
ATOM      3  O   UNL d   1      48.926  35.341  52.958  0.00  0.00    -0.273 OA
ATOM      4  C   UNL d   1      49.736  34.236  52.028  0.00  0.00     0.013 A 
ATOM      5  C   UNL d   1      48.669  35.167  52.193  0.00  0.00     0.103 A 
ATOM      6  C   UNL d   1      49.072  34.616  51.729  0.00  0.00     0.023 A 
ATOM      7  O   UNL d   1      49.830  35.160  54.045  0.00  0.00    -0.259 OA
ATOM      8  C   UNL d   1      48.007  35.553  51.908  0.00  0.00     0.023 A 
ATOM      9  C   UNL d   1      48.816  34.448  50.977  0.00  0.00     0.002 A 
ATOM     10  C   UNL d   1      48.179  34.804  50.672  0.00  0.00     0.000 A 
ATOM     11  C   UNL d   1      47.760  35.376  51.153  0.00  0.00     0.002 A 
ENDROOT
BRANCH   1  12
ATOM     12  C   UNL d   1      50.681  33.973  53.018  0.00  0.00     0.305 C 
ATOM     13  O   UNL d   1      50.613  33.189  53.301  0.00  0.00    -0.259 OA
BRANCH  12  14
ATOM     14  O   UNL d   1      51.453  34.349  52.999  0.00  0.00    -0.268 OA
BRANCH  14  15
ATOM     15  C   UNL d   1      52.086  33.883  53.189  0.00  0.00     0.168 C 
BRANCH  15  16
ATOM     16  C   UNL d   1      52.821  34.243  53.296  0.00  0.00     0.220 C 
ATOM     17  O   UNL d   1      52.983  34.959  52.925  0.00  0.00    -0.284 OA
BRANCH  16  18
ATOM     18  C   UNL d   1      53.411  33.896  53.776  0.00  0.00     0.041 A 
ATOM     19  C   UNL d   1      53.845  33.270  53.492  0.00  0.00     0.003 A 
ATOM     20  C   UNL d   1      54.427  32.930  53.970  0.00  0.00     0.000 A 
ATOM     21  C   UNL d   1      54.572  33.233  54.754  0.00  0.00     0.000 A 
ATOM     22  C   UNL d   1      54.120  33.869  55.021  0.00  0.00     0.000 A 
ATOM     23  C   UNL d   1      53.538  34.200  54.529  0.00  0.00     0.003 A 
ENDBRANCH  16  18
ENDBRANCH  15  16
ENDBRANCH  14  15
ENDBRANCH  12  14
ENDBRANCH   1  12
BRANCH   8  24
ATOM     24  C   UNL d   1      47.587  36.108  52.351  0.00  0.00     0.002 C 
BRANCH  24  25
ATOM     25  C   UNL d   1      46.869  36.364  52.079  0.00  0.00     0.000 C 
ATOM     26  C   UNL d   1      46.309  36.709  52.628  0.00  0.00     0.000 C 
ENDBRANCH  24  25
ENDBRANCH   8  24
TORSDOF 7
ENDMDL
MODEL 6
REMARK VINA RESULT:      -7.2      3.075      5.356
REMARK  7 active torsions:
REMARK  status: ('A' for Active; 'I' for Inactive)
REMARK    1  A    between atoms: C_6  and  C_1 
REMARK    2  A    between atoms: O_8  and  C_6 
REMARK    3  A    between atoms: C_13  and  O_8 
REMARK    4  A    between atoms: C_9  and  C_13 
REMARK    5  A    between atoms: C_15  and  C_9 
REMARK    6  A    between atoms: C_19  and  C_11 
REMARK    7  A    between atoms: C_16  and  C_19 
ROOT
ATOM      1  C   UNL d   1      53.069  32.375  53.286  0.00  0.00     0.127 A 
ATOM      2  C   UNL d   1      52.556  33.057  53.214  0.00  0.00     0.305 A 
ATOM      3  O   UNL d   1      52.710  33.746  53.619  0.00  0.00    -0.273 OA
ATOM      4  C   UNL d   1      53.703  32.428  53.758  0.00  0.00     0.013 A 
ATOM      5  C   UNL d   1      53.379  33.771  54.104  0.00  0.00     0.103 A 
ATOM      6  C   UNL d   1      53.873  33.115  54.173  0.00  0.00     0.023 A 
ATOM      7  O   UNL d   1      51.848  33.061  52.714  0.00  0.00    -0.259 OA
ATOM      8  C   UNL d   1      53.536  34.462  54.512  0.00  0.00     0.023 A 
ATOM      9  C   UNL d   1      54.529  33.144  54.651  0.00  0.00     0.002 A 
ATOM     10  C   UNL d   1      54.710  33.798  55.060  0.00  0.00     0.000 A 
ATOM     11  C   UNL d   1      54.196  34.480  54.988  0.00  0.00     0.002 A 
ENDROOT
BRANCH   1  12
ATOM     12  C   UNL d   1      52.938  31.657  52.884  0.00  0.00     0.305 C 
ATOM     13  O   UNL d   1      53.215  31.558  52.101  0.00  0.00    -0.259 OA
BRANCH  12  14
ATOM     14  O   UNL d   1      52.518  31.014  53.268  0.00  0.00    -0.268 OA
BRANCH  14  15
ATOM     15  C   UNL d   1      52.871  30.286  53.242  0.00  0.00     0.168 C 
BRANCH  15  16
ATOM     16  C   UNL d   1      52.514  29.662  53.647  0.00  0.00     0.220 C 
ATOM     17  O   UNL d   1      51.723  29.485  53.509  0.00  0.00    -0.284 OA
BRANCH  16  18
ATOM     18  C   UNL d   1      52.940  29.201  54.199  0.00  0.00     0.041 A 
ATOM     19  C   UNL d   1      53.511  28.684  53.939  0.00  0.00     0.003 A 
ATOM     20  C   UNL d   1      53.929  28.230  54.488  0.00  0.00     0.000 A 
ATOM     21  C   UNL d   1      53.763  28.302  55.322  0.00  0.00     0.000 A 
ATOM     22  C   UNL d   1      53.179  28.832  55.564  0.00  0.00     0.000 A 
ATOM     23  C   UNL d   1      52.768  29.282  54.999  0.00  0.00     0.003 A 
ENDBRANCH  16  18
ENDBRANCH  15  16
ENDBRANCH  14  15
ENDBRANCH  12  14
ENDBRANCH   1  12
BRANCH   8  24
ATOM     24  C   UNL d   1      53.057  35.132  54.460  0.00  0.00     0.002 C 
BRANCH  24  25
ATOM     25  C   UNL d   1      53.307  35.820  54.807  0.00  0.00     0.000 C 
ATOM     26  C   UNL d   1      52.784  36.499  54.819  0.00  0.00     0.000 C 
ENDBRANCH  24  25
ENDBRANCH   8  24
TORSDOF 7
ENDMDL
