MODEL 1
REMARK VINA RESULT:      -8.6      0.000      0.000
REMARK  2 active torsions:
REMARK  status: ('A' for Active; 'I' for Inactive)
REMARK    1  A    between atoms: S_2  and  C_1 
REMARK    2  A    between atoms: N_3  and  S_2 
ROOT
ATOM      1  C   UNL d   1     -47.466  13.227  23.080  0.00  0.00     0.125 A 
ATOM      2  C   UNL d   1     -47.524  12.474  23.479  0.00  0.00    -0.009 A 
ATOM      3  C   UNL d   1     -46.981  13.656  22.722  0.00  0.00     0.031 A 
ATOM      4  C   UNL d   1     -47.192  12.595  23.322  0.00  0.00    -0.009 A 
ATOM      5  C   UNL d   1     -46.389  12.189  23.296  0.00  0.00    -0.007 A 
ATOM      6  C   UNL d   1     -46.234  13.286  22.695  0.00  0.00     0.045 A 
ATOM      7  C   UNL d   1     -46.898  12.147  23.464  0.00  0.00    -0.007 A 
ATOM      8  C   UNL d   1     -45.918  12.606  22.949  0.00  0.00    -0.022 A 
ATOM      9  C   UNL d   1     -46.252  12.690  23.002  0.00  0.00    -0.022 A 
ATOM     10  C   UNL d   1     -46.431  11.421  23.698  0.00  0.00    -0.001 A 
ENDROOT
BRANCH   1  11
ATOM     11  S   UNL d   1     -47.961  14.100  22.780  0.00  0.00     0.142 S 
ATOM     12  O   UNL d   1     -47.345  14.615  22.553  0.00  0.00    -0.233 OA
BRANCH  11  13
ATOM     13  N   UNL d   1     -48.724  14.336  22.733  0.00  0.00    -0.251 N 
ATOM     14  C   UNL d   1     -49.038  14.803  23.323  0.00  0.00     0.108 A 
ATOM     15  C   UNL d   1     -49.856  15.049  23.260  0.00  0.00     0.100 A 
ATOM     16  N   UNL d   1     -50.295  14.820  22.632  0.00  0.00    -0.299 N 
ATOM     17  C   UNL d   1     -49.946  14.344  22.045  0.00  0.00     0.100 A 
ATOM     18  C   UNL d   1     -51.061  15.166  22.764  0.00  0.00     0.100 C 
ATOM     19  C   UNL d   1     -49.166  14.106  22.100  0.00  0.00     0.108 A 
ENDBRANCH  11  13
ENDBRANCH   1  11
TORSDOF 2
ENDMDL
MODEL 2
REMARK VINA RESULT:      -8.0      1.058      3.838
REMARK  2 active torsions:
REMARK  status: ('A' for Active; 'I' for Inactive)
REMARK    1  A    between atoms: S_2  and  C_1 
REMARK    2  A    between atoms: N_3  and  S_2 
ROOT
ATOM      1  C   UNL d   1     -49.067  14.256  22.782  0.00  0.00     0.125 A 
ATOM      2  C   UNL d   1     -49.150  14.901  23.336  0.00  0.00    -0.009 A 
ATOM      3  C   UNL d   1     -49.436  13.900  22.248  0.00  0.00     0.031 A 
ATOM      4  C   UNL d   1     -49.434  14.806  23.090  0.00  0.00    -0.009 A 
ATOM      5  C   UNL d   1     -50.247  15.178  22.984  0.00  0.00    -0.007 A 
ATOM      6  C   UNL d   1     -50.191  14.240  22.144  0.00  0.00     0.045 A 
ATOM      7  C   UNL d   1     -49.786  15.200  23.260  0.00  0.00    -0.007 A 
ATOM      8  C   UNL d   1     -50.605  14.833  22.465  0.00  0.00    -0.022 A 
ATOM      9  C   UNL d   1     -50.283  14.751  22.568  0.00  0.00    -0.022 A 
ATOM     10  C   UNL d   1     -50.348  15.837  23.540  0.00  0.00    -0.001 A 
ENDROOT
BRANCH   1  11
ATOM     11  S   UNL d   1     -48.452  13.491  22.414  0.00  0.00     0.142 S 
ATOM     12  O   UNL d   1     -48.687  13.408  21.617  0.00  0.00    -0.233 OA
BRANCH  11  13
ATOM     13  N   UNL d   1     -47.873  13.029  22.714  0.00  0.00    -0.251 N 
ATOM     14  C   UNL d   1     -48.063  12.313  23.054  0.00  0.00     0.108 A 
ATOM     15  C   UNL d   1     -47.433  11.829  23.372  0.00  0.00     0.100 A 
ATOM     16  N   UNL d   1     -46.675  12.083  23.332  0.00  0.00    -0.299 N 
ATOM     17  C   UNL d   1     -46.512  12.819  22.980  0.00  0.00     0.100 A 
ATOM     18  C   UNL d   1     -46.219  11.465  23.698  0.00  0.00     0.100 C 
ATOM     19  C   UNL d   1     -47.110  13.285  22.675  0.00  0.00     0.108 A 
ENDBRANCH  11  13
ENDBRANCH   1  11
TORSDOF 2
ENDMDL
MODEL 3
REMARK VINA RESULT:      -7.8      2.010      3.789
REMARK  2 active torsions:
REMARK  status: ('A' for Active; 'I' for Inactive)
REMARK    1  A    between atoms: S_2  and  C_1 
REMARK    2  A    between atoms: N_3  and  S_2 
ROOT
ATOM      1  C   UNL d   1     -49.161  12.664  23.216  0.00  0.00     0.125 A 
ATOM      2  C   UNL d   1     -49.573  13.389  23.399  0.00  0.00    -0.009 A 
ATOM      3  C   UNL d   1     -49.277  11.938  23.128  0.00  0.00     0.031 A 
ATOM      4  C   UNL d   1     -49.758  13.049  23.381  0.00  0.00    -0.009 A 
ATOM      5  C   UNL d   1     -50.630  12.863  23.510  0.00  0.00    -0.007 A 
ATOM      6  C   UNL d   1     -50.083  11.759  23.246  0.00  0.00     0.045 A 
ATOM      7  C   UNL d   1     -50.259  13.253  23.502  0.00  0.00    -0.007 A 
ATOM      8  C   UNL d   1     -50.742  12.159  23.424  0.00  0.00    -0.022 A 
ATOM      9  C   UNL d   1     -50.431  12.313  23.392  0.00  0.00    -0.022 A 
ATOM     10  C   UNL d   1     -51.064  13.591  23.697  0.00  0.00    -0.001 A 
ENDROOT
BRANCH   1  11
ATOM     11  S   UNL d   1     -48.244  12.212  22.983  0.00  0.00     0.142 S 
ATOM     12  O   UNL d   1     -48.420  11.397  22.957  0.00  0.00    -0.233 OA
BRANCH  11  13
ATOM     13  N   UNL d   1     -47.500  12.469  22.844  0.00  0.00    -0.251 N 
ATOM     14  C   UNL d   1     -47.310  12.776  22.113  0.00  0.00     0.108 A 
ATOM     15  C   UNL d   1     -46.510  13.048  21.977  0.00  0.00     0.100 A 
ATOM     16  N   UNL d   1     -45.966  12.998  22.562  0.00  0.00    -0.299 N 
ATOM     17  C   UNL d   1     -46.190  12.680  23.298  0.00  0.00     0.100 A 
ATOM     18  C   UNL d   1     -45.252  13.316  22.224  0.00  0.00     0.100 C 
ATOM     19  C   UNL d   1     -46.952  12.419  23.433  0.00  0.00     0.108 A 
ENDBRANCH  11  13
ENDBRANCH   1  11
TORSDOF 2
ENDMDL
MODEL 4
REMARK VINA RESULT:      -6.9      7.954      9.387
REMARK  2 active torsions:
REMARK  status: ('A' for Active; 'I' for Inactive)
REMARK    1  A    between atoms: S_2  and  C_1 
REMARK    2  A    between atoms: N_3  and  S_2 
ROOT
ATOM      1  C   UNL d   1     -40.488  14.912  19.351  0.00  0.00     0.125 A 
ATOM      2  C   UNL d   1     -40.410  15.644  19.783  0.00  0.00    -0.009 A 
ATOM      3  C   UNL d   1     -40.696  14.207  19.438  0.00  0.00     0.031 A 
ATOM      4  C   UNL d   1     -40.540  15.321  19.952  0.00  0.00    -0.009 A 
ATOM      5  C   UNL d   1     -40.802  15.185  20.804  0.00  0.00    -0.007 A 
ATOM      6  C   UNL d   1     -40.940  14.074  20.225  0.00  0.00     0.045 A 
ATOM      7  C   UNL d   1     -40.613  15.548  20.454  0.00  0.00    -0.007 A 
ATOM      8  C   UNL d   1     -41.004  14.501  20.888  0.00  0.00    -0.022 A 
ATOM      9  C   UNL d   1     -40.889  14.636  20.588  0.00  0.00    -0.022 A 
ATOM     10  C   UNL d   1     -40.729  15.921  21.258  0.00  0.00    -0.001 A 
ENDROOT
BRANCH   1  11
ATOM     11  S   UNL d   1     -40.372  14.420  18.432  0.00  0.00     0.142 S 
ATOM     12  O   UNL d   1     -40.949  13.817  18.451  0.00  0.00    -0.233 OA
BRANCH  11  13
ATOM     13  N   UNL d   1     -39.896  14.504  17.796  0.00  0.00    -0.251 N 
ATOM     14  C   UNL d   1     -39.217  14.056  17.739  0.00  0.00     0.108 A 
ATOM     15  C   UNL d   1     -38.716  14.156  17.052  0.00  0.00     0.100 A 
ATOM     16  N   UNL d   1     -38.917  14.681  16.483  0.00  0.00    -0.299 N 
ATOM     17  C   UNL d   1     -39.617  15.124  16.569  0.00  0.00     0.100 A 
ATOM     18  C   UNL d   1     -38.297  14.623  15.904  0.00  0.00     0.100 C 
ATOM     19  C   UNL d   1     -40.099  15.033  17.222  0.00  0.00     0.108 A 
ENDBRANCH  11  13
ENDBRANCH   1  11
TORSDOF 2
ENDMDL
MODEL 5
REMARK VINA RESULT:      -6.4      8.441      9.382
REMARK  2 active torsions:
REMARK  status: ('A' for Active; 'I' for Inactive)
REMARK    1  A    between atoms: S_2  and  C_1 
REMARK    2  A    between atoms: N_3  and  S_2 
ROOT
ATOM      1  C   UNL d   1     -40.331  15.163  18.557  0.00  0.00     0.125 A 
ATOM      2  C   UNL d   1     -40.842  15.763  18.230  0.00  0.00    -0.009 A 
ATOM      3  C   UNL d   1     -39.951  14.558  18.364  0.00  0.00     0.031 A 
ATOM      4  C   UNL d   1     -40.697  15.479  18.012  0.00  0.00    -0.009 A 
ATOM      5  C   UNL d   1     -40.808  15.318  17.132  0.00  0.00    -0.007 A 
ATOM      6  C   UNL d   1     -40.050  14.403  17.550  0.00  0.00     0.045 A 
ATOM      7  C   UNL d   1     -40.937  15.646  17.540  0.00  0.00    -0.007 A 
ATOM      8  C   UNL d   1     -40.439  14.732  16.945  0.00  0.00    -0.022 A 
ATOM      9  C   UNL d   1     -40.449  14.862  17.268  0.00  0.00    -0.022 A 
ATOM     10  C   UNL d   1     -41.327  15.921  16.783  0.00  0.00    -0.001 A 
ENDROOT
BRANCH   1  11
ATOM     11  S   UNL d   1     -39.849  14.793  19.411  0.00  0.00     0.142 S 
ATOM     12  O   UNL d   1     -39.521  14.068  19.161  0.00  0.00    -0.233 OA
BRANCH  11  13
ATOM     13  N   UNL d   1     -39.748  15.044  20.164  0.00  0.00    -0.251 N 
ATOM     14  C   UNL d   1     -39.119  15.529  20.346  0.00  0.00     0.108 A 
ATOM     15  C   UNL d   1     -39.024  15.791  21.156  0.00  0.00     0.100 A 
ATOM     16  N   UNL d   1     -39.546  15.558  21.715  0.00  0.00    -0.299 N 
ATOM     17  C   UNL d   1     -40.178  15.061  21.499  0.00  0.00     0.100 A 
ATOM     18  C   UNL d   1     -39.273  15.922  22.434  0.00  0.00     0.100 C 
ATOM     19  C   UNL d   1     -40.274  14.809  20.727  0.00  0.00     0.108 A 
ENDBRANCH  11  13
ENDBRANCH   1  11
TORSDOF 2
ENDMDL
MODEL 6
REMARK VINA RESULT:      -6.3      8.650      9.887
REMARK  2 active torsions:
REMARK  status: ('A' for Active; 'I' for Inactive)
REMARK    1  A    between atoms: S_2  and  C_1 
REMARK    2  A    between atoms: N_3  and  S_2 
ROOT
ATOM      1  C   UNL d   1     -39.480  14.419  17.504  0.00  0.00     0.125 A 
ATOM      2  C   UNL d   1     -39.078  14.923  16.944  0.00  0.00    -0.009 A 
ATOM      3  C   UNL d   1     -39.502  13.718  17.739  0.00  0.00     0.031 A 
ATOM      4  C   UNL d   1     -38.995  14.547  16.974  0.00  0.00    -0.009 A 
ATOM      5  C   UNL d   1     -38.395  14.053  16.517  0.00  0.00    -0.007 A 
ATOM      6  C   UNL d   1     -38.949  13.255  17.319  0.00  0.00     0.045 A 
ATOM      7  C   UNL d   1     -38.605  14.545  16.580  0.00  0.00    -0.007 A 
ATOM      8  C   UNL d   1     -38.417  13.373  16.745  0.00  0.00    -0.022 A 
ATOM      9  C   UNL d   1     -38.618  13.628  16.871  0.00  0.00    -0.022 A 
ATOM     10  C   UNL d   1     -37.977  14.552  15.942  0.00  0.00    -0.001 A 
ENDROOT
BRANCH   1  11
ATOM     11  S   UNL d   1     -40.204  14.350  18.258  0.00  0.00     0.142 S 
ATOM     12  O   UNL d   1     -40.649  13.675  18.051  0.00  0.00    -0.233 OA
BRANCH  11  13
ATOM     13  N   UNL d   1     -40.388  14.770  18.913  0.00  0.00    -0.251 N 
ATOM     14  C   UNL d   1     -40.210  14.467  19.649  0.00  0.00     0.108 A 
ATOM     15  C   UNL d   1     -40.413  14.928  20.342  0.00  0.00     0.100 A 
ATOM     16  N   UNL d   1     -40.769  15.639  20.259  0.00  0.00    -0.299 N 
ATOM     17  C   UNL d   1     -40.938  15.922  19.494  0.00  0.00     0.100 A 
ATOM     18  C   UNL d   1     -40.879  15.922  21.054  0.00  0.00     0.100 C 
ATOM     19  C   UNL d   1     -40.747  15.487  18.829  0.00  0.00     0.108 A 
ENDBRANCH  11  13
ENDBRANCH   1  11
TORSDOF 2
ENDMDL
