MODEL 1
REMARK VINA RESULT:      -3.9      0.000      0.000
REMARK  3 active torsions:
REMARK  status: ('A' for Active; 'I' for Inactive)
REMARK    1  A    between atoms: C_4  and  C_1 
REMARK    2  A    between atoms: N_2  and  C_3 
REMARK    3  A    between atoms: C_5  and  N_2 
ROOT
ATOM      1  C   UNL d   1      58.490   0.204  29.771  0.00  0.00     0.082 A 
ATOM      2  C   UNL d   1      58.180   0.070  30.534  0.00  0.00     0.087 A 
ATOM      3  C   UNL d   1      59.249   0.505  29.681  0.00  0.00     0.008 A 
ATOM      4  C   UNL d   1      58.644   0.243  31.195  0.00  0.00     0.019 A 
ATOM      5  C   UNL d   1      59.713   0.677  30.353  0.00  0.00     0.000 A 
ATOM      6  C   UNL d   1      59.402   0.543  31.105  0.00  0.00     0.002 A 
ENDROOT
BRANCH   2   7
ATOM      7  N   UNL d   1      57.422  -0.230  30.624  0.00  0.00    -0.245 NA
BRANCH   7   8
ATOM      8  C   UNL d   1      57.013  -0.158  31.344  0.00  0.00     0.081 A 
ATOM      9  C   UNL d   1      56.744  -0.817  31.745  0.00  0.00     0.018 A 
ATOM     10  C   UNL d   1      56.338  -0.740  32.461  0.00  0.00     0.002 A 
ATOM     11  C   UNL d   1      56.881  -1.555  31.430  0.00  0.00     0.002 C 
ATOM     12  C   UNL d   1      56.071  -1.394  32.859  0.00  0.00     0.000 C 
ATOM     13  C   UNL d   1      56.209   0.024  32.766  0.00  0.00     0.000 A 
ATOM     14  C   UNL d   1      56.477   0.682  32.365  0.00  0.00     0.002 A 
ATOM     15  C   UNL d   1      56.888   0.607  31.641  0.00  0.00     0.019 A 
ENDBRANCH   7   8
ENDBRANCH   2   7
BRANCH   1  16
ATOM     16  C   UNL d   1      58.027   0.032  29.110  0.00  0.00     0.212 C 
ATOM     17  O   UNL d   1      57.479   0.576  28.831  0.00  0.00    -0.644 OA
ATOM     18  O   UNL d   1      58.106  -0.684  28.722  0.00  0.00    -0.644 OA
ENDBRANCH   1  16
TORSDOF 3
ENDMDL
MODEL 2
REMARK VINA RESULT:      -2.7      2.123      3.896
REMARK  3 active torsions:
REMARK  status: ('A' for Active; 'I' for Inactive)
REMARK    1  A    between atoms: C_4  and  C_1 
REMARK    2  A    between atoms: N_2  and  C_3 
REMARK    3  A    between atoms: C_5  and  N_2 
ROOT
ATOM      1  C   UNL d   1      55.563  -0.424  33.354  0.00  0.00     0.082 A 
ATOM      2  C   UNL d   1      56.210  -0.410  32.826  0.00  0.00     0.087 A 
ATOM      3  C   UNL d   1      55.207  -1.137  33.550  0.00  0.00     0.008 A 
ATOM      4  C   UNL d   1      56.485  -1.119  32.504  0.00  0.00     0.019 A 
ATOM      5  C   UNL d   1      55.489  -1.850  33.222  0.00  0.00     0.000 A 
ATOM      6  C   UNL d   1      56.128  -1.832  32.700  0.00  0.00     0.002 A 
ENDROOT
BRANCH   2   7
ATOM      7  N   UNL d   1      56.566   0.303  32.630  0.00  0.00    -0.245 NA
BRANCH   7   8
ATOM      8  C   UNL d   1      57.114   0.353  32.007  0.00  0.00     0.081 A 
ATOM      9  C   UNL d   1      57.905   0.493  32.150  0.00  0.00     0.018 A 
ATOM     10  C   UNL d   1      58.447   0.541  31.527  0.00  0.00     0.002 A 
ATOM     11  C   UNL d   1      58.158   0.584  32.918  0.00  0.00     0.002 C 
ATOM     12  C   UNL d   1      59.232   0.680  31.669  0.00  0.00     0.000 C 
ATOM     13  C   UNL d   1      58.167   0.445  30.748  0.00  0.00     0.000 A 
ATOM     14  C   UNL d   1      57.376   0.305  30.605  0.00  0.00     0.002 A 
ATOM     15  C   UNL d   1      56.828   0.255  31.234  0.00  0.00     0.019 A 
ENDBRANCH   7   8
ENDBRANCH   2   7
BRANCH   1  16
ATOM     16  C   UNL d   1      55.288   0.284  33.675  0.00  0.00     0.212 C 
ATOM     17  O   UNL d   1      54.657   0.681  33.331  0.00  0.00    -0.644 OA
ATOM     18  O   UNL d   1      55.639   0.603  34.342  0.00  0.00    -0.644 OA
ENDBRANCH   1  16
TORSDOF 3
ENDMDL
MODEL 3
REMARK VINA RESULT:      -2.1      1.088      1.385
REMARK  3 active torsions:
REMARK  status: ('A' for Active; 'I' for Inactive)
REMARK    1  A    between atoms: C_4  and  C_1 
REMARK    2  A    between atoms: N_2  and  C_3 
REMARK    3  A    between atoms: C_5  and  N_2 
ROOT
ATOM      1  C   UNL d   1      58.492  -0.953  29.604  0.00  0.00     0.082 A 
ATOM      2  C   UNL d   1      58.137  -0.465  30.181  0.00  0.00     0.087 A 
ATOM      3  C   UNL d   1      58.963  -0.622  29.019  0.00  0.00     0.008 A 
ATOM      4  C   UNL d   1      58.263   0.350  30.157  0.00  0.00     0.019 A 
ATOM      5  C   UNL d   1      59.087   0.203  28.999  0.00  0.00     0.000 A 
ATOM      6  C   UNL d   1      58.734   0.681  29.571  0.00  0.00     0.002 A 
ENDROOT
BRANCH   2   7
ATOM      7  N   UNL d   1      57.666  -0.796  30.767  0.00  0.00    -0.245 NA
BRANCH   7   8
ATOM      8  C   UNL d   1      57.481  -0.375  31.459  0.00  0.00     0.081 A 
ATOM      9  C   UNL d   1      56.835  -0.576  31.915  0.00  0.00     0.018 A 
ATOM     10  C   UNL d   1      56.654  -0.155  32.603  0.00  0.00     0.002 A 
ATOM     11  C   UNL d   1      56.366  -1.201  31.685  0.00  0.00     0.002 C 
ATOM     12  C   UNL d   1      56.013  -0.354  33.056  0.00  0.00     0.000 C 
ATOM     13  C   UNL d   1      57.146   0.481  32.822  0.00  0.00     0.000 A 
ATOM     14  C   UNL d   1      57.792   0.682  32.365  0.00  0.00     0.002 A 
ATOM     15  C   UNL d   1      57.976   0.257  31.669  0.00  0.00     0.019 A 
ENDBRANCH   7   8
ENDBRANCH   2   7
BRANCH   1  16
ATOM     16  C   UNL d   1      58.365  -1.768  29.629  0.00  0.00     0.212 C 
ATOM     17  O   UNL d   1      58.896  -2.261  30.015  0.00  0.00    -0.644 OA
ATOM     18  O   UNL d   1      57.708  -2.097  29.270  0.00  0.00    -0.644 OA
ENDBRANCH   1  16
TORSDOF 3
ENDMDL
MODEL 4
REMARK VINA RESULT:      -1.7      2.482      3.517
REMARK  3 active torsions:
REMARK  status: ('A' for Active; 'I' for Inactive)
REMARK    1  A    between atoms: C_4  and  C_1 
REMARK    2  A    between atoms: N_2  and  C_3 
REMARK    3  A    between atoms: C_5  and  N_2 
ROOT
ATOM      1  C   UNL d   1      59.685  -2.929  29.012  0.00  0.00     0.082 A 
ATOM      2  C   UNL d   1      59.620  -2.115  29.184  0.00  0.00     0.087 A 
ATOM      3  C   UNL d   1      60.415  -3.255  28.828  0.00  0.00     0.008 A 
ATOM      4  C   UNL d   1      60.297  -1.643  29.168  0.00  0.00     0.019 A 
ATOM      5  C   UNL d   1      61.096  -2.773  28.813  0.00  0.00     0.000 A 
ATOM      6  C   UNL d   1      61.028  -1.969  28.984  0.00  0.00     0.002 A 
ENDROOT
BRANCH   2   7
ATOM      7  N   UNL d   1      58.889  -1.790  29.368  0.00  0.00    -0.245 NA
BRANCH   7   8
ATOM      8  C   UNL d   1      58.743  -0.978  29.269  0.00  0.00     0.081 A 
ATOM      9  C   UNL d   1      58.334  -0.551  29.831  0.00  0.00     0.018 A 
ATOM     10  C   UNL d   1      58.190   0.257  29.728  0.00  0.00     0.002 A 
ATOM     11  C   UNL d   1      58.067  -0.930  30.500  0.00  0.00     0.002 C 
ATOM     12  C   UNL d   1      57.784   0.681  30.287  0.00  0.00     0.000 C 
ATOM     13  C   UNL d   1      58.472   0.627  29.037  0.00  0.00     0.000 A 
ATOM     14  C   UNL d   1      58.881   0.200  28.475  0.00  0.00     0.002 A 
ATOM     15  C   UNL d   1      59.027  -0.617  28.578  0.00  0.00     0.019 A 
ENDBRANCH   7   8
ENDBRANCH   2   7
BRANCH   1  16
ATOM     16  C   UNL d   1      59.008  -3.401  29.028  0.00  0.00     0.212 C 
ATOM     17  O   UNL d   1      58.425  -3.315  28.456  0.00  0.00    -0.644 OA
ATOM     18  O   UNL d   1      58.907  -3.963  29.614  0.00  0.00    -0.644 OA
ENDBRANCH   1  16
TORSDOF 3
ENDMDL
MODEL 5
REMARK VINA RESULT:      -1.5      9.195     10.333
REMARK  3 active torsions:
REMARK  status: ('A' for Active; 'I' for Inactive)
REMARK    1  A    between atoms: C_4  and  C_1 
REMARK    2  A    between atoms: N_2  and  C_3 
REMARK    3  A    between atoms: C_5  and  N_2 
ROOT
ATOM      1  C   UNL d   1      59.770  -8.525  35.734  0.00  0.00     0.082 A 
ATOM      2  C   UNL d   1      59.530  -8.718  34.958  0.00  0.00     0.087 A 
ATOM      3  C   UNL d   1      59.417  -7.898  36.130  0.00  0.00     0.008 A 
ATOM      4  C   UNL d   1      58.937  -8.273  34.595  0.00  0.00     0.019 A 
ATOM      5  C   UNL d   1      58.817  -7.453  35.758  0.00  0.00     0.000 A 
ATOM      6  C   UNL d   1      58.584  -7.647  34.991  0.00  0.00     0.002 A 
ENDROOT
BRANCH   2   7
ATOM      7  N   UNL d   1      59.884  -9.344  34.561  0.00  0.00    -0.245 NA
BRANCH   7   8
ATOM      8  C   UNL d   1      59.708  -9.502  33.765  0.00  0.00     0.081 A 
ATOM      9  C   UNL d   1      60.298  -9.544  33.203  0.00  0.00     0.018 A 
ATOM     10  C   UNL d   1      60.119  -9.702  32.411  0.00  0.00     0.002 A 
ATOM     11  C   UNL d   1      61.071  -9.427  33.430  0.00  0.00     0.002 C 
ATOM     12  C   UNL d   1      60.705  -9.743  31.853  0.00  0.00     0.000 C 
ATOM     13  C   UNL d   1      59.322  -9.818  32.198  0.00  0.00     0.000 A 
ATOM     14  C   UNL d   1      58.732  -9.776  32.761  0.00  0.00     0.002 A 
ATOM     15  C   UNL d   1      58.912  -9.617  33.561  0.00  0.00     0.019 A 
ENDBRANCH   7   8
ENDBRANCH   2   7
BRANCH   1  16
ATOM     16  C   UNL d   1      60.363  -8.969  36.097  0.00  0.00     0.212 C 
ATOM     17  O   UNL d   1      60.224  -9.746  36.320  0.00  0.00    -0.644 OA
ATOM     18  O   UNL d   1      61.099  -8.642  36.239  0.00  0.00    -0.644 OA
ENDBRANCH   1  16
TORSDOF 3
ENDMDL
