MODEL 1
REMARK VINA RESULT:      -1.9      0.000      0.000
REMARK  5 active torsions:
REMARK  status: ('A' for Active; 'I' for Inactive)
REMARK    1  A    between atoms: C_6  and  C_1 
REMARK    2  A    between atoms: C_11  and  N_3 
REMARK    3  A    between atoms: C_14  and  C_11 
REMARK    4  A    between atoms: O_12  and  C_14 
REMARK    5  A    between atoms: C_13  and  O_12 
ROOT
ATOM      1  C   UNL d   1      32.720  22.186 -22.426  0.00  0.00     0.171 A 
ATOM      2  N   UNL d   1      32.608  22.977 -22.644  0.00  0.00    -0.225 NA
ATOM      3  N   UNL d   1      32.979  21.795 -23.111  0.00  0.00    -0.286 N 
ATOM      4  C   UNL d   1      33.021  22.326 -23.715  0.00  0.00     0.083 A 
ATOM      5  C   UNL d   1      32.789  23.064 -23.424  0.00  0.00     0.099 A 
ATOM      6  C   UNL d   1      33.241  22.246 -24.505  0.00  0.00     0.019 A 
ATOM      7  C   UNL d   1      32.787  23.693 -23.934  0.00  0.00     0.021 A 
ATOM      8  C   UNL d   1      33.226  22.891 -24.981  0.00  0.00     0.002 A 
ATOM      9  C   UNL d   1      32.995  23.628 -24.690  0.00  0.00     0.002 A 
ENDROOT
BRANCH   3  10
ATOM     10  C   UNL d   1      33.122  21.001 -23.012  0.00  0.00     0.108 C 
BRANCH  10  11
ATOM     11  C   UNL d   1      33.238  20.491 -23.634  0.00  0.00     0.142 C 
BRANCH  11  12
ATOM     12  O   UNL d   1      33.034  19.707 -23.606  0.00  0.00    -0.304 OA
BRANCH  12  13
ATOM     13  C   UNL d   1      32.913  19.019 -23.922  0.00  0.00     0.100 A 
ATOM     14  C   UNL d   1      33.032  18.637 -23.201  0.00  0.00     0.025 A 
ATOM     15  C   UNL d   1      32.975  17.815 -23.156  0.00  0.00     0.002 A 
ATOM     16  C   UNL d   1      32.798  17.371 -23.833  0.00  0.00     0.000 A 
ATOM     17  C   UNL d   1      32.678  17.753 -24.554  0.00  0.00     0.002 A 
ATOM     18  C   UNL d   1      32.736  18.579 -24.598  0.00  0.00     0.025 A 
ENDBRANCH  12  13
ENDBRANCH  11  12
ENDBRANCH  10  11
ENDBRANCH   3  10
BRANCH   1  19
ATOM     19  C   UNL d   1      32.599  21.854 -21.682  0.00  0.00     0.134 A 
ATOM     20  O   UNL d   1      31.887  21.599 -21.394  0.00  0.00    -0.302 OA
ATOM     21  C   UNL d   1      32.012  21.304 -20.624  0.00  0.00     0.123 A 
ATOM     22  C   UNL d   1      32.816  21.388 -20.456  0.00  0.00     0.029 A 
ATOM     23  C   UNL d   1      33.176  21.734 -21.125  0.00  0.00     0.030 A 
ENDBRANCH   1  19
TORSDOF 5
ENDMDL
MODEL 2
REMARK VINA RESULT:      -1.0      0.944      2.620
REMARK  5 active torsions:
REMARK  status: ('A' for Active; 'I' for Inactive)
REMARK    1  A    between atoms: C_6  and  C_1 
REMARK    2  A    between atoms: C_11  and  N_3 
REMARK    3  A    between atoms: C_14  and  C_11 
REMARK    4  A    between atoms: O_12  and  C_14 
REMARK    5  A    between atoms: C_13  and  O_12 
ROOT
ATOM      1  C   UNL d   1      32.789  22.871 -22.469  0.00  0.00     0.171 A 
ATOM      2  N   UNL d   1      32.630  23.337 -21.804  0.00  0.00    -0.225 NA
ATOM      3  N   UNL d   1      33.044  22.137 -22.178  0.00  0.00    -0.286 N 
ATOM      4  C   UNL d   1      33.038  22.160 -21.372  0.00  0.00     0.083 A 
ATOM      5  C   UNL d   1      32.780  22.909 -21.139  0.00  0.00     0.099 A 
ATOM      6  C   UNL d   1      33.235  21.596 -20.804  0.00  0.00     0.019 A 
ATOM      7  C   UNL d   1      32.728  23.066 -20.346  0.00  0.00     0.021 A 
ATOM      8  C   UNL d   1      33.171  21.787 -20.027  0.00  0.00     0.002 A 
ATOM      9  C   UNL d   1      32.913  22.536 -19.794  0.00  0.00     0.002 A 
ENDROOT
BRANCH   3  10
ATOM     10  C   UNL d   1      33.231  21.592 -22.752  0.00  0.00     0.108 C 
BRANCH  10  11
ATOM     11  C   UNL d   1      32.975  20.820 -22.730  0.00  0.00     0.142 C 
BRANCH  11  12
ATOM     12  O   UNL d   1      33.239  20.254 -23.247  0.00  0.00    -0.304 OA
BRANCH  12  13
ATOM     13  C   UNL d   1      33.137  19.680 -23.744  0.00  0.00     0.100 A 
ATOM     14  C   UNL d   1      32.833  19.188 -23.156  0.00  0.00     0.025 A 
ATOM     15  C   UNL d   1      32.594  18.421 -23.344  0.00  0.00     0.002 A 
ATOM     16  C   UNL d   1      32.659  18.142 -24.122  0.00  0.00     0.000 A 
ATOM     17  C   UNL d   1      32.963  18.634 -24.710  0.00  0.00     0.002 A 
ATOM     18  C   UNL d   1      33.203  19.405 -24.520  0.00  0.00     0.025 A 
ENDBRANCH  12  13
ENDBRANCH  11  12
ENDBRANCH  10  11
ENDBRANCH   3  10
BRANCH   1  19
ATOM     19  C   UNL d   1      32.711  23.090 -23.260  0.00  0.00     0.134 A 
ATOM     20  O   UNL d   1      32.096  22.882 -23.743  0.00  0.00    -0.302 OA
ATOM     21  C   UNL d   1      32.235  23.219 -24.494  0.00  0.00     0.123 A 
ATOM     22  C   UNL d   1      32.948  23.633 -24.449  0.00  0.00     0.029 A 
ATOM     23  C   UNL d   1      33.239  23.547 -23.672  0.00  0.00     0.030 A 
ENDBRANCH   1  19
TORSDOF 5
ENDMDL
MODEL 3
REMARK VINA RESULT:      -0.6      2.641      5.328
REMARK  5 active torsions:
REMARK  status: ('A' for Active; 'I' for Inactive)
REMARK    1  A    between atoms: C_6  and  C_1 
REMARK    2  A    between atoms: C_11  and  N_3 
REMARK    3  A    between atoms: C_14  and  C_11 
REMARK    4  A    between atoms: O_12  and  C_14 
REMARK    5  A    between atoms: C_13  and  O_12 
ROOT
ATOM      1  C   UNL d   1      30.656  17.136 -24.541  0.00  0.00     0.171 A 
ATOM      2  N   UNL d   1      30.743  16.382 -24.872  0.00  0.00    -0.225 NA
ATOM      3  N   UNL d   1      31.418  17.378 -24.321  0.00  0.00    -0.286 N 
ATOM      4  C   UNL d   1      31.942  16.796 -24.511  0.00  0.00     0.083 A 
ATOM      5  C   UNL d   1      31.520  16.175 -24.855  0.00  0.00     0.099 A 
ATOM      6  C   UNL d   1      32.759  16.739 -24.419  0.00  0.00     0.019 A 
ATOM      7  C   UNL d   1      31.932  15.519 -25.094  0.00  0.00     0.021 A 
ATOM      8  C   UNL d   1      33.134  16.075 -24.667  0.00  0.00     0.002 A 
ATOM      9  C   UNL d   1      32.712  15.453 -25.011  0.00  0.00     0.002 A 
ENDROOT
BRANCH   3  10
ATOM     10  C   UNL d   1      31.453  18.115 -23.980  0.00  0.00     0.108 C 
BRANCH  10  11
ATOM     11  C   UNL d   1      32.152  18.472 -23.766  0.00  0.00     0.142 C 
BRANCH  11  12
ATOM     12  O   UNL d   1      32.191  19.074 -23.223  0.00  0.00    -0.304 OA
BRANCH  12  13
ATOM     13  C   UNL d   1      32.537  19.473 -22.669  0.00  0.00     0.100 A 
ATOM     14  C   UNL d   1      32.592  20.143 -23.148  0.00  0.00     0.025 A 
ATOM     15  C   UNL d   1      32.941  20.831 -22.855  0.00  0.00     0.002 A 
ATOM     16  C   UNL d   1      33.237  20.853 -22.082  0.00  0.00     0.000 A 
ATOM     17  C   UNL d   1      33.182  20.183 -21.603  0.00  0.00     0.002 A 
ATOM     18  C   UNL d   1      32.832  19.492 -21.897  0.00  0.00     0.025 A 
ENDBRANCH  12  13
ENDBRANCH  11  12
ENDBRANCH  10  11
ENDBRANCH   3  10
BRANCH   1  19
ATOM     19  C   UNL d   1      29.955  17.560 -24.449  0.00  0.00     0.134 A 
ATOM     20  O   UNL d   1      29.725  18.187 -24.907  0.00  0.00    -0.302 OA
ATOM     21  C   UNL d   1      28.986  18.452 -24.627  0.00  0.00     0.123 A 
ATOM     22  C   UNL d   1      28.777  17.969 -23.990  0.00  0.00     0.029 A 
ATOM     23  C   UNL d   1      29.391  17.413 -23.886  0.00  0.00     0.030 A 
ENDBRANCH   1  19
TORSDOF 5
ENDMDL
MODEL 4
REMARK VINA RESULT:       0.8      2.128      4.805
REMARK  5 active torsions:
REMARK  status: ('A' for Active; 'I' for Inactive)
REMARK    1  A    between atoms: C_6  and  C_1 
REMARK    2  A    between atoms: C_11  and  N_3 
REMARK    3  A    between atoms: C_14  and  C_11 
REMARK    4  A    between atoms: O_12  and  C_14 
REMARK    5  A    between atoms: C_13  and  O_12 
ROOT
ATOM      1  C   UNL d   1      32.357  18.422 -24.262  0.00  0.00     0.171 A 
ATOM      2  N   UNL d   1      32.016  17.773 -24.647  0.00  0.00    -0.225 NA
ATOM      3  N   UNL d   1      32.515  18.171 -23.487  0.00  0.00    -0.286 N 
ATOM      4  C   UNL d   1      32.280  17.405 -23.408  0.00  0.00     0.083 A 
ATOM      5  C   UNL d   1      31.969  17.156 -24.131  0.00  0.00     0.099 A 
ATOM      6  C   UNL d   1      32.305  16.884 -22.769  0.00  0.00     0.019 A 
ATOM      7  C   UNL d   1      31.693  16.396 -24.189  0.00  0.00     0.021 A 
ATOM      8  C   UNL d   1      32.023  16.139 -22.862  0.00  0.00     0.002 A 
ATOM      9  C   UNL d   1      31.711  15.890 -23.585  0.00  0.00     0.002 A 
ENDROOT
BRANCH   3  10
ATOM     10  C   UNL d   1      32.856  18.736 -23.013  0.00  0.00     0.108 C 
BRANCH  10  11
ATOM     11  C   UNL d   1      32.542  18.962 -22.297  0.00  0.00     0.142 C 
BRANCH  11  12
ATOM     12  O   UNL d   1      32.890  19.515 -21.817  0.00  0.00    -0.304 OA
BRANCH  12  13
ATOM     13  C   UNL d   1      32.973  20.224 -21.537  0.00  0.00     0.100 A 
ATOM     14  C   UNL d   1      33.090  19.937 -20.773  0.00  0.00     0.025 A 
ATOM     15  C   UNL d   1      33.223  20.464 -20.151  0.00  0.00     0.002 A 
ATOM     16  C   UNL d   1      33.239  21.280 -20.292  0.00  0.00     0.000 A 
ATOM     17  C   UNL d   1      33.122  21.567 -21.057  0.00  0.00     0.002 A 
ATOM     18  C   UNL d   1      32.989  21.037 -21.681  0.00  0.00     0.025 A 
ENDBRANCH  12  13
ENDBRANCH  11  12
ENDBRANCH  10  11
ENDBRANCH   3  10
BRANCH   1  19
ATOM     19  C   UNL d   1      32.508  19.166 -24.583  0.00  0.00     0.134 A 
ATOM     20  O   UNL d   1      31.950  19.733 -24.729  0.00  0.00    -0.302 OA
ATOM     21  C   UNL d   1      32.338  20.397 -25.052  0.00  0.00     0.123 A 
ATOM     22  C   UNL d   1      33.142  20.214 -25.096  0.00  0.00     0.029 A 
ATOM     23  C   UNL d   1      33.240  19.441 -24.800  0.00  0.00     0.030 A 
ENDBRANCH   1  19
TORSDOF 5
ENDMDL
MODEL 5
REMARK VINA RESULT:       1.0      2.806      4.612
REMARK  5 active torsions:
REMARK  status: ('A' for Active; 'I' for Inactive)
REMARK    1  A    between atoms: C_6  and  C_1 
REMARK    2  A    between atoms: C_11  and  N_3 
REMARK    3  A    between atoms: C_14  and  C_11 
REMARK    4  A    between atoms: O_12  and  C_14 
REMARK    5  A    between atoms: C_13  and  O_12 
ROOT
ATOM      1  C   UNL d   1      32.699  17.526 -23.242  0.00  0.00     0.171 A 
ATOM      2  N   UNL d   1      33.234  18.096 -22.969  0.00  0.00    -0.225 NA
ATOM      3  N   UNL d   1      32.075  17.947 -23.591  0.00  0.00    -0.286 N 
ATOM      4  C   UNL d   1      32.226  18.736 -23.530  0.00  0.00     0.083 A 
ATOM      5  C   UNL d   1      32.950  18.829 -23.142  0.00  0.00     0.099 A 
ATOM      6  C   UNL d   1      31.803  19.399 -23.777  0.00  0.00     0.019 A 
ATOM      7  C   UNL d   1      33.222  19.582 -23.015  0.00  0.00     0.021 A 
ATOM      8  C   UNL d   1      32.103  20.129 -23.634  0.00  0.00     0.002 A 
ATOM      9  C   UNL d   1      32.826  20.222 -23.246  0.00  0.00     0.002 A 
ENDROOT
BRANCH   3  10
ATOM     10  C   UNL d   1      31.484  17.481 -23.898  0.00  0.00     0.108 C 
BRANCH  10  11
ATOM     11  C   UNL d   1      30.764  17.778 -24.134  0.00  0.00     0.142 C 
BRANCH  11  12
ATOM     12  O   UNL d   1      30.079  17.344 -24.110  0.00  0.00    -0.304 OA
BRANCH  12  13
ATOM     13  C   UNL d   1      29.604  16.799 -24.364  0.00  0.00     0.100 A 
ATOM     14  C   UNL d   1      29.009  17.037 -23.844  0.00  0.00     0.025 A 
ATOM     15  C   UNL d   1      28.286  16.640 -23.837  0.00  0.00     0.002 A 
ATOM     16  C   UNL d   1      28.154  16.003 -24.350  0.00  0.00     0.000 A 
ATOM     17  C   UNL d   1      28.749  15.766 -24.870  0.00  0.00     0.002 A 
ATOM     18  C   UNL d   1      29.476  16.165 -24.877  0.00  0.00     0.025 A 
ENDBRANCH  12  13
ENDBRANCH  11  12
ENDBRANCH  10  11
ENDBRANCH   3  10
BRANCH   1  19
ATOM     19  C   UNL d   1      32.771  16.708 -23.181  0.00  0.00     0.134 A 
ATOM     20  O   UNL d   1      32.385  16.244 -22.642  0.00  0.00    -0.302 OA
ATOM     21  C   UNL d   1      32.616  15.453 -22.772  0.00  0.00     0.123 A 
ATOM     22  C   UNL d   1      33.149  15.453 -23.403  0.00  0.00     0.029 A 
ATOM     23  C   UNL d   1      33.241  16.244 -23.653  0.00  0.00     0.030 A 
ENDBRANCH   1  19
TORSDOF 5
ENDMDL
