MODEL 1
REMARK VINA RESULT:      -4.4      0.000      0.000
REMARK  3 active torsions:
REMARK  status: ('A' for Active; 'I' for Inactive)
REMARK    1  A    between atoms: S_2  and  C_1 
REMARK    2  A    between atoms: N_8  and  S_2 
REMARK    3  A    between atoms: C_12  and  N_9 
ROOT
ATOM      1  N   UNL d   1      57.168  -0.237  31.611  0.00  0.00    -0.226 N 
ATOM      2  N   UNL d   1      56.183   0.111  32.882  0.00  0.00    -0.299 N 
ATOM      3  C   UNL d   1      57.190   0.501  31.959  0.00  0.00     0.111 A 
ATOM      4  C   UNL d   1      56.644  -0.806  31.908  0.00  0.00     0.111 A 
ATOM      5  C   UNL d   1      56.708   0.681  32.585  0.00  0.00     0.100 A 
ATOM      6  C   UNL d   1      56.150  -0.631  32.545  0.00  0.00     0.100 A 
ENDROOT
BRANCH   1   7
ATOM      7  S   UNL d   1      57.666  -0.410  30.971  0.00  0.00     0.278 S 
ATOM      8  O   UNL d   1      58.273  -0.562  31.508  0.00  0.00    -0.199 OA
ATOM      9  O   UNL d   1      57.046  -0.254  30.441  0.00  0.00    -0.199 OA
BRANCH   7  10
ATOM     10  C   UNL d   1      58.170  -0.584  30.342  0.00  0.00     0.178 A 
ATOM     11  C   UNL d   1      58.205  -1.361  30.053  0.00  0.00     0.282 A 
ATOM     12  N   UNL d   1      58.708  -1.532  29.426  0.00  0.00    -0.224 N 
ATOM     13  O   UNL d   1      57.748  -1.942  30.386  0.00  0.00    -0.266 OA
ATOM     14  C   UNL d   1      58.739  -2.309  29.142  0.00  0.00     0.107 C 
ATOM     15  C   UNL d   1      59.172  -0.942  29.088  0.00  0.00     0.342 A 
ATOM     16  N   UNL d   1      59.136  -0.177  29.374  0.00  0.00    -0.255 N 
ATOM     17  O   UNL d   1      59.679  -1.113  28.456  0.00  0.00    -0.245 OA
ATOM     18  C   UNL d   1      58.635   0.006  30.003  0.00  0.00     0.102 A 
ATOM     19  C   UNL d   1      59.599   0.411  29.037  0.00  0.00     0.104 C 
ENDBRANCH   7  10
ENDBRANCH   1   7
BRANCH   2  20
ATOM     20  C   UNL d   1      55.687   0.293  33.525  0.00  0.00     0.092 A 
ATOM     21  C   UNL d   1      56.016   0.403  34.278  0.00  0.00     0.156 A 
ATOM     22  F   UNL d   1      56.821   0.335  34.392  0.00  0.00    -0.203 F 
ATOM     23  C   UNL d   1      55.521   0.583  34.913  0.00  0.00     0.031 A 
ATOM     24  C   UNL d   1      54.708   0.651  34.798  0.00  0.00     0.002 A 
ATOM     25  C   UNL d   1      54.378   0.541  34.045  0.00  0.00     0.002 A 
ATOM     26  C   UNL d   1      54.874   0.361  33.409  0.00  0.00     0.020 A 
ENDBRANCH   2  20
TORSDOF 3
ENDMDL
MODEL 2
REMARK VINA RESULT:      -3.4      1.914      5.155
REMARK  3 active torsions:
REMARK  status: ('A' for Active; 'I' for Inactive)
REMARK    1  A    between atoms: S_2  and  C_1 
REMARK    2  A    between atoms: N_8  and  S_2 
REMARK    3  A    between atoms: C_12  and  N_9 
ROOT
ATOM      1  N   UNL d   1      56.888  -0.253  31.992  0.00  0.00    -0.226 N 
ATOM      2  N   UNL d   1      57.768  -0.636  30.656  0.00  0.00    -0.299 N 
ATOM      3  C   UNL d   1      57.334   0.317  31.615  0.00  0.00     0.111 A 
ATOM      4  C   UNL d   1      56.885  -1.025  31.692  0.00  0.00     0.111 A 
ATOM      5  C   UNL d   1      57.770   0.137  30.957  0.00  0.00     0.100 A 
ATOM      6  C   UNL d   1      57.326  -1.217  31.022  0.00  0.00     0.100 A 
ENDROOT
BRANCH   1   7
ATOM      7  S   UNL d   1      56.445  -0.058  32.665  0.00  0.00     0.278 S 
ATOM      8  O   UNL d   1      56.635  -0.795  32.981  0.00  0.00    -0.199 OA
ATOM      9  O   UNL d   1      56.261   0.682  32.335  0.00  0.00    -0.199 OA
BRANCH   7  10
ATOM     10  C   UNL d   1      56.007   0.126  33.340  0.00  0.00     0.178 A 
ATOM     11  C   UNL d   1      56.404   0.313  34.043  0.00  0.00     0.282 A 
ATOM     12  N   UNL d   1      55.966   0.496  34.714  0.00  0.00    -0.224 N 
ATOM     13  O   UNL d   1      57.215   0.315  34.067  0.00  0.00    -0.266 OA
ATOM     14  C   UNL d   1      56.368   0.682  35.413  0.00  0.00     0.107 C 
ATOM     15  C   UNL d   1      55.143   0.493  34.690  0.00  0.00     0.342 A 
ATOM     16  N   UNL d   1      54.753   0.309  33.996  0.00  0.00    -0.255 N 
ATOM     17  O   UNL d   1      54.701   0.677  35.365  0.00  0.00    -0.245 OA
ATOM     18  C   UNL d   1      55.183   0.124  33.317  0.00  0.00     0.102 A 
ATOM     19  C   UNL d   1      53.933   0.306  33.972  0.00  0.00     0.104 C 
ENDBRANCH   7  10
ENDBRANCH   1   7
BRANCH   2  20
ATOM     20  C   UNL d   1      58.215  -0.825  29.980  0.00  0.00     0.092 A 
ATOM     21  C   UNL d   1      58.312  -0.258  29.383  0.00  0.00     0.156 A 
ATOM     22  F   UNL d   1      57.974   0.481  29.453  0.00  0.00    -0.203 F 
ATOM     23  C   UNL d   1      58.756  -0.449  28.713  0.00  0.00     0.031 A 
ATOM     24  C   UNL d   1      59.098  -1.195  28.642  0.00  0.00     0.002 A 
ATOM     25  C   UNL d   1      59.001  -1.762  29.239  0.00  0.00     0.002 A 
ATOM     26  C   UNL d   1      58.556  -1.571  29.909  0.00  0.00     0.020 A 
ENDBRANCH   2  20
TORSDOF 3
ENDMDL
MODEL 3
REMARK VINA RESULT:      -2.7      1.926      5.153
REMARK  3 active torsions:
REMARK  status: ('A' for Active; 'I' for Inactive)
REMARK    1  A    between atoms: S_2  and  C_1 
REMARK    2  A    between atoms: N_8  and  S_2 
REMARK    3  A    between atoms: C_12  and  N_9 
ROOT
ATOM      1  N   UNL d   1      56.958  -0.230  31.983  0.00  0.00    -0.226 N 
ATOM      2  N   UNL d   1      57.754  -0.575  30.585  0.00  0.00    -0.299 N 
ATOM      3  C   UNL d   1      56.894  -0.969  31.644  0.00  0.00     0.111 A 
ATOM      4  C   UNL d   1      57.428   0.342  31.612  0.00  0.00     0.111 A 
ATOM      5  C   UNL d   1      57.282  -1.148  30.956  0.00  0.00     0.100 A 
ATOM      6  C   UNL d   1      57.827   0.169  30.912  0.00  0.00     0.100 A 
ENDROOT
BRANCH   1   7
ATOM      7  S   UNL d   1      56.556  -0.058  32.687  0.00  0.00     0.278 S 
ATOM      8  O   UNL d   1      56.922   0.681  32.694  0.00  0.00    -0.199 OA
ATOM      9  O   UNL d   1      56.193  -0.805  32.668  0.00  0.00    -0.199 OA
BRANCH   7  10
ATOM     10  C   UNL d   1      56.161   0.124  33.389  0.00  0.00     0.178 A 
ATOM     11  C   UNL d   1      55.345   0.272  33.368  0.00  0.00     0.282 A 
ATOM     12  N   UNL d   1      54.954   0.453  34.068  0.00  0.00    -0.224 N 
ATOM     13  O   UNL d   1      54.940   0.238  32.666  0.00  0.00    -0.266 OA
ATOM     14  C   UNL d   1      54.140   0.600  34.042  0.00  0.00     0.107 C 
ATOM     15  C   UNL d   1      55.365   0.488  34.781  0.00  0.00     0.342 A 
ATOM     16  N   UNL d   1      56.169   0.342  34.799  0.00  0.00    -0.255 N 
ATOM     17  O   UNL d   1      54.972   0.670  35.486  0.00  0.00    -0.245 OA
ATOM     18  C   UNL d   1      56.572   0.159  34.102  0.00  0.00     0.102 A 
ATOM     19  C   UNL d   1      56.578   0.376  35.508  0.00  0.00     0.104 C 
ENDBRANCH   7  10
ENDBRANCH   1   7
BRANCH   2  20
ATOM     20  C   UNL d   1      58.154  -0.755  29.878  0.00  0.00     0.092 A 
ATOM     21  C   UNL d   1      58.113  -0.229  29.239  0.00  0.00     0.156 A 
ATOM     22  F   UNL d   1      57.684   0.462  29.298  0.00  0.00    -0.203 F 
ATOM     23  C   UNL d   1      58.512  -0.411  28.539  0.00  0.00     0.031 A 
ATOM     24  C   UNL d   1      58.945  -1.110  28.480  0.00  0.00     0.002 A 
ATOM     25  C   UNL d   1      58.987  -1.636  29.119  0.00  0.00     0.002 A 
ATOM     26  C   UNL d   1      58.588  -1.454  29.819  0.00  0.00     0.020 A 
ENDBRANCH   2  20
TORSDOF 3
ENDMDL
