MODEL 1
REMARK VINA RESULT:      19.2      0.000      0.000
REMARK  5 active torsions:
REMARK  status: ('A' for Active; 'I' for Inactive)
REMARK    1  A    between atoms: C_2  and  C_1 
REMARK    2  A    between atoms: C_16  and  C_8 
REMARK    3  A    between atoms: N_15  and  C_13 
REMARK    4  A    between atoms: C_19  and  N_15 
REMARK    5  A    between atoms: C_20  and  N_15 
ROOT
ATOM      1  C   UNL d   1      45.915 -16.369  43.952  0.00  0.00     0.106 A 
ATOM      2  C   UNL d   1      45.361 -16.234  44.544  0.00  0.00     0.304 A 
ATOM      3  C   UNL d   1      46.251 -15.721  43.552  0.00  0.00     0.011 A 
ATOM      4  O   UNL d   1      45.121 -15.446  44.757  0.00  0.00    -0.273 OA
ATOM      5  C   UNL d   1      45.481 -14.815  44.332  0.00  0.00     0.105 A 
ATOM      6  C   UNL d   1      46.035 -14.951  43.740  0.00  0.00     0.023 A 
ATOM      7  C   UNL d   1      45.241 -14.028  44.545  0.00  0.00     0.042 A 
ATOM      8  C   UNL d   1      45.601 -13.392  44.119  0.00  0.00     0.066 A 
ATOM      9  O   UNL d   1      45.016 -16.905  44.955  0.00  0.00    -0.259 OA
ATOM     10  C   UNL d   1      46.371 -14.303  43.340  0.00  0.00     0.004 A 
ATOM     11  C   UNL d   1      46.155 -13.527  43.528  0.00  0.00     0.018 A 
ENDROOT
BRANCH   1  12
ATOM     12  C   UNL d   1      46.130 -17.150  43.765  0.00  0.00     0.210 A 
ATOM     13  O   UNL d   1      46.098 -17.541  43.032  0.00  0.00    -0.268 OA
ATOM     14  C   UNL d   1      46.375 -18.308  43.154  0.00  0.00     0.204 A 
ATOM     15  N   UNL d   1      46.576 -18.396  43.945  0.00  0.00    -0.121 NA
ATOM     16  N   UNL d   1      46.428 -17.683  44.332  0.00  0.00    -0.121 NA
BRANCH  14  17
ATOM     17  C   UNL d   1      46.465 -18.933  42.629  0.00  0.00     0.043 A 
ATOM     18  C   UNL d   1      46.493 -19.705  42.910  0.00  0.00     0.004 A 
ATOM     19  C   UNL d   1      46.583 -20.326  42.381  0.00  0.00     0.000 A 
ATOM     20  C   UNL d   1      46.646 -20.189  41.566  0.00  0.00     0.000 A 
ATOM     21  C   UNL d   1      46.618 -19.421  41.290  0.00  0.00     0.000 A 
ATOM     22  C   UNL d   1      46.527 -18.791  41.826  0.00  0.00     0.004 A 
ENDBRANCH  14  17
ENDBRANCH   1  12
BRANCH   8  23
ATOM     23  N   UNL d   1      45.384 -12.561  44.306  0.00  0.00    -0.304 N 
BRANCH  23  24
ATOM     24  C   UNL d   1      44.782 -12.200  43.845  0.00  0.00     0.080 C 
ATOM     25  C   UNL d   1      44.849 -12.107  43.032  0.00  0.00     0.021 C 
ENDBRANCH  23  24
BRANCH  23  26
ATOM     26  C   UNL d   1      45.761 -12.156  44.915  0.00  0.00     0.080 C 
ATOM     27  C   UNL d   1      46.595 -12.102  44.922  0.00  0.00     0.021 C 
ENDBRANCH  23  26
ENDBRANCH   8  23
TORSDOF 5
ENDMDL
