MODEL 1
REMARK VINA RESULT:      -2.8      0.000      0.000
REMARK  3 active torsions:
REMARK  status: ('A' for Active; 'I' for Inactive)
REMARK    1  A    between atoms: C_8  and  C_6 
REMARK    2  A    between atoms: C_9  and  C_8 
REMARK       I    between atoms: N_10  and  C_9 
REMARK    3  A    between atoms: C_14  and  N_10 
ROOT
ATOM      1  N   UNL d   1      30.057  17.762 -24.949  0.00  0.00    -0.207 NA
ATOM      2  N   UNL d   1      31.080  17.132 -23.780  0.00  0.00    -0.240 NA
ATOM      3  C   UNL d   1      30.803  17.978 -24.700  0.00  0.00     0.297 A 
ATOM      4  C   UNL d   1      29.573  17.143 -24.684  0.00  0.00     0.086 A 
ATOM      5  C   UNL d   1      30.452  16.613 -23.688  0.00  0.00     0.083 A 
ATOM      6  C   UNL d   1      31.145  17.762 -24.304  0.00  0.00     0.144 A 
ATOM      7  C   UNL d   1      29.735  16.590 -24.093  0.00  0.00     0.035 A 
ATOM      8  O   UNL d   1      31.125  18.628 -25.090  0.00  0.00    -0.264 OA
ATOM      9  C   UNL d   1      29.175  16.011 -23.908  0.00  0.00     0.003 A 
ATOM     10  C   UNL d   1      30.616  16.063 -23.099  0.00  0.00     0.019 A 
ATOM     11  C   UNL d   1      28.847  17.115 -25.090  0.00  0.00     0.019 A 
ATOM     12  C   UNL d   1      30.052  15.478 -22.911  0.00  0.00     0.002 A 
ATOM     13  C   UNL d   1      28.291  16.535 -24.901  0.00  0.00     0.002 A 
ATOM     14  C   UNL d   1      29.332  15.453 -23.315  0.00  0.00     0.000 A 
ATOM     15  C   UNL d   1      28.453  15.987 -24.315  0.00  0.00     0.000 A 
ENDROOT
BRANCH   6  16
ATOM     16  C   UNL d   1      31.859  18.169 -24.244  0.00  0.00     0.086 C 
BRANCH  16  17
ATOM     17  C   UNL d   1      32.569  17.747 -24.299  0.00  0.00     0.281 C 
ATOM     18  N   UNL d   1      33.227  18.004 -23.873  0.00  0.00    -0.208 NA
ATOM     19  O   UNL d   1      32.625  17.072 -24.776  0.00  0.00    -0.265 OA
BRANCH  18  20
ATOM     20  C   UNL d   1      33.185  18.676 -23.393  0.00  0.00     0.085 A 
ATOM     21  C   UNL d   1      33.241  19.424 -23.718  0.00  0.00     0.019 A 
ATOM     22  C   UNL d   1      33.199  20.088 -23.238  0.00  0.00     0.002 A 
ATOM     23  C   UNL d   1      33.100  20.004 -22.420  0.00  0.00     0.000 A 
ATOM     24  C   UNL d   1      33.043  19.239 -22.095  0.00  0.00     0.002 A 
ATOM     25  C   UNL d   1      33.087  18.584 -22.583  0.00  0.00     0.019 A 
ENDBRANCH  18  20
ENDBRANCH  16  17
ENDBRANCH   6  16
TORSDOF 3
ENDMDL
MODEL 2
REMARK VINA RESULT:      -0.5      2.196      5.153
REMARK  3 active torsions:
REMARK  status: ('A' for Active; 'I' for Inactive)
REMARK    1  A    between atoms: C_8  and  C_6 
REMARK    2  A    between atoms: C_9  and  C_8 
REMARK       I    between atoms: N_10  and  C_9 
REMARK    3  A    between atoms: C_14  and  N_10 
ROOT
ATOM      1  N   UNL d   1      33.108  21.402 -23.344  0.00  0.00    -0.207 NA
ATOM      2  N   UNL d   1      32.640  20.398 -22.086  0.00  0.00    -0.240 NA
ATOM      3  C   UNL d   1      33.013  20.594 -23.295  0.00  0.00     0.297 A 
ATOM      4  C   UNL d   1      32.997  21.981 -22.761  0.00  0.00     0.086 A 
ATOM      5  C   UNL d   1      32.598  21.117 -21.694  0.00  0.00     0.083 A 
ATOM      6  C   UNL d   1      32.854  20.258 -22.867  0.00  0.00     0.144 A 
ATOM      7  C   UNL d   1      32.758  21.873 -21.979  0.00  0.00     0.035 A 
ATOM      8  O   UNL d   1      33.173  20.182 -23.990  0.00  0.00    -0.264 OA
ATOM      9  C   UNL d   1      32.678  22.526 -21.479  0.00  0.00     0.003 A 
ATOM     10  C   UNL d   1      32.360  21.006 -20.914  0.00  0.00     0.019 A 
ATOM     11  C   UNL d   1      33.157  22.747 -23.043  0.00  0.00     0.019 A 
ATOM     12  C   UNL d   1      32.279  21.665 -20.409  0.00  0.00     0.002 A 
ATOM     13  C   UNL d   1      33.076  23.397 -22.541  0.00  0.00     0.002 A 
ATOM     14  C   UNL d   1      32.438  22.425 -20.692  0.00  0.00     0.000 A 
ATOM     15  C   UNL d   1      32.838  23.288 -21.764  0.00  0.00     0.000 A 
ENDROOT
BRANCH   6  16
ATOM     16  C   UNL d   1      32.835  19.462 -23.077  0.00  0.00     0.086 C 
BRANCH  16  17
ATOM     17  C   UNL d   1      32.998  18.889 -22.502  0.00  0.00     0.281 C 
ATOM     18  N   UNL d   1      32.920  18.090 -22.693  0.00  0.00    -0.208 NA
ATOM     19  O   UNL d   1      33.239  19.110 -21.742  0.00  0.00    -0.265 OA
BRANCH  18  20
ATOM     20  C   UNL d   1      32.681  17.856 -23.449  0.00  0.00     0.085 A 
ATOM     21  C   UNL d   1      33.230  17.745 -24.043  0.00  0.00     0.019 A 
ATOM     22  C   UNL d   1      32.988  17.513 -24.792  0.00  0.00     0.002 A 
ATOM     23  C   UNL d   1      32.185  17.389 -24.950  0.00  0.00     0.000 A 
ATOM     24  C   UNL d   1      31.630  17.504 -24.339  0.00  0.00     0.002 A 
ATOM     25  C   UNL d   1      31.882  17.736 -23.596  0.00  0.00     0.019 A 
ENDBRANCH  18  20
ENDBRANCH  16  17
ENDBRANCH   6  16
TORSDOF 3
ENDMDL
MODEL 3
REMARK VINA RESULT:      -0.0      1.412      4.181
REMARK  3 active torsions:
REMARK  status: ('A' for Active; 'I' for Inactive)
REMARK    1  A    between atoms: C_8  and  C_6 
REMARK    2  A    between atoms: C_9  and  C_8 
REMARK       I    between atoms: N_10  and  C_9 
REMARK    3  A    between atoms: C_14  and  N_10 
ROOT
ATOM      1  N   UNL d   1      30.755  18.191 -24.943  0.00  0.00    -0.207 NA
ATOM      2  N   UNL d   1      30.898  16.871 -23.920  0.00  0.00    -0.240 NA
ATOM      3  C   UNL d   1      30.226  17.613 -24.717  0.00  0.00     0.297 A 
ATOM      4  C   UNL d   1      31.547  18.293 -24.723  0.00  0.00     0.086 A 
ATOM      5  C   UNL d   1      31.661  17.166 -23.851  0.00  0.00     0.083 A 
ATOM      6  C   UNL d   1      30.279  17.168 -24.370  0.00  0.00     0.144 A 
ATOM      7  C   UNL d   1      31.996  17.826 -24.212  0.00  0.00     0.035 A 
ATOM      8  O   UNL d   1      29.474  17.681 -25.047  0.00  0.00    -0.264 OA
ATOM      9  C   UNL d   1      32.784  18.022 -24.061  0.00  0.00     0.003 A 
ATOM     10  C   UNL d   1      32.106  16.697 -23.341  0.00  0.00     0.019 A 
ATOM     11  C   UNL d   1      31.891  18.959 -25.084  0.00  0.00     0.019 A 
ATOM     12  C   UNL d   1      32.902  16.894 -23.188  0.00  0.00     0.002 A 
ATOM     13  C   UNL d   1      32.679  19.151 -24.931  0.00  0.00     0.002 A 
ATOM     14  C   UNL d   1      33.241  17.557 -23.548  0.00  0.00     0.000 A 
ATOM     15  C   UNL d   1      33.123  18.686 -24.423  0.00  0.00     0.000 A 
ENDROOT
BRANCH   6  16
ATOM     16  C   UNL d   1      29.584  16.729 -24.307  0.00  0.00     0.086 C 
BRANCH  16  17
ATOM     17  C   UNL d   1      29.575  15.949 -24.583  0.00  0.00     0.281 C 
ATOM     18  N   UNL d   1      28.949  15.453 -24.374  0.00  0.00    -0.208 NA
ATOM     19  O   UNL d   1      30.183  15.663 -25.066  0.00  0.00    -0.265 OA
BRANCH  18  20
ATOM     20  C   UNL d   1      28.335  15.726 -23.892  0.00  0.00     0.085 A 
ATOM     21  C   UNL d   1      27.591  15.860 -24.202  0.00  0.00     0.019 A 
ATOM     22  C   UNL d   1      26.984  16.130 -23.722  0.00  0.00     0.002 A 
ATOM     23  C   UNL d   1      27.122  16.269 -22.917  0.00  0.00     0.000 A 
ATOM     24  C   UNL d   1      27.883  16.131 -22.606  0.00  0.00     0.002 A 
ATOM     25  C   UNL d   1      28.481  15.861 -23.096  0.00  0.00     0.019 A 
ENDBRANCH  18  20
ENDBRANCH  16  17
ENDBRANCH   6  16
TORSDOF 3
ENDMDL
