MODEL 1
REMARK VINA RESULT:      78.6      0.000      0.000
REMARK  4 active torsions:
REMARK  status: ('A' for Active; 'I' for Inactive)
REMARK    1  A    between atoms: C_5  and  N_1 
REMARK    2  A    between atoms: C_7  and  C_3 
REMARK    3  A    between atoms: C_8  and  C_4 
REMARK    4  A    between atoms: N_10  and  C_5 
ROOT
ATOM      1  N   UNL d   1      60.321  48.274  50.572  0.00  0.00    -0.203 N 
ATOM      2  N   UNL d   1      59.623  48.299  50.127  0.00  0.00    -0.163 NA
ATOM      3  C   UNL d   1      59.151  48.898  50.389  0.00  0.00     0.103 A 
ATOM      4  C   UNL d   1      60.289  48.885  51.140  0.00  0.00     0.087 A 
ATOM      5  C   UNL d   1      59.567  49.275  51.033  0.00  0.00     0.040 A 
ENDROOT
BRANCH   3   6
ATOM      6  C   UNL d   1      58.403  49.092  50.075  0.00  0.00     0.019 A 
ATOM      7  C   UNL d   1      58.328  49.359  49.300  0.00  0.00     0.002 A 
ATOM      8  C   UNL d   1      57.570  49.549  49.003  0.00  0.00     0.000 A 
ATOM      9  C   UNL d   1      56.911  49.468  49.479  0.00  0.00     0.000 A 
ATOM     10  C   UNL d   1      57.006  49.199  50.253  0.00  0.00     0.000 A 
ATOM     11  C   UNL d   1      56.034  49.706  49.081  0.00  0.00     0.000 C 
ATOM     12  C   UNL d   1      57.737  49.013  50.548  0.00  0.00     0.002 A 
ENDBRANCH   3   6
BRANCH   1  13
ATOM     13  C   UNL d   1      60.958  47.731  50.474  0.00  0.00     0.222 C 
ATOM     14  S   UNL d   1      61.076  47.128  51.056  0.00  0.00    -0.037 SA
BRANCH  13  15
ATOM     15  N   UNL d   1      61.480  47.776  49.809  0.00  0.00    -0.214 NA
ATOM     16  C   UNL d   1      62.110  47.237  49.738  0.00  0.00     0.122 C 
ENDBRANCH  13  15
ENDBRANCH   1  13
BRANCH   4  17
ATOM     17  C   UNL d   1      60.850  49.088  51.713  0.00  0.00     0.018 A 
ATOM     18  C   UNL d   1      61.527  49.505  51.511  0.00  0.00     0.002 A 
ATOM     19  C   UNL d   1      62.084  49.708  52.082  0.00  0.00     0.007 A 
ATOM     20  C   UNL d   1      61.960  49.489  52.864  0.00  0.00     0.035 A 
ATOM     21  C   UNL d   1      61.302  49.081  53.075  0.00  0.00     0.007 A 
ATOM     22 BR   UNL d   1      62.541  49.705  53.431  0.00  0.00    -0.049 Br
ATOM     23  C   UNL d   1      60.741  48.877  52.502  0.00  0.00     0.002 A 
ENDBRANCH   4  17
TORSDOF 4
ENDMDL
