MODEL 1
REMARK VINA RESULT:      -6.5      0.000      0.000
REMARK  4 active torsions:
REMARK  status: ('A' for Active; 'I' for Inactive)
REMARK    1  A    between atoms: S_7  and  C_2 
REMARK    2  A    between atoms: C_20  and  S_7 
REMARK    3  A    between atoms: C_10  and  C_20 
REMARK       I    between atoms: N_12  and  C_10 
REMARK    4  A    between atoms: C_15  and  N_12 
ROOT
ATOM      1  C   UNL d   1     -47.714  13.040  22.877  0.00  0.00     0.286 C 
ATOM      2  N   UNL d   1     -47.034  13.119  23.340  0.00  0.00    -0.207 NA
ATOM      3  O   UNL d   1     -47.669  12.685  22.138  0.00  0.00    -0.265 OA
ENDROOT
BRANCH   1   4
ATOM      4  C   UNL d   1     -48.424  13.321  23.173  0.00  0.00     0.101 C 
BRANCH   4   5
ATOM      5  S   UNL d   1     -48.853  13.873  22.740  0.00  0.00    -0.041 SA
BRANCH   5   6
ATOM      6  C   UNL d   1     -49.590  14.126  23.008  0.00  0.00     0.220 A 
ATOM      7  N   UNL d   1     -49.845  14.895  22.854  0.00  0.00    -0.148 N 
ATOM      8  C   UNL d   1     -50.586  15.160  23.119  0.00  0.00     0.305 A 
ATOM      9  N   UNL d   1     -49.362  15.413  22.432  0.00  0.00    -0.037 N 
ATOM     10  C   UNL d   1     -51.064  14.630  23.543  0.00  0.00     0.185 A 
ATOM     11  O   UNL d   1     -50.838  15.922  22.967  0.00  0.00    -0.263 OA
ATOM     12  N   UNL d   1     -50.810  13.860  23.697  0.00  0.00    -0.139 NA
ATOM     13  N   UNL d   1     -50.074  13.611  23.429  0.00  0.00    -0.121 NA
ENDBRANCH   5   6
ENDBRANCH   4   5
ENDBRANCH   1   4
BRANCH   2  14
ATOM     14  C   UNL d   1     -46.309  12.839  23.053  0.00  0.00     0.087 A 
ATOM     15  C   UNL d   1     -45.841  13.325  22.577  0.00  0.00     0.045 A 
ATOM     16  C   UNL d   1     -45.124  13.049  22.294  0.00  0.00     0.121 A 
ATOM     17  O   UNL d   1     -44.541  13.394  21.814  0.00  0.00    -0.299 OA
ATOM     18  C   UNL d   1     -44.867  12.288  22.482  0.00  0.00     0.119 A 
ATOM     19  C   UNL d   1     -43.932  12.854  21.707  0.00  0.00     0.304 A 
ATOM     20  O   UNL d   1     -44.134  12.169  22.120  0.00  0.00    -0.300 OA
ATOM     21  C   UNL d   1     -45.334  11.802  22.958  0.00  0.00     0.028 A 
ATOM     22  C   UNL d   1     -46.062  12.079  23.247  0.00  0.00     0.021 A 
ENDBRANCH   2  14
TORSDOF 4
ENDMDL
MODEL 2
REMARK VINA RESULT:      -6.0      1.426      5.225
REMARK  4 active torsions:
REMARK  status: ('A' for Active; 'I' for Inactive)
REMARK    1  A    between atoms: S_7  and  C_2 
REMARK    2  A    between atoms: C_20  and  S_7 
REMARK    3  A    between atoms: C_10  and  C_20 
REMARK       I    between atoms: N_12  and  C_10 
REMARK    4  A    between atoms: C_15  and  N_12 
ROOT
ATOM      1  C   UNL d   1     -47.590  13.532  22.904  0.00  0.00     0.286 C 
ATOM      2  N   UNL d   1     -48.360  13.236  22.856  0.00  0.00    -0.207 NA
ATOM      3  O   UNL d   1     -47.452  14.336  22.809  0.00  0.00    -0.265 OA
ENDROOT
BRANCH   1   4
ATOM      4  C   UNL d   1     -46.976  13.009  23.047  0.00  0.00     0.101 C 
BRANCH   4   5
ATOM      5  S   UNL d   1     -46.234  13.156  22.726  0.00  0.00    -0.041 SA
BRANCH   5   6
ATOM      6  C   UNL d   1     -45.632  12.600  22.805  0.00  0.00     0.220 A 
ATOM      7  N   UNL d   1     -44.944  12.668  22.354  0.00  0.00    -0.148 N 
ATOM      8  C   UNL d   1     -44.331  12.112  22.425  0.00  0.00     0.305 A 
ATOM      9  N   UNL d   1     -44.858  13.293  21.824  0.00  0.00    -0.037 N 
ATOM     10  C   UNL d   1     -44.428  11.486  22.963  0.00  0.00     0.185 A 
ATOM     11  O   UNL d   1     -43.650  12.180  21.979  0.00  0.00    -0.263 OA
ATOM     12  N   UNL d   1     -45.115  11.418  23.413  0.00  0.00    -0.139 NA
ATOM     13  N   UNL d   1     -45.715  11.975  23.332  0.00  0.00    -0.121 NA
ENDBRANCH   5   6
ENDBRANCH   4   5
ENDBRANCH   1   4
BRANCH   2  14
ATOM     14  C   UNL d   1     -48.990  13.754  22.711  0.00  0.00     0.087 A 
ATOM     15  C   UNL d   1     -49.336  14.164  23.339  0.00  0.00     0.045 A 
ATOM     16  C   UNL d   1     -49.959  14.676  23.197  0.00  0.00     0.121 A 
ATOM     17  O   UNL d   1     -50.414  15.157  23.698  0.00  0.00    -0.299 OA
ATOM     18  C   UNL d   1     -50.242  14.784  22.430  0.00  0.00     0.119 A 
ATOM     19  C   UNL d   1     -50.970  15.557  23.247  0.00  0.00     0.304 A 
ATOM     20  O   UNL d   1     -50.864  15.327  22.462  0.00  0.00    -0.300 OA
ATOM     21  C   UNL d   1     -49.896  14.375  21.802  0.00  0.00     0.028 A 
ATOM     22  C   UNL d   1     -49.264  13.855  21.943  0.00  0.00     0.021 A 
ENDBRANCH   2  14
TORSDOF 4
ENDMDL
MODEL 3
REMARK VINA RESULT:      -5.2      8.775      9.486
REMARK  4 active torsions:
REMARK  status: ('A' for Active; 'I' for Inactive)
REMARK    1  A    between atoms: S_7  and  C_2 
REMARK    2  A    between atoms: C_20  and  S_7 
REMARK    3  A    between atoms: C_10  and  C_20 
REMARK       I    between atoms: N_12  and  C_10 
REMARK    4  A    between atoms: C_15  and  N_12 
ROOT
ATOM      1  C   UNL d   1     -39.820  14.905  20.168  0.00  0.00     0.286 C 
ATOM      2  N   UNL d   1     -39.462  15.198  19.483  0.00  0.00    -0.207 NA
ATOM      3  O   UNL d   1     -40.532  14.500  20.119  0.00  0.00    -0.265 OA
ENDROOT
BRANCH   1   4
ATOM      4  C   UNL d   1     -39.449  15.029  20.888  0.00  0.00     0.101 C 
BRANCH   4   5
ATOM      5  S   UNL d   1     -39.383  14.407  21.422  0.00  0.00    -0.041 SA
BRANCH   5   6
ATOM      6  C   UNL d   1     -39.038  14.531  22.160  0.00  0.00     0.220 A 
ATOM      7  N   UNL d   1     -38.678  13.905  22.559  0.00  0.00    -0.148 N 
ATOM      8  C   UNL d   1     -38.328  14.020  23.303  0.00  0.00     0.305 A 
ATOM      9  N   UNL d   1     -38.661  13.154  22.220  0.00  0.00    -0.037 N 
ATOM     10  C   UNL d   1     -38.350  14.780  23.636  0.00  0.00     0.185 A 
ATOM     11  O   UNL d   1     -37.970  13.400  23.698  0.00  0.00    -0.263 OA
ATOM     12  N   UNL d   1     -38.710  15.406  23.237  0.00  0.00    -0.139 NA
ATOM     13  N   UNL d   1     -39.053  15.279  22.501  0.00  0.00    -0.121 NA
ENDBRANCH   5   6
ENDBRANCH   4   5
ENDBRANCH   1   4
BRANCH   2  14
ATOM     14  C   UNL d   1     -39.826  15.080  18.749  0.00  0.00     0.087 A 
ATOM     15  C   UNL d   1     -40.401  15.612  18.487  0.00  0.00     0.045 A 
ATOM     16  C   UNL d   1     -40.762  15.497  17.761  0.00  0.00     0.121 A 
ATOM     17  O   UNL d   1     -41.346  15.922  17.351  0.00  0.00    -0.299 OA
ATOM     18  C   UNL d   1     -40.553  14.852  17.290  0.00  0.00     0.119 A 
ATOM     19  C   UNL d   1     -41.496  15.545  16.638  0.00  0.00     0.304 A 
ATOM     20  O   UNL d   1     -41.005  14.883  16.599  0.00  0.00    -0.300 OA
ATOM     21  C   UNL d   1     -39.978  14.321  17.552  0.00  0.00     0.028 A 
ATOM     22  C   UNL d   1     -39.611  14.435  18.288  0.00  0.00     0.021 A 
ENDBRANCH   2  14
TORSDOF 4
ENDMDL
MODEL 4
REMARK VINA RESULT:      -5.0      8.725      9.312
REMARK  4 active torsions:
REMARK  status: ('A' for Active; 'I' for Inactive)
REMARK    1  A    between atoms: S_7  and  C_2 
REMARK    2  A    between atoms: C_20  and  S_7 
REMARK    3  A    between atoms: C_10  and  C_20 
REMARK       I    between atoms: N_12  and  C_10 
REMARK    4  A    between atoms: C_15  and  N_12 
ROOT
ATOM      1  C   UNL d   1     -39.571  14.648  20.191  0.00  0.00     0.286 C 
ATOM      2  N   UNL d   1     -39.980  14.478  20.888  0.00  0.00    -0.207 NA
ATOM      3  O   UNL d   1     -38.756  14.746  20.206  0.00  0.00    -0.265 OA
ENDROOT
BRANCH   1   4
ATOM      4  C   UNL d   1     -39.995  14.715  19.493  0.00  0.00     0.101 C 
BRANCH   4   5
ATOM      5  S   UNL d   1     -39.595  14.836  18.786  0.00  0.00    -0.041 SA
BRANCH   5   6
ATOM      6  C   UNL d   1     -40.016  14.983  18.093  0.00  0.00     0.220 A 
ATOM      7  N   UNL d   1     -39.655  15.378  17.465  0.00  0.00    -0.148 N 
ATOM      8  C   UNL d   1     -40.071  15.531  16.762  0.00  0.00     0.305 A 
ATOM      9  N   UNL d   1     -38.872  15.626  17.529  0.00  0.00    -0.037 N 
ATOM     10  C   UNL d   1     -40.859  15.276  16.708  0.00  0.00     0.185 A 
ATOM     11  O   UNL d   1     -39.713  15.922  16.140  0.00  0.00    -0.263 OA
ATOM     12  N   UNL d   1     -41.221  14.881  17.336  0.00  0.00    -0.139 NA
ATOM     13  N   UNL d   1     -40.798  14.737  18.026  0.00  0.00    -0.121 NA
ENDBRANCH   5   6
ENDBRANCH   4   5
ENDBRANCH   1   4
BRANCH   2  14
ATOM     14  C   UNL d   1     -39.563  14.408  21.601  0.00  0.00     0.087 A 
ATOM     15  C   UNL d   1     -39.363  13.659  21.886  0.00  0.00     0.045 A 
ATOM     16  C   UNL d   1     -38.951  13.588  22.590  0.00  0.00     0.121 A 
ATOM     17  O   UNL d   1     -38.674  12.930  23.014  0.00  0.00    -0.299 OA
ATOM     18  C   UNL d   1     -38.736  14.262  23.016  0.00  0.00     0.119 A 
ATOM     19  C   UNL d   1     -38.293  13.192  23.691  0.00  0.00     0.304 A 
ATOM     20  O   UNL d   1     -38.331  14.017  23.694  0.00  0.00    -0.300 OA
ATOM     21  C   UNL d   1     -38.937  15.010  22.731  0.00  0.00     0.028 A 
ATOM     22  C   UNL d   1     -39.354  15.085  22.017  0.00  0.00     0.021 A 
ENDBRANCH   2  14
TORSDOF 4
ENDMDL
MODEL 5
REMARK VINA RESULT:      -4.1      9.387     10.232
REMARK  4 active torsions:
REMARK  status: ('A' for Active; 'I' for Inactive)
REMARK    1  A    between atoms: S_7  and  C_2 
REMARK    2  A    between atoms: C_20  and  S_7 
REMARK    3  A    between atoms: C_10  and  C_20 
REMARK       I    between atoms: N_12  and  C_10 
REMARK    4  A    between atoms: C_15  and  N_12 
ROOT
ATOM      1  C   UNL d   1     -38.661  14.279  19.555  0.00  0.00     0.286 C 
ATOM      2  N   UNL d   1     -39.221  14.478  18.981  0.00  0.00    -0.207 NA
ATOM      3  O   UNL d   1     -37.944  13.946  19.333  0.00  0.00    -0.265 OA
ENDROOT
BRANCH   1   4
ATOM      4  C   UNL d   1     -38.838  14.422  20.343  0.00  0.00     0.101 C 
BRANCH   4   5
ATOM      5  S   UNL d   1     -38.432  14.015  20.930  0.00  0.00    -0.041 SA
BRANCH   5   6
ATOM      6  C   UNL d   1     -38.545  14.210  21.722  0.00  0.00     0.220 A 
ATOM      7  N   UNL d   1     -38.394  13.653  22.311  0.00  0.00    -0.148 N 
ATOM      8  C   UNL d   1     -38.505  13.839  23.113  0.00  0.00     0.305 A 
ATOM      9  N   UNL d   1     -38.128  12.900  22.109  0.00  0.00    -0.037 N 
ATOM     10  C   UNL d   1     -38.773  14.601  23.306  0.00  0.00     0.185 A 
ATOM     11  O   UNL d   1     -38.355  13.287  23.696  0.00  0.00    -0.263 OA
ATOM     12  N   UNL d   1     -38.925  15.159  22.717  0.00  0.00    -0.139 NA
ATOM     13  N   UNL d   1     -38.810  14.961  21.928  0.00  0.00    -0.121 NA
ENDBRANCH   5   6
ENDBRANCH   4   5
ENDBRANCH   1   4
BRANCH   2  14
ATOM     14  C   UNL d   1     -39.055  14.340  18.182  0.00  0.00     0.087 A 
ATOM     15  C   UNL d   1     -38.725  14.941  17.722  0.00  0.00     0.045 A 
ATOM     16  C   UNL d   1     -38.560  14.805  16.931  0.00  0.00     0.121 A 
ATOM     17  O   UNL d   1     -38.236  15.284  16.336  0.00  0.00    -0.299 OA
ATOM     18  C   UNL d   1     -38.723  14.070  16.593  0.00  0.00     0.119 A 
ATOM     19  C   UNL d   1     -38.199  14.852  15.639  0.00  0.00     0.304 A 
ATOM     20  O   UNL d   1     -38.500  14.101  15.798  0.00  0.00    -0.300 OA
ATOM     21  C   UNL d   1     -39.052  13.469  17.052  0.00  0.00     0.028 A 
ATOM     22  C   UNL d   1     -39.220  13.604  17.854  0.00  0.00     0.021 A 
ENDBRANCH   2  14
TORSDOF 4
ENDMDL
MODEL 6
REMARK VINA RESULT:      -3.9      7.915     10.203
REMARK  4 active torsions:
REMARK  status: ('A' for Active; 'I' for Inactive)
REMARK    1  A    between atoms: S_7  and  C_2 
REMARK    2  A    between atoms: C_20  and  S_7 
REMARK    3  A    between atoms: C_10  and  C_20 
REMARK       I    between atoms: N_12  and  C_10 
REMARK    4  A    between atoms: C_15  and  N_12 
ROOT
ATOM      1  C   UNL d   1     -39.162  15.382  17.786  0.00  0.00     0.286 C 
ATOM      2  N   UNL d   1     -38.406  15.434  17.457  0.00  0.00    -0.207 NA
ATOM      3  O   UNL d   1     -39.792  15.119  17.329  0.00  0.00    -0.265 OA
ENDROOT
BRANCH   1   4
ATOM      4  C   UNL d   1     -39.266  15.597  18.570  0.00  0.00     0.101 C 
BRANCH   4   5
ATOM      5  S   UNL d   1     -39.995  15.480  18.929  0.00  0.00    -0.041 SA
BRANCH   5   6
ATOM      6  C   UNL d   1     -40.086  15.622  19.736  0.00  0.00     0.220 A 
ATOM      7  N   UNL d   1     -40.840  15.647  20.069  0.00  0.00    -0.148 N 
ATOM      8  C   UNL d   1     -40.942  15.789  20.881  0.00  0.00     0.305 A 
ATOM      9  N   UNL d   1     -41.505  15.531  19.596  0.00  0.00    -0.037 N 
ATOM     10  C   UNL d   1     -40.266  15.905  21.349  0.00  0.00     0.185 A 
ATOM     11  O   UNL d   1     -41.689  15.814  21.211  0.00  0.00    -0.263 OA
ATOM     12  N   UNL d   1     -39.511  15.880  21.015  0.00  0.00    -0.139 NA
ATOM     13  N   UNL d   1     -39.425  15.738  20.210  0.00  0.00    -0.121 NA
ENDBRANCH   5   6
ENDBRANCH   4   5
ENDBRANCH   1   4
BRANCH   2  14
ATOM     14  C   UNL d   1     -38.287  15.219  16.666  0.00  0.00     0.087 A 
ATOM     15  C   UNL d   1     -38.250  14.420  16.459  0.00  0.00     0.045 A 
ATOM     16  C   UNL d   1     -38.132  14.208  15.677  0.00  0.00     0.121 A 
ATOM     17  O   UNL d   1     -38.070  13.470  15.301  0.00  0.00    -0.299 OA
ATOM     18  C   UNL d   1     -38.052  14.787  15.096  0.00  0.00     0.119 A 
ATOM     19  C   UNL d   1     -37.953  13.592  14.498  0.00  0.00     0.304 A 
ATOM     20  O   UNL d   1     -37.941  14.407  14.370  0.00  0.00    -0.300 OA
ATOM     21  C   UNL d   1     -38.089  15.585  15.302  0.00  0.00     0.028 A 
ATOM     22  C   UNL d   1     -38.208  15.805  16.094  0.00  0.00     0.021 A 
ENDBRANCH   2  14
TORSDOF 4
ENDMDL
MODEL 7
REMARK VINA RESULT:      -3.9      9.145     10.732
REMARK  4 active torsions:
REMARK  status: ('A' for Active; 'I' for Inactive)
REMARK    1  A    between atoms: S_7  and  C_2 
REMARK    2  A    between atoms: C_20  and  S_7 
REMARK    3  A    between atoms: C_10  and  C_20 
REMARK       I    between atoms: N_12  and  C_10 
REMARK    4  A    between atoms: C_15  and  N_12 
ROOT
ATOM      1  C   UNL d   1     -39.200  15.382  19.014  0.00  0.00     0.286 C 
ATOM      2  N   UNL d   1     -38.849  15.922  19.531  0.00  0.00    -0.207 NA
ATOM      3  O   UNL d   1     -39.733  14.827  19.298  0.00  0.00    -0.265 OA
ENDROOT
BRANCH   1   4
ATOM      4  C   UNL d   1     -39.005  15.416  18.218  0.00  0.00     0.101 C 
BRANCH   4   5
ATOM      5  S   UNL d   1     -38.619  14.780  17.868  0.00  0.00    -0.041 SA
BRANCH   5   6
ATOM      6  C   UNL d   1     -38.422  14.806  17.069  0.00  0.00     0.220 A 
ATOM      7  N   UNL d   1     -38.281  14.107  16.655  0.00  0.00    -0.148 N 
ATOM      8  C   UNL d   1     -38.082  14.121  15.848  0.00  0.00     0.305 A 
ATOM      9  N   UNL d   1     -38.337  13.380  17.040  0.00  0.00    -0.037 N 
ATOM     10  C   UNL d   1     -38.029  14.858  15.470  0.00  0.00     0.185 A 
ATOM     11  O   UNL d   1     -37.943  13.428  15.439  0.00  0.00    -0.263 OA
ATOM     12  N   UNL d   1     -38.170  15.558  15.883  0.00  0.00    -0.139 NA
ATOM     13  N   UNL d   1     -38.366  15.529  16.681  0.00  0.00    -0.121 NA
ENDBRANCH   5   6
ENDBRANCH   4   5
ENDBRANCH   1   4
BRANCH   2  14
ATOM     14  C   UNL d   1     -39.037  15.899  20.337  0.00  0.00     0.087 A 
ATOM     15  C   UNL d   1     -38.432  15.853  20.898  0.00  0.00     0.045 A 
ATOM     16  C   UNL d   1     -38.618  15.830  21.695  0.00  0.00     0.121 A 
ATOM     17  O   UNL d   1     -38.148  15.785  22.379  0.00  0.00    -0.299 OA
ATOM     18  C   UNL d   1     -39.405  15.853  21.940  0.00  0.00     0.119 A 
ATOM     19  C   UNL d   1     -38.638  15.780  23.037  0.00  0.00     0.304 A 
ATOM     20  O   UNL d   1     -39.416  15.822  22.766  0.00  0.00    -0.300 OA
ATOM     21  C   UNL d   1     -40.009  15.899  21.380  0.00  0.00     0.028 A 
ATOM     22  C   UNL d   1     -39.825  15.922  20.571  0.00  0.00     0.021 A 
ENDBRANCH   2  14
TORSDOF 4
ENDMDL
