MODEL 1
REMARK VINA RESULT:      65.7      0.000      0.000
REMARK  3 active torsions:
REMARK  status: ('A' for Active; 'I' for Inactive)
REMARK    1  A    between atoms: C_5  and  C_1 
REMARK    2  A    between atoms: C_4  and  C_2 
REMARK       I    between atoms: N_8  and  C_4 
REMARK    3  A    between atoms: C_10  and  N_8 
ROOT
ATOM      1  C   UNL d   1     -55.920 -99.706 -44.654  0.00  0.00     0.118 A 
ATOM      2  C   UNL d   1     -56.672 -99.406 -44.820  0.00  0.00     0.103 A 
ATOM      3  N   UNL d   1     -55.462 -99.587 -45.327  0.00  0.00    -0.126 NA
ATOM      4  O   UNL d   1     -55.915 -99.222 -45.902  0.00  0.00    -0.211 OA
ATOM      5  C   UNL d   1     -56.668 -99.110 -45.584  0.00  0.00     0.131 A 
ATOM      6  C   UNL d   1     -57.315 -98.759 -45.965  0.00  0.00     0.029 C 
ENDROOT
BRANCH   2   7
ATOM      7  C   UNL d   1     -57.315 -99.409 -44.296  0.00  0.00     0.283 C 
ATOM      8  N   UNL d   1     -57.940 -98.884 -44.416  0.00  0.00    -0.204 NA
ATOM      9  O   UNL d   1     -57.316 -99.935 -43.668  0.00  0.00    -0.265 OA
BRANCH   8  10
ATOM     10  C   UNL d   1     -58.577 -98.887 -43.897  0.00  0.00     0.130 A 
ATOM     11  C   UNL d   1     -59.365 -98.984 -44.107  0.00  0.00     0.243 A 
ATOM     12  S   UNL d   1     -59.824 -98.951 -43.417  0.00  0.00    -0.044 SA
ATOM     13  O   UNL d   1     -59.656 -99.095 -44.864  0.00  0.00    -0.278 OA
ATOM     14  C   UNL d   1     -59.317 -98.834 -42.781  0.00  0.00     0.040 A 
ATOM     15  C   UNL d   1     -58.538 -98.793 -43.079  0.00  0.00     0.030 A 
ENDBRANCH   8  10
ENDBRANCH   2   7
BRANCH   1  16
ATOM     16  C   UNL d   1     -55.673-100.055 -43.956  0.00  0.00     0.058 A 
ATOM     17  C   UNL d   1     -55.673-100.882 -43.876  0.00  0.00     0.142 A 
ATOM     18  F   UNL d   1     -55.924-101.346 -44.510  0.00  0.00    -0.204 F 
ATOM     19  C   UNL d   1     -55.424-101.219 -43.172  0.00  0.00     0.030 A 
ATOM     20  C   UNL d   1     -55.173-100.751 -42.541  0.00  0.00     0.003 A 
ATOM     21  C   UNL d   1     -55.175 -99.922 -42.624  0.00  0.00     0.012 A 
ATOM     22  C   UNL d   1     -55.424 -99.579 -43.328  0.00  0.00     0.061 A 
ATOM     23 CL   UNL d   1     -55.326 -98.768 -43.143  0.00  0.00    -0.082 Cl
ENDBRANCH   1  16
TORSDOF 3
ENDMDL
