MODEL 1
REMARK VINA RESULT:      13.2      0.000      0.000
REMARK  2 active torsions:
REMARK  status: ('A' for Active; 'I' for Inactive)
REMARK    1  A    between atoms: N_2  and  S_1 
REMARK    2  A    between atoms: C_8  and  S_1 
ROOT
ATOM      1  N   UNL d   1      23.848  12.429  -2.081  0.00  0.00    -0.231 N 
ATOM      2  C   UNL d   1      23.331  11.891  -1.746  0.00  0.00     0.092 A 
ATOM      3  C   UNL d   1      24.097  12.942  -1.484  0.00  0.00     0.075 A 
ATOM      4  C   UNL d   1      23.256  12.064  -0.944  0.00  0.00     0.021 A 
ATOM      5  C   UNL d   1      23.730  12.716  -0.779  0.00  0.00     0.018 A 
ATOM      6  C   UNL d   1      24.611  13.584  -1.494  0.00  0.00     0.018 A 
ATOM      7  C   UNL d   1      23.877  13.132  -0.087  0.00  0.00     0.002 A 
ATOM      8  C   UNL d   1      24.760  14.005  -0.798  0.00  0.00     0.002 A 
ATOM      9  C   UNL d   1      24.392  13.778  -0.093  0.00  0.00     0.000 A 
ENDROOT
BRANCH   1  10
ATOM     10  S   UNL d   1      24.080  12.456  -2.872  0.00  0.00     0.271 S 
ATOM     11  O   UNL d   1      24.765  12.029  -2.682  0.00  0.00    -0.200 OA
ATOM     12  O   UNL d   1      23.396  12.880  -3.058  0.00  0.00    -0.200 OA
BRANCH  10  13
ATOM     13  C   UNL d   1      24.310  12.484  -3.667  0.00  0.00     0.104 A 
ATOM     14  C   UNL d   1      24.325  13.199  -4.070  0.00  0.00     0.013 A 
ATOM     15  C   UNL d   1      24.552  13.227  -4.853  0.00  0.00     0.001 A 
ATOM     16  C   UNL d   1      24.768  12.531  -5.247  0.00  0.00     0.000 A 
ATOM     17  C   UNL d   1      24.755  11.814  -4.850  0.00  0.00     0.001 A 
ATOM     18  C   UNL d   1      24.525  11.787  -4.057  0.00  0.00     0.013 A 
ENDBRANCH  10  13
ENDBRANCH   1  10
TORSDOF 2
ENDMDL
