MODEL 1
REMARK VINA RESULT:      91.1      0.000      0.000
REMARK  3 active torsions:
REMARK  status: ('A' for Active; 'I' for Inactive)
REMARK    1  A    between atoms: C_11  and  C_3 
REMARK       I    between atoms: C_7  and  N_9 
REMARK    2  A    between atoms: C_8  and  C_7 
REMARK    3  A    between atoms: N_9  and  C_13 
ROOT
ATOM      1  C   UNL d   1      59.396  49.124  50.647  0.00  0.00     0.021 A 
ATOM      2  C   UNL d   1      60.524  48.263  50.481  0.00  0.00     0.085 A 
ATOM      3  C   UNL d   1      59.715  48.403  50.404  0.00  0.00     0.021 A 
ATOM      4  C   UNL d   1      59.888  49.705  50.967  0.00  0.00     0.002 A 
ATOM      5  C   UNL d   1      60.698  49.565  51.044  0.00  0.00     0.002 A 
ATOM      6  C   UNL d   1      61.016  48.844  50.801  0.00  0.00     0.019 A 
ENDROOT
BRANCH   2   7
ATOM      7  N   UNL d   1      60.841  47.545  50.239  0.00  0.00    -0.207 NA
ATOM      8  C   UNL d   1      60.893  46.920  50.763  0.00  0.00     0.297 C 
ATOM      9  O   UNL d   1      60.624  47.009  51.547  0.00  0.00    -0.264 OA
BRANCH   8  10
ATOM     10  C   UNL d   1      61.211  46.199  50.520  0.00  0.00     0.139 A 
ATOM     11  N   UNL d   1      61.767  46.174  49.921  0.00  0.00    -0.241 NA
ATOM     12  C   UNL d   1      62.085  45.453  49.678  0.00  0.00     0.082 A 
ATOM     13  C   UNL d   1      62.646  45.433  49.072  0.00  0.00     0.019 A 
ATOM     14  C   UNL d   1      61.848  44.756  50.034  0.00  0.00     0.018 A 
ATOM     15  C   UNL d   1      62.964  44.711  48.829  0.00  0.00     0.002 A 
ATOM     16  C   UNL d   1      62.722  44.010  49.192  0.00  0.00     0.000 A 
ATOM     17  C   UNL d   1      62.166  44.035  49.791  0.00  0.00     0.002 A 
ATOM     18  C   UNL d   1      61.283  44.772  50.646  0.00  0.00     0.003 A 
ATOM     19  C   UNL d   1      60.964  45.493  50.889  0.00  0.00     0.024 A 
ENDBRANCH   8  10
ENDBRANCH   2   7
BRANCH   1  20
ATOM     20  C   UNL d   1      58.586  49.265  50.571  0.00  0.00     0.101 A 
ATOM     21  N   UNL d   1      58.007  49.272  51.161  0.00  0.00    -0.221 NA
ATOM     22  C   UNL d   1      57.297  49.437  50.801  0.00  0.00     0.179 A 
ATOM     23  N   UNL d   1      57.424  49.534  49.994  0.00  0.00    -0.282 N 
ATOM     24  S   UNL d   1      56.498  49.545  50.943  0.00  0.00    -0.048 SA
ATOM     25  C   UNL d   1      58.228  49.427  49.850  0.00  0.00     0.101 A 
ATOM     26  C   UNL d   1      56.689  49.703  49.642  0.00  0.00     0.089 A 
ATOM     27  C   UNL d   1      56.127  49.708  50.228  0.00  0.00     0.057 A 
ENDBRANCH   1  20
TORSDOF 3
ENDMDL
