MODEL 1
REMARK VINA RESULT:      -9.6      0.000      0.000
REMARK  8 active torsions:
REMARK  status: ('A' for Active; 'I' for Inactive)
REMARK    1  A    between atoms: C_8  and  N_3 
REMARK    2  A    between atoms: S_7  and  C_5 
REMARK    3  A    between atoms: C_17  and  S_7 
REMARK    4  A    between atoms: C_20  and  C_8 
REMARK    5  A    between atoms: C_9  and  C_17 
REMARK       I    between atoms: N_12  and  C_9 
REMARK    6  A    between atoms: C_11  and  C_13 
REMARK    7  A    between atoms: C_13  and  N_12 
REMARK    8  A    between atoms: O_21  and  C_15 
ROOT
ATOM      1  N   UNL d   1      52.286  32.593  52.788  0.00  0.00    -0.185 NA
ATOM      2  C   UNL d   1      52.750  31.910  52.762  0.00  0.00     0.354 A 
ATOM      3  N   UNL d   1      53.352  31.800  53.320  0.00  0.00    -0.258 N 
ATOM      4  C   UNL d   1      53.021  33.046  53.915  0.00  0.00     0.040 A 
ATOM      5  C   UNL d   1      52.422  33.161  53.364  0.00  0.00     0.117 A 
ATOM      6  C   UNL d   1      53.487  32.368  53.896  0.00  0.00     0.070 A 
ATOM      7  O   UNL d   1      52.612  31.330  52.175  0.00  0.00    -0.244 OA
ATOM      8  C   UNL d   1      53.292  33.500  54.548  0.00  0.00     0.004 A 
ATOM      9  C   UNL d   1      54.040  32.390  54.501  0.00  0.00     0.018 A 
ATOM     10  C   UNL d   1      53.913  33.106  54.910  0.00  0.00     0.002 A 
ENDROOT
BRANCH   5  11
ATOM     11  S   UNL d   1      51.957  33.845  53.390  0.00  0.00    -0.062 SA
BRANCH  11  12
ATOM     12  C   UNL d   1      51.301  33.921  52.898  0.00  0.00     0.099 C 
BRANCH  12  13
ATOM     13  C   UNL d   1      50.761  34.536  53.029  0.00  0.00     0.286 C 
ATOM     14  N   UNL d   1      50.027  34.527  52.671  0.00  0.00    -0.206 NA
ATOM     15  O   UNL d   1      50.967  35.170  53.532  0.00  0.00    -0.265 OA
BRANCH  14  16
ATOM     16  C   UNL d   1      49.487  35.141  52.802  0.00  0.00     0.104 C 
BRANCH  16  17
ATOM     17  C   UNL d   1      48.823  35.218  52.328  0.00  0.00     0.042 A 
ATOM     18  C   UNL d   1      48.189  35.693  52.568  0.00  0.00     0.096 A 
ATOM     19  C   UNL d   1      47.523  35.769  52.089  0.00  0.00     0.024 A 
ATOM     20  C   UNL d   1      47.480  35.376  51.370  0.00  0.00     0.002 A 
ATOM     21  C   UNL d   1      48.109  34.898  51.119  0.00  0.00     0.000 A 
ATOM     22  C   UNL d   1      48.787  34.816  51.598  0.00  0.00     0.004 A 
BRANCH  18  23
ATOM     23  O   UNL d   1      48.224  36.095  53.295  0.00  0.00    -0.328 OA
ATOM     24  C   UNL d   1      47.614  36.621  53.493  0.00  0.00     0.181 C 
ENDBRANCH  18  23
ENDBRANCH  16  17
ENDBRANCH  14  16
ENDBRANCH  12  13
ENDBRANCH  11  12
ENDBRANCH   5  11
BRANCH   3  25
ATOM     25  C   UNL d   1      53.816  31.116  53.294  0.00  0.00     0.085 C 
BRANCH  25  26
ATOM     26  C   UNL d   1      53.508  30.398  53.569  0.00  0.00     0.021 A 
ATOM     27  C   UNL d   1      52.980  29.977  53.103  0.00  0.00     0.022 A 
ATOM     28  C   UNL d   1      52.677  29.262  53.385  0.00  0.00     0.099 A 
ATOM     29  N   UNL d   1      52.899  28.972  54.124  0.00  0.00    -0.242 NA
ATOM     30  C   UNL d   1      53.425  29.397  54.582  0.00  0.00     0.099 A 
ATOM     31  C   UNL d   1      53.739  30.124  54.306  0.00  0.00     0.022 A 
ENDBRANCH  25  26
ENDBRANCH   3  25
TORSDOF 8
ENDMDL
MODEL 2
REMARK VINA RESULT:      -9.0      1.667      2.632
REMARK  8 active torsions:
REMARK  status: ('A' for Active; 'I' for Inactive)
REMARK    1  A    between atoms: C_8  and  N_3 
REMARK    2  A    between atoms: S_7  and  C_5 
REMARK    3  A    between atoms: C_17  and  S_7 
REMARK    4  A    between atoms: C_20  and  C_8 
REMARK    5  A    between atoms: C_9  and  C_17 
REMARK       I    between atoms: N_12  and  C_9 
REMARK    6  A    between atoms: C_11  and  C_13 
REMARK    7  A    between atoms: C_13  and  N_12 
REMARK    8  A    between atoms: O_21  and  C_15 
ROOT
ATOM      1  N   UNL d   1      52.205  34.226  53.141  0.00  0.00    -0.185 NA
ATOM      2  C   UNL d   1      53.003  34.099  53.319  0.00  0.00     0.354 A 
ATOM      3  N   UNL d   1      53.303  33.328  53.330  0.00  0.00    -0.258 N 
ATOM      4  C   UNL d   1      52.019  32.828  52.991  0.00  0.00     0.040 A 
ATOM      5  C   UNL d   1      51.714  33.591  52.977  0.00  0.00     0.117 A 
ATOM      6  C   UNL d   1      52.811  32.693  53.166  0.00  0.00     0.070 A 
ATOM      7  O   UNL d   1      53.505  34.747  53.486  0.00  0.00    -0.244 OA
ATOM      8  C   UNL d   1      51.678  32.088  52.854  0.00  0.00     0.004 A 
ATOM      9  C   UNL d   1      52.971  31.889  53.142  0.00  0.00     0.018 A 
ATOM     10  C   UNL d   1      52.254  31.511  52.945  0.00  0.00     0.002 A 
ENDROOT
BRANCH   5  11
ATOM     11  S   UNL d   1      50.916  33.719  52.800  0.00  0.00    -0.062 SA
BRANCH  11  12
ATOM     12  C   UNL d   1      50.571  34.453  52.940  0.00  0.00     0.099 C 
BRANCH  12  13
ATOM     13  C   UNL d   1      49.857  34.648  52.566  0.00  0.00     0.286 C 
ATOM     14  N   UNL d   1      49.311  35.127  52.938  0.00  0.00    -0.206 NA
ATOM     15  O   UNL d   1      49.695  34.353  51.803  0.00  0.00    -0.265 OA
BRANCH  14  16
ATOM     16  C   UNL d   1      48.598  35.322  52.565  0.00  0.00     0.104 C 
BRANCH  16  17
ATOM     17  C   UNL d   1      48.039  35.781  52.950  0.00  0.00     0.042 A 
ATOM     18  C   UNL d   1      47.332  35.986  52.572  0.00  0.00     0.096 A 
ATOM     19  C   UNL d   1      46.771  36.448  52.962  0.00  0.00     0.024 A 
ATOM     20  C   UNL d   1      46.908  36.709  53.728  0.00  0.00     0.002 A 
ATOM     21  C   UNL d   1      47.613  36.510  54.117  0.00  0.00     0.000 A 
ATOM     22  C   UNL d   1      48.185  36.044  53.729  0.00  0.00     0.004 A 
BRANCH  18  23
ATOM     23  O   UNL d   1      47.185  35.725  51.797  0.00  0.00    -0.328 OA
ATOM     24  C   UNL d   1      46.423  35.809  51.481  0.00  0.00     0.181 C 
ENDBRANCH  18  23
ENDBRANCH  16  17
ENDBRANCH  14  16
ENDBRANCH  12  13
ENDBRANCH  11  12
ENDBRANCH   5  11
BRANCH   3  25
ATOM     25  C   UNL d   1      54.101  33.200  53.508  0.00  0.00     0.085 C 
BRANCH  25  26
ATOM     26  C   UNL d   1      54.372  33.304  54.283  0.00  0.00     0.021 A 
ATOM     27  C   UNL d   1      54.902  33.907  54.452  0.00  0.00     0.022 A 
ATOM     28  C   UNL d   1      55.167  34.004  55.229  0.00  0.00     0.099 A 
ATOM     29  N   UNL d   1      54.905  33.503  55.829  0.00  0.00    -0.242 NA
ATOM     30  C   UNL d   1      54.378  32.906  55.653  0.00  0.00     0.099 A 
ATOM     31  C   UNL d   1      54.102  32.798  54.869  0.00  0.00     0.022 A 
ENDBRANCH  25  26
ENDBRANCH   3  25
TORSDOF 8
ENDMDL
MODEL 3
REMARK VINA RESULT:      -8.9      1.501      6.707
REMARK  8 active torsions:
REMARK  status: ('A' for Active; 'I' for Inactive)
REMARK    1  A    between atoms: C_8  and  N_3 
REMARK    2  A    between atoms: S_7  and  C_5 
REMARK    3  A    between atoms: C_17  and  S_7 
REMARK    4  A    between atoms: C_20  and  C_8 
REMARK    5  A    between atoms: C_9  and  C_17 
REMARK       I    between atoms: N_12  and  C_9 
REMARK    6  A    between atoms: C_11  and  C_13 
REMARK    7  A    between atoms: C_13  and  N_12 
REMARK    8  A    between atoms: O_21  and  C_15 
ROOT
ATOM      1  N   UNL d   1      49.188  35.437  53.193  0.00  0.00    -0.185 NA
ATOM      2  C   UNL d   1      48.525  35.922  53.292  0.00  0.00     0.354 A 
ATOM      3  N   UNL d   1      47.948  35.954  52.700  0.00  0.00    -0.258 N 
ATOM      4  C   UNL d   1      48.694  35.028  51.926  0.00  0.00     0.040 A 
ATOM      5  C   UNL d   1      49.272  34.990  52.510  0.00  0.00     0.117 A 
ATOM      6  C   UNL d   1      48.032  35.508  52.018  0.00  0.00     0.070 A 
ATOM      7  O   UNL d   1      48.439  36.377  53.989  0.00  0.00    -0.244 OA
ATOM      8  C   UNL d   1      48.617  34.657  51.194  0.00  0.00     0.004 A 
ATOM      9  C   UNL d   1      47.546  35.444  51.360  0.00  0.00     0.018 A 
ATOM     10  C   UNL d   1      47.919  34.906  50.843  0.00  0.00     0.002 A 
ENDROOT
BRANCH   5  11
ATOM     11  S   UNL d   1      49.935  34.505  52.411  0.00  0.00    -0.062 SA
BRANCH  11  12
ATOM     12  C   UNL d   1      50.556  34.534  52.951  0.00  0.00     0.099 C 
BRANCH  12  13
ATOM     13  C   UNL d   1      51.247  34.101  52.803  0.00  0.00     0.286 C 
ATOM     14  N   UNL d   1      51.756  33.910  53.412  0.00  0.00    -0.206 NA
ATOM     15  O   UNL d   1      51.425  33.856  52.025  0.00  0.00    -0.265 OA
BRANCH  14  16
ATOM     16  C   UNL d   1      52.446  33.478  53.264  0.00  0.00     0.104 C 
BRANCH  16  17
ATOM     17  C   UNL d   1      53.012  33.385  53.851  0.00  0.00     0.042 A 
ATOM     18  C   UNL d   1      53.422  32.670  53.928  0.00  0.00     0.096 A 
ATOM     19  C   UNL d   1      53.990  32.579  54.518  0.00  0.00     0.024 A 
ATOM     20  C   UNL d   1      54.155  33.196  55.035  0.00  0.00     0.002 A 
ATOM     21  C   UNL d   1      53.750  33.916  54.967  0.00  0.00     0.000 A 
ATOM     22  C   UNL d   1      53.174  34.016  54.373  0.00  0.00     0.004 A 
BRANCH  18  23
ATOM     23  O   UNL d   1      53.261  32.041  53.409  0.00  0.00    -0.328 OA
ATOM     24  C   UNL d   1      53.610  31.302  53.552  0.00  0.00     0.181 C 
ENDBRANCH  18  23
ENDBRANCH  16  17
ENDBRANCH  14  16
ENDBRANCH  12  13
ENDBRANCH  11  12
ENDBRANCH   5  11
BRANCH   3  25
ATOM     25  C   UNL d   1      47.285  36.440  52.799  0.00  0.00     0.085 C 
BRANCH  25  26
ATOM     26  C   UNL d   1      46.638  36.168  53.239  0.00  0.00     0.021 A 
ATOM     27  C   UNL d   1      46.693  36.117  54.056  0.00  0.00     0.022 A 
ATOM     28  C   UNL d   1      46.042  35.844  54.487  0.00  0.00     0.099 A 
ATOM     29  N   UNL d   1      45.345  35.626  54.104  0.00  0.00    -0.242 NA
ATOM     30  C   UNL d   1      45.298  35.680  53.292  0.00  0.00     0.099 A 
ATOM     31  C   UNL d   1      45.952  35.955  52.844  0.00  0.00     0.022 A 
ENDBRANCH  25  26
ENDBRANCH   3  25
TORSDOF 8
ENDMDL
MODEL 4
REMARK VINA RESULT:      -7.8      1.677      6.617
REMARK  8 active torsions:
REMARK  status: ('A' for Active; 'I' for Inactive)
REMARK    1  A    between atoms: C_8  and  N_3 
REMARK    2  A    between atoms: S_7  and  C_5 
REMARK    3  A    between atoms: C_17  and  S_7 
REMARK    4  A    between atoms: C_20  and  C_8 
REMARK    5  A    between atoms: C_9  and  C_17 
REMARK       I    between atoms: N_12  and  C_9 
REMARK    6  A    between atoms: C_11  and  C_13 
REMARK    7  A    between atoms: C_13  and  N_12 
REMARK    8  A    between atoms: O_21  and  C_15 
ROOT
ATOM      1  N   UNL d   1      48.758  34.994  52.027  0.00  0.00    -0.185 NA
ATOM      2  C   UNL d   1      48.097  35.331  51.663  0.00  0.00     0.354 A 
ATOM      3  N   UNL d   1      47.644  35.891  52.071  0.00  0.00    -0.258 N 
ATOM      4  C   UNL d   1      48.511  35.771  53.189  0.00  0.00     0.040 A 
ATOM      5  C   UNL d   1      48.965  35.214  52.789  0.00  0.00     0.117 A 
ATOM      6  C   UNL d   1      47.851  36.111  52.833  0.00  0.00     0.070 A 
ATOM      7  O   UNL d   1      47.886  35.107  50.885  0.00  0.00    -0.244 OA
ATOM      8  C   UNL d   1      48.570  36.102  53.942  0.00  0.00     0.004 A 
ATOM      9  C   UNL d   1      47.500  36.645  53.347  0.00  0.00     0.018 A 
ATOM     10  C   UNL d   1      47.956  36.636  54.045  0.00  0.00     0.002 A 
ENDROOT
BRANCH   5  11
ATOM     11  S   UNL d   1      49.627  34.876  53.153  0.00  0.00    -0.062 SA
BRANCH  11  12
ATOM     12  C   UNL d   1      50.191  34.479  52.704  0.00  0.00     0.099 C 
BRANCH  12  13
ATOM     13  C   UNL d   1      50.958  34.381  53.004  0.00  0.00     0.286 C 
ATOM     14  N   UNL d   1      51.306  33.643  53.020  0.00  0.00    -0.206 NA
ATOM     15  O   UNL d   1      51.378  35.042  53.293  0.00  0.00    -0.265 OA
BRANCH  14  16
ATOM     16  C   UNL d   1      52.072  33.546  53.320  0.00  0.00     0.104 C 
BRANCH  16  17
ATOM     17  C   UNL d   1      52.439  32.814  53.290  0.00  0.00     0.042 A 
ATOM     18  C   UNL d   1      53.152  32.686  53.691  0.00  0.00     0.096 A 
ATOM     19  C   UNL d   1      53.520  31.949  53.660  0.00  0.00     0.024 A 
ATOM     20  C   UNL d   1      53.183  31.334  53.232  0.00  0.00     0.002 A 
ATOM     21  C   UNL d   1      52.469  31.450  52.827  0.00  0.00     0.000 A 
ATOM     22  C   UNL d   1      52.092  32.193  52.854  0.00  0.00     0.004 A 
BRANCH  18  23
ATOM     23  O   UNL d   1      53.500  33.303  54.126  0.00  0.00    -0.328 OA
ATOM     24  C   UNL d   1      54.177  33.144  54.579  0.00  0.00     0.181 C 
ENDBRANCH  18  23
ENDBRANCH  16  17
ENDBRANCH  14  16
ENDBRANCH  12  13
ENDBRANCH  11  12
ENDBRANCH   5  11
BRANCH   3  25
ATOM     25  C   UNL d   1      46.982  36.229  51.707  0.00  0.00     0.085 C 
BRANCH  25  26
ATOM     26  C   UNL d   1      46.279  35.797  51.649  0.00  0.00     0.021 A 
ATOM     27  C   UNL d   1      45.841  35.639  52.325  0.00  0.00     0.022 A 
ATOM     28  C   UNL d   1      45.140  35.206  52.258  0.00  0.00     0.099 A 
ATOM     29  N   UNL d   1      44.880  34.935  51.524  0.00  0.00    -0.242 NA
ATOM     30  C   UNL d   1      45.321  35.097  50.856  0.00  0.00     0.099 A 
ATOM     31  C   UNL d   1      46.034  35.535  50.912  0.00  0.00     0.022 A 
ENDBRANCH  25  26
ENDBRANCH   3  25
TORSDOF 8
ENDMDL
