MODEL 1
REMARK VINA RESULT:      -3.3      0.000      0.000
REMARK  4 active torsions:
REMARK  status: ('A' for Active; 'I' for Inactive)
REMARK    1  A    between atoms: N_7  and  C_1 
REMARK    2  A    between atoms: N_8  and  C_4 
REMARK    3  A    between atoms: N_11  and  C_5 
REMARK    4  A    between atoms: C_13  and  N_8 
ROOT
ATOM      1  C   UNL d   1      29.196  16.370 -23.724  0.00  0.00     0.201 A 
ATOM      2  N   UNL d   1      30.120  17.050 -24.607  0.00  0.00    -0.038 NA
ATOM      3  N   UNL d   1      30.588  16.126 -23.621  0.00  0.00    -0.036 NA
ATOM      4  C   UNL d   1      30.747  16.647 -24.229  0.00  0.00     0.753 A 
ATOM      5  C   UNL d   1      29.351  16.903 -24.345  0.00  0.00     0.206 A 
ATOM      6  C   UNL d   1      29.813  15.985 -23.365  0.00  0.00     0.227 A 
ATOM      7  N   UNL d   1      29.666  15.453 -22.746  0.00  0.00    -0.125 N 
ENDROOT
BRANCH   4   8
ATOM      8  N   UNL d   1      31.516  16.795 -24.490  0.00  0.00    -0.059 NA
BRANCH   8   9
ATOM      9  C   UNL d   1      31.946  17.409 -24.140  0.00  0.00     0.100 A 
ATOM     10  C   UNL d   1      32.032  18.141 -24.523  0.00  0.00     0.020 A 
ATOM     11  C   UNL d   1      32.452  18.752 -24.188  0.00  0.00     0.008 A 
ATOM     12  C   UNL d   1      32.808  18.656 -23.450  0.00  0.00     0.035 A 
ATOM     13  C   UNL d   1      32.733  17.936 -23.055  0.00  0.00     0.008 A 
ATOM     14 BR   UNL d   1      33.241  19.275 -23.097  0.00  0.00    -0.049 Br
ATOM     15  C   UNL d   1      32.303  17.321 -23.405  0.00  0.00     0.020 A 
ENDBRANCH   8   9
ENDBRANCH   4   8
BRANCH   5  16
ATOM     16  N   UNL d   1      28.702  17.304 -24.719  0.00  0.00    -0.222 NA
ATOM     17  C   UNL d   1      28.840  18.035 -25.097  0.00  0.00     0.121 C 
ENDBRANCH   5  16
BRANCH   1  18
ATOM     18  N   UNL d   1      28.394  16.238 -23.477  0.00  0.00    -0.107 N 
ATOM     19  O   UNL d   1      28.019  16.820 -23.038  0.00  0.00    -0.531 OA
ATOM     20  O   UNL d   1      28.019  15.553 -23.674  0.00  0.00    -0.531 OA
ENDBRANCH   1  18
TORSDOF 4
ENDMDL
MODEL 2
REMARK VINA RESULT:      -2.9      1.610      2.716
REMARK  4 active torsions:
REMARK  status: ('A' for Active; 'I' for Inactive)
REMARK    1  A    between atoms: N_7  and  C_1 
REMARK    2  A    between atoms: N_8  and  C_4 
REMARK    3  A    between atoms: N_11  and  C_5 
REMARK    4  A    between atoms: C_13  and  N_8 
ROOT
ATOM      1  C   UNL d   1      31.114  17.192 -24.180  0.00  0.00     0.201 A 
ATOM      2  N   UNL d   1      32.423  17.169 -23.562  0.00  0.00    -0.038 NA
ATOM      3  N   UNL d   1      31.940  18.343 -24.219  0.00  0.00    -0.036 NA
ATOM      4  C   UNL d   1      32.530  17.961 -23.804  0.00  0.00     0.753 A 
ATOM      5  C   UNL d   1      31.712  16.797 -23.757  0.00  0.00     0.206 A 
ATOM      6  C   UNL d   1      31.229  17.962 -24.410  0.00  0.00     0.227 A 
ATOM      7  N   UNL d   1      30.639  18.363 -24.832  0.00  0.00    -0.125 N 
ENDROOT
BRANCH   4   8
ATOM      8  N   UNL d   1      33.241  18.333 -23.609  0.00  0.00    -0.059 NA
BRANCH   8   9
ATOM      9  C   UNL d   1      33.232  18.948 -23.055  0.00  0.00     0.100 A 
ATOM     10  C   UNL d   1      33.229  18.787 -22.240  0.00  0.00     0.020 A 
ATOM     11  C   UNL d   1      33.220  19.384 -21.687  0.00  0.00     0.008 A 
ATOM     12  C   UNL d   1      33.213  20.173 -21.928  0.00  0.00     0.035 A 
ATOM     13  C   UNL d   1      33.216  20.352 -22.733  0.00  0.00     0.008 A 
ATOM     14 BR   UNL d   1      33.204  20.793 -21.370  0.00  0.00    -0.049 Br
ATOM     15  C   UNL d   1      33.225  19.737 -23.287  0.00  0.00     0.020 A 
ENDBRANCH   8   9
ENDBRANCH   4   8
BRANCH   5  16
ATOM     16  N   UNL d   1      31.586  15.991 -23.518  0.00  0.00    -0.222 NA
ATOM     17  C   UNL d   1      32.247  15.509 -23.353  0.00  0.00     0.121 C 
ENDBRANCH   5  16
BRANCH   1  18
ATOM     18  N   UNL d   1      30.393  16.784 -24.366  0.00  0.00    -0.107 N 
ATOM     19  O   UNL d   1      29.743  16.895 -23.880  0.00  0.00    -0.531 OA
ATOM     20  O   UNL d   1      30.359  16.299 -25.009  0.00  0.00    -0.531 OA
ENDBRANCH   1  18
TORSDOF 4
ENDMDL
MODEL 3
REMARK VINA RESULT:      -2.8      2.571      4.061
REMARK  4 active torsions:
REMARK  status: ('A' for Active; 'I' for Inactive)
REMARK    1  A    between atoms: N_7  and  C_1 
REMARK    2  A    between atoms: N_8  and  C_4 
REMARK    3  A    between atoms: N_11  and  C_5 
REMARK    4  A    between atoms: C_13  and  N_8 
ROOT
ATOM      1  C   UNL d   1      32.168  17.762 -24.127  0.00  0.00     0.201 A 
ATOM      2  N   UNL d   1      31.892  16.381 -23.792  0.00  0.00    -0.038 NA
ATOM      3  N   UNL d   1      31.104  17.075 -24.763  0.00  0.00    -0.036 NA
ATOM      4  C   UNL d   1      31.263  16.394 -24.342  0.00  0.00     0.753 A 
ATOM      5  C   UNL d   1      32.335  17.071 -23.695  0.00  0.00     0.206 A 
ATOM      6  C   UNL d   1      31.555  17.763 -24.659  0.00  0.00     0.227 A 
ATOM      7  N   UNL d   1      31.382  18.448 -25.093  0.00  0.00    -0.125 N 
ENDROOT
BRANCH   4   8
ATOM      8  N   UNL d   1      30.819  15.705 -24.440  0.00  0.00    -0.059 NA
BRANCH   8   9
ATOM      9  C   UNL d   1      30.049  15.679 -24.138  0.00  0.00     0.100 A 
ATOM     10  C   UNL d   1      29.394  15.818 -24.630  0.00  0.00     0.020 A 
ATOM     11  C   UNL d   1      28.633  15.796 -24.344  0.00  0.00     0.008 A 
ATOM     12  C   UNL d   1      28.493  15.632 -23.548  0.00  0.00     0.035 A 
ATOM     13  C   UNL d   1      29.130  15.492 -23.045  0.00  0.00     0.008 A 
ATOM     14 BR   UNL d   1      27.716  15.607 -23.244  0.00  0.00    -0.049 Br
ATOM     15  C   UNL d   1      29.901  15.517 -23.346  0.00  0.00     0.020 A 
ENDBRANCH   8   9
ENDBRANCH   4   8
BRANCH   5  16
ATOM     16  N   UNL d   1      32.979  17.075 -23.140  0.00  0.00    -0.222 NA
ATOM     17  C   UNL d   1      33.239  16.353 -22.815  0.00  0.00     0.121 C 
ENDBRANCH   5  16
BRANCH   1  18
ATOM     18  N   UNL d   1      32.642  18.457 -24.006  0.00  0.00    -0.107 N 
ATOM     19  O   UNL d   1      32.475  18.938 -23.364  0.00  0.00    -0.531 OA
ATOM     20  O   UNL d   1      33.240  18.631 -24.518  0.00  0.00    -0.531 OA
ENDBRANCH   1  18
TORSDOF 4
ENDMDL
MODEL 4
REMARK VINA RESULT:      -2.0      3.799      4.931
REMARK  4 active torsions:
REMARK  status: ('A' for Active; 'I' for Inactive)
REMARK    1  A    between atoms: N_7  and  C_1 
REMARK    2  A    between atoms: N_8  and  C_4 
REMARK    3  A    between atoms: N_11  and  C_5 
REMARK    4  A    between atoms: C_13  and  N_8 
ROOT
ATOM      1  C   UNL d   1      32.787  20.907 -21.623  0.00  0.00     0.201 A 
ATOM      2  N   UNL d   1      32.970  20.668 -23.039  0.00  0.00    -0.038 NA
ATOM      3  N   UNL d   1      33.057  19.598 -22.094  0.00  0.00    -0.036 NA
ATOM      4  C   UNL d   1      33.091  19.859 -22.867  0.00  0.00     0.753 A 
ATOM      5  C   UNL d   1      32.820  21.180 -22.409  0.00  0.00     0.206 A 
ATOM      6  C   UNL d   1      32.905  20.120 -21.468  0.00  0.00     0.227 A 
ATOM      7  N   UNL d   1      32.874  19.840 -20.688  0.00  0.00    -0.125 N 
ENDROOT
BRANCH   4   8
ATOM      8  N   UNL d   1      33.241  19.347 -23.497  0.00  0.00    -0.059 NA
BRANCH   8   9
ATOM      9  C   UNL d   1      32.757  18.684 -23.597  0.00  0.00     0.100 A 
ATOM     10  C   UNL d   1      32.900  17.984 -23.173  0.00  0.00     0.020 A 
ATOM     11  C   UNL d   1      32.430  17.326 -23.264  0.00  0.00     0.008 A 
ATOM     12  C   UNL d   1      31.792  17.340 -23.786  0.00  0.00     0.035 A 
ATOM     13  C   UNL d   1      31.634  18.026 -24.215  0.00  0.00     0.008 A 
ATOM     14 BR   UNL d   1      31.304  16.671 -23.886  0.00  0.00    -0.049 Br
ATOM     15  C   UNL d   1      32.119  18.690 -24.115  0.00  0.00     0.020 A 
ENDBRANCH   8   9
ENDBRANCH   4   8
BRANCH   5  16
ATOM     16  N   UNL d   1      32.696  22.006 -22.566  0.00  0.00    -0.222 NA
ATOM     17  C   UNL d   1      32.921  22.317 -23.306  0.00  0.00     0.121 C 
ENDBRANCH   5  16
BRANCH   1  18
ATOM     18  N   UNL d   1      32.631  21.458 -20.995  0.00  0.00    -0.107 N 
ATOM     19  O   UNL d   1      31.854  21.575 -20.761  0.00  0.00    -0.531 OA
ATOM     20  O   UNL d   1      33.240  21.851 -20.643  0.00  0.00    -0.531 OA
ENDBRANCH   1  18
TORSDOF 4
ENDMDL
MODEL 5
REMARK VINA RESULT:      -0.9      3.352      4.564
REMARK  4 active torsions:
REMARK  status: ('A' for Active; 'I' for Inactive)
REMARK    1  A    between atoms: N_7  and  C_1 
REMARK    2  A    between atoms: N_8  and  C_4 
REMARK    3  A    between atoms: N_11  and  C_5 
REMARK    4  A    between atoms: C_13  and  N_8 
ROOT
ATOM      1  C   UNL d   1      32.625  19.034 -23.910  0.00  0.00     0.201 A 
ATOM      2  N   UNL d   1      32.745  18.907 -22.473  0.00  0.00    -0.038 NA
ATOM      3  N   UNL d   1      33.102  20.122 -23.136  0.00  0.00    -0.036 NA
ATOM      4  C   UNL d   1      33.029  19.692 -22.446  0.00  0.00     0.753 A 
ATOM      5  C   UNL d   1      32.547  18.591 -23.209  0.00  0.00     0.206 A 
ATOM      6  C   UNL d   1      32.901  19.796 -23.872  0.00  0.00     0.227 A 
ATOM      7  N   UNL d   1      32.981  20.244 -24.565  0.00  0.00    -0.125 N 
ENDROOT
BRANCH   4   8
ATOM      8  N   UNL d   1      33.227  20.008 -21.710  0.00  0.00    -0.059 NA
BRANCH   8   9
ATOM      9  C   UNL d   1      32.904  20.737 -21.488  0.00  0.00     0.100 A 
ATOM     10  C   UNL d   1      33.155  21.442 -21.848  0.00  0.00     0.020 A 
ATOM     11  C   UNL d   1      32.843  22.164 -21.638  0.00  0.00     0.008 A 
ATOM     12  C   UNL d   1      32.263  22.212 -21.053  0.00  0.00     0.035 A 
ATOM     13  C   UNL d   1      32.002  21.522 -20.684  0.00  0.00     0.008 A 
ATOM     14 BR   UNL d   1      31.938  22.946 -20.829  0.00  0.00    -0.049 Br
ATOM     15  C   UNL d   1      32.325  20.793 -20.906  0.00  0.00     0.020 A 
ENDBRANCH   8   9
ENDBRANCH   4   8
BRANCH   5  16
ATOM     16  N   UNL d   1      32.257  17.793 -23.254  0.00  0.00    -0.222 NA
ATOM     17  C   UNL d   1      32.610  17.206 -22.778  0.00  0.00     0.121 C 
ENDBRANCH   5  16
BRANCH   1  18
ATOM     18  N   UNL d   1      32.413  18.682 -24.653  0.00  0.00    -0.107 N 
ATOM     19  O   UNL d   1      31.814  19.026 -25.094  0.00  0.00    -0.531 OA
ATOM     20  O   UNL d   1      32.800  18.024 -24.912  0.00  0.00    -0.531 OA
ENDBRANCH   1  18
TORSDOF 4
ENDMDL
