MODEL 1
REMARK VINA RESULT:      32.4      0.000      0.000
REMARK  4 active torsions:
REMARK  status: ('A' for Active; 'I' for Inactive)
REMARK    1  A    between atoms: C_2  and  S_1 
REMARK    2  A    between atoms: C_5  and  S_1 
REMARK    3  A    between atoms: C_7  and  C_5 
REMARK       I    between atoms: N_11  and  C_7 
REMARK    4  A    between atoms: C_14  and  N_11 
ROOT
ATOM      1  S   UNL d   1     -55.729 -99.529 -44.285  0.00  0.00     0.217 S 
ATOM      2  O   UNL d   1     -55.090 -99.377 -44.793  0.00  0.00    -0.217 OA
ATOM      3  O   UNL d   1     -56.371 -99.682 -43.775  0.00  0.00    -0.217 OA
ENDROOT
BRANCH   1   4
ATOM      4  C   UNL d   1     -55.368-100.229 -44.035  0.00  0.00     0.109 A 
ATOM      5  C   UNL d   1     -54.989-100.348 -43.313  0.00  0.00     0.110 A 
ATOM      6  N   UNL d   1     -54.711-101.121 -43.294  0.00  0.00    -0.243 NA
ATOM      7  C   UNL d   1     -54.919-101.482 -44.008  0.00  0.00     0.082 A 
ATOM      8  C   UNL d   1     -55.324-100.928 -44.460  0.00  0.00     0.030 A 
ATOM      9  C   UNL d   1     -54.790-102.244 -44.299  0.00  0.00     0.019 A 
ATOM     10  C   UNL d   1     -55.604-101.131 -45.210  0.00  0.00     0.002 A 
ATOM     11  C   UNL d   1     -55.476-101.892 -45.501  0.00  0.00     0.000 A 
ATOM     12  C   UNL d   1     -55.071-102.443 -45.047  0.00  0.00     0.002 A 
ENDBRANCH   1   4
BRANCH   1  13
ATOM     13  C   UNL d   1     -56.101 -98.820 -44.534  0.00  0.00     0.161 C 
BRANCH  13  14
ATOM     14  C   UNL d   1     -56.922 -98.810 -44.643  0.00  0.00     0.291 C 
ATOM     15  N   UNL d   1     -57.414 -98.828 -43.981  0.00  0.00    -0.207 NA
ATOM     16  O   UNL d   1     -57.245 -98.782 -45.394  0.00  0.00    -0.264 OA
BRANCH  15  17
ATOM     17  C   UNL d   1     -58.236 -98.819 -44.085  0.00  0.00     0.085 A 
ATOM     18  C   UNL d   1     -58.564 -98.859 -44.840  0.00  0.00     0.019 A 
ATOM     19  C   UNL d   1     -59.386 -98.849 -44.939  0.00  0.00     0.002 A 
ATOM     20  C   UNL d   1     -59.886 -98.799 -44.279  0.00  0.00     0.000 A 
ATOM     21  C   UNL d   1     -59.552 -98.758 -43.524  0.00  0.00     0.002 A 
ATOM     22  C   UNL d   1     -58.732 -98.768 -43.430  0.00  0.00     0.019 A 
ENDBRANCH  15  17
ENDBRANCH  13  14
ENDBRANCH   1  13
TORSDOF 4
ENDMDL
