MODEL 1
REMARK VINA RESULT:      -1.5      0.000      0.000
REMARK  4 active torsions:
REMARK  status: ('A' for Active; 'I' for Inactive)
REMARK    1  A    between atoms: N_7  and  S_1 
REMARK    2  A    between atoms: C_8  and  S_1 
REMARK    3  A    between atoms: C_17  and  N_2 
REMARK    4  A    between atoms: C_14  and  N_7 
ROOT
ATOM      1  N   UNL d   1      33.033  20.961 -22.181  0.00  0.00    -0.273 N 
ATOM      2  C   UNL d   1      33.120  21.581 -23.075  0.00  0.00     0.265 A 
ATOM      3  C   UNL d   1      32.919  20.230 -22.475  0.00  0.00     0.067 A 
ATOM      4  C   UNL d   1      32.921  20.290 -23.313  0.00  0.00     0.021 A 
ATOM      5  C   UNL d   1      33.030  21.025 -23.673  0.00  0.00     0.058 A 
ATOM      6  C   UNL d   1      32.702  18.865 -23.416  0.00  0.00     0.105 A 
ATOM      7  C   UNL d   1      32.813  19.609 -23.774  0.00  0.00     0.014 A 
ATOM      8  C   UNL d   1      32.809  19.493 -22.149  0.00  0.00     0.018 A 
ATOM      9  C   UNL d   1      32.698  18.789 -22.612  0.00  0.00     0.014 A 
ATOM     10  O   UNL d   1      33.239  22.372 -23.227  0.00  0.00    -0.267 OA
ATOM     11  C   UNL d   1      33.032  21.082 -24.478  0.00  0.00     0.005 A 
ATOM     12  C   UNL d   1      32.815  19.666 -24.579  0.00  0.00     0.001 A 
ATOM     13  C   UNL d   1      32.924  20.405 -24.938  0.00  0.00     0.000 A 
ENDROOT
BRANCH   6  14
ATOM     14  S   UNL d   1      32.595  18.187 -23.842  0.00  0.00     0.287 S 
ATOM     15  O   UNL d   1      33.241  17.851 -23.513  0.00  0.00    -0.198 OA
ATOM     16  O   UNL d   1      31.922  18.524 -24.192  0.00  0.00    -0.198 OA
BRANCH  14  17
ATOM     17  N   UNL d   1      32.455  17.501 -24.298  0.00  0.00    -0.139 NA
BRANCH  17  18
ATOM     18  C   UNL d   1      31.838  16.994 -24.102  0.00  0.00     0.175 A 
ATOM     19  N   UNL d   1      31.931  16.422 -23.500  0.00  0.00    -0.225 NA
ATOM     20  C   UNL d   1      31.295  15.915 -23.314  0.00  0.00     0.101 A 
ATOM     21  C   UNL d   1      30.582  15.984 -23.724  0.00  0.00     0.021 A 
ATOM     22  C   UNL d   1      30.482  16.541 -24.314  0.00  0.00     0.005 A 
ATOM     23  C   UNL d   1      31.118  17.050 -24.503  0.00  0.00     0.040 A 
ENDBRANCH  17  18
ENDBRANCH  14  17
ENDBRANCH   6  14
BRANCH   1  24
ATOM     24  C   UNL d   1      33.056  21.070 -21.368  0.00  0.00     0.083 C 
ATOM     25  C   UNL d   1      32.927  21.838 -21.055  0.00  0.00     0.021 C 
ENDBRANCH   1  24
TORSDOF 4
ENDMDL
MODEL 2
REMARK VINA RESULT:      -1.0      0.822      1.124
REMARK  4 active torsions:
REMARK  status: ('A' for Active; 'I' for Inactive)
REMARK    1  A    between atoms: N_7  and  S_1 
REMARK    2  A    between atoms: C_8  and  S_1 
REMARK    3  A    between atoms: C_17  and  N_2 
REMARK    4  A    between atoms: C_14  and  N_7 
ROOT
ATOM      1  N   UNL d   1      32.899  21.355 -21.274  0.00  0.00    -0.273 N 
ATOM      2  C   UNL d   1      33.081  22.098 -22.053  0.00  0.00     0.265 A 
ATOM      3  C   UNL d   1      32.875  20.669 -21.677  0.00  0.00     0.067 A 
ATOM      4  C   UNL d   1      33.000  20.846 -22.489  0.00  0.00     0.021 A 
ATOM      5  C   UNL d   1      33.117  21.628 -22.726  0.00  0.00     0.058 A 
ATOM      6  C   UNL d   1      32.886  19.442 -22.813  0.00  0.00     0.105 A 
ATOM      7  C   UNL d   1      33.004  20.233 -23.048  0.00  0.00     0.014 A 
ATOM      8  C   UNL d   1      32.763  19.890 -21.474  0.00  0.00     0.018 A 
ATOM      9  C   UNL d   1      32.765  19.254 -22.037  0.00  0.00     0.014 A 
ATOM     10  O   UNL d   1      33.174  22.907 -22.078  0.00  0.00    -0.267 OA
ATOM     11  C   UNL d   1      33.236  21.798 -23.506  0.00  0.00     0.005 A 
ATOM     12  C   UNL d   1      33.124  20.403 -23.827  0.00  0.00     0.001 A 
ATOM     13  C   UNL d   1      33.241  21.190 -24.063  0.00  0.00     0.000 A 
ENDROOT
BRANCH   6  14
ATOM     14  S   UNL d   1      32.886  18.827 -23.337  0.00  0.00     0.287 S 
ATOM     15  O   UNL d   1      33.241  18.346 -22.807  0.00  0.00    -0.198 OA
ATOM     16  O   UNL d   1      32.518  19.318 -23.897  0.00  0.00    -0.198 OA
BRANCH  14  17
ATOM     17  N   UNL d   1      32.870  18.214 -23.903  0.00  0.00    -0.139 NA
BRANCH  17  18
ATOM     18  C   UNL d   1      32.371  17.568 -23.798  0.00  0.00     0.175 A 
ATOM     19  N   UNL d   1      31.563  17.617 -24.006  0.00  0.00    -0.225 NA
ATOM     20  C   UNL d   1      31.070  16.953 -23.893  0.00  0.00     0.101 A 
ATOM     21  C   UNL d   1      31.384  16.258 -23.578  0.00  0.00     0.021 A 
ATOM     22  C   UNL d   1      32.173  16.202 -23.372  0.00  0.00     0.005 A 
ATOM     23  C   UNL d   1      32.670  16.865 -23.484  0.00  0.00     0.040 A 
ENDBRANCH  17  18
ENDBRANCH  14  17
ENDBRANCH   6  14
BRANCH   1  24
ATOM     24  C   UNL d   1      32.793  21.350 -20.460  0.00  0.00     0.083 C 
ATOM     25  C   UNL d   1      32.838  22.074 -20.037  0.00  0.00     0.021 C 
ENDBRANCH   1  24
TORSDOF 4
ENDMDL
MODEL 3
REMARK VINA RESULT:      -0.2      1.316      2.348
REMARK  4 active torsions:
REMARK  status: ('A' for Active; 'I' for Inactive)
REMARK    1  A    between atoms: N_7  and  S_1 
REMARK    2  A    between atoms: C_8  and  S_1 
REMARK    3  A    between atoms: C_17  and  N_2 
REMARK    4  A    between atoms: C_14  and  N_7 
ROOT
ATOM      1  N   UNL d   1      32.955  22.318 -21.815  0.00  0.00    -0.273 N 
ATOM      2  C   UNL d   1      33.030  21.998 -20.774  0.00  0.00     0.265 A 
ATOM      3  C   UNL d   1      33.001  21.634 -22.220  0.00  0.00     0.067 A 
ATOM      4  C   UNL d   1      33.083  21.012 -21.661  0.00  0.00     0.021 A 
ATOM      5  C   UNL d   1      33.102  21.184 -20.854  0.00  0.00     0.058 A 
ATOM      6  C   UNL d   1      33.125  20.049 -22.738  0.00  0.00     0.105 A 
ATOM      7  C   UNL d   1      33.144  20.228 -21.924  0.00  0.00     0.014 A 
ATOM      8  C   UNL d   1      32.986  21.434 -23.008  0.00  0.00     0.018 A 
ATOM      9  C   UNL d   1      33.048  20.634 -23.289  0.00  0.00     0.014 A 
ATOM     10  O   UNL d   1      33.027  22.369 -20.048  0.00  0.00    -0.267 OA
ATOM     11  C   UNL d   1      33.180  20.587 -20.317  0.00  0.00     0.005 A 
ATOM     12  C   UNL d   1      33.222  19.630 -21.387  0.00  0.00     0.001 A 
ATOM     13  C   UNL d   1      33.241  19.806 -20.577  0.00  0.00     0.000 A 
ENDROOT
BRANCH   6  14
ATOM     14  S   UNL d   1      33.183  19.294 -23.020  0.00  0.00     0.287 S 
ATOM     15  O   UNL d   1      33.222  19.555 -23.774  0.00  0.00    -0.198 OA
ATOM     16  O   UNL d   1      33.143  19.010 -22.241  0.00  0.00    -0.198 OA
BRANCH  14  17
ATOM     17  N   UNL d   1      33.241  18.502 -23.277  0.00  0.00    -0.139 NA
BRANCH  17  18
ATOM     18  C   UNL d   1      32.631  18.164 -23.712  0.00  0.00     0.175 A 
ATOM     19  N   UNL d   1      32.506  18.379 -24.511  0.00  0.00    -0.225 NA
ATOM     20  C   UNL d   1      31.882  18.026 -24.938  0.00  0.00     0.101 A 
ATOM     21  C   UNL d   1      31.396  17.471 -24.570  0.00  0.00     0.021 A 
ATOM     22  C   UNL d   1      31.510  17.254 -23.790  0.00  0.00     0.005 A 
ATOM     23  C   UNL d   1      32.135  17.606 -23.359  0.00  0.00     0.040 A 
ENDBRANCH  17  18
ENDBRANCH  14  17
ENDBRANCH   6  14
BRANCH   1  24
ATOM     24  C   UNL d   1      32.872  23.025 -22.223  0.00  0.00     0.083 C 
ATOM     25  C   UNL d   1      32.527  23.684 -21.834  0.00  0.00     0.021 C 
ENDBRANCH   1  24
TORSDOF 4
ENDMDL
MODEL 4
REMARK VINA RESULT:       0.6      1.493      4.483
REMARK  4 active torsions:
REMARK  status: ('A' for Active; 'I' for Inactive)
REMARK    1  A    between atoms: N_7  and  S_1 
REMARK    2  A    between atoms: C_8  and  S_1 
REMARK    3  A    between atoms: C_17  and  N_2 
REMARK    4  A    between atoms: C_14  and  N_7 
ROOT
ATOM      1  N   UNL d   1      29.991  16.683 -24.064  0.00  0.00    -0.273 N 
ATOM      2  C   UNL d   1      30.571  16.097 -23.348  0.00  0.00     0.265 A 
ATOM      3  C   UNL d   1      30.515  17.224 -24.324  0.00  0.00     0.067 A 
ATOM      4  C   UNL d   1      31.244  17.083 -23.929  0.00  0.00     0.021 A 
ATOM      5  C   UNL d   1      31.303  16.466 -23.384  0.00  0.00     0.058 A 
ATOM      6  C   UNL d   1      31.842  18.190 -24.639  0.00  0.00     0.105 A 
ATOM      7  C   UNL d   1      31.898  17.566 -24.090  0.00  0.00     0.014 A 
ATOM      8  C   UNL d   1      30.486  17.838 -24.855  0.00  0.00     0.018 A 
ATOM      9  C   UNL d   1      31.151  18.340 -25.028  0.00  0.00     0.014 A 
ATOM     10  O   UNL d   1      30.425  15.458 -22.863  0.00  0.00    -0.267 OA
ATOM     11  C   UNL d   1      32.003  16.331 -23.005  0.00  0.00     0.005 A 
ATOM     12  C   UNL d   1      32.598  17.431 -23.711  0.00  0.00     0.001 A 
ATOM     13  C   UNL d   1      32.656  16.811 -23.164  0.00  0.00     0.000 A 
ENDROOT
BRANCH   6  14
ATOM     14  S   UNL d   1      32.465  18.674 -24.814  0.00  0.00     0.287 S 
ATOM     15  O   UNL d   1      32.989  18.134 -24.546  0.00  0.00    -0.198 OA
ATOM     16  O   UNL d   1      31.931  19.244 -25.096  0.00  0.00    -0.198 OA
BRANCH  14  17
ATOM     17  N   UNL d   1      33.085  19.199 -25.007  0.00  0.00    -0.139 NA
BRANCH  17  18
ATOM     18  C   UNL d   1      33.137  19.931 -24.635  0.00  0.00     0.175 A 
ATOM     19  N   UNL d   1      33.138  19.986 -23.801  0.00  0.00    -0.225 NA
ATOM     20  C   UNL d   1      33.191  20.737 -23.440  0.00  0.00     0.101 A 
ATOM     21  C   UNL d   1      33.240  21.414 -23.908  0.00  0.00     0.021 A 
ATOM     22  C   UNL d   1      33.240  21.370 -24.724  0.00  0.00     0.005 A 
ATOM     23  C   UNL d   1      33.187  20.619 -25.089  0.00  0.00     0.040 A 
ENDBRANCH  17  18
ENDBRANCH  14  17
ENDBRANCH   6  14
BRANCH   1  24
ATOM     24  C   UNL d   1      29.225  16.688 -24.358  0.00  0.00     0.083 C 
ATOM     25  C   UNL d   1      28.607  16.359 -23.895  0.00  0.00     0.021 C 
ENDBRANCH   1  24
TORSDOF 4
ENDMDL
MODEL 5
REMARK VINA RESULT:       0.8      1.393      4.500
REMARK  4 active torsions:
REMARK  status: ('A' for Active; 'I' for Inactive)
REMARK    1  A    between atoms: N_7  and  S_1 
REMARK    2  A    between atoms: C_8  and  S_1 
REMARK    3  A    between atoms: C_17  and  N_2 
REMARK    4  A    between atoms: C_14  and  N_7 
ROOT
ATOM      1  N   UNL d   1      31.750  17.971 -24.296  0.00  0.00    -0.273 N 
ATOM      2  C   UNL d   1      32.151  17.119 -23.742  0.00  0.00     0.265 A 
ATOM      3  C   UNL d   1      31.976  18.597 -23.858  0.00  0.00     0.067 A 
ATOM      4  C   UNL d   1      32.404  18.303 -23.196  0.00  0.00     0.021 A 
ATOM      5  C   UNL d   1      32.515  17.490 -23.107  0.00  0.00     0.058 A 
ATOM      6  C   UNL d   1      32.600  19.654 -22.724  0.00  0.00     0.105 A 
ATOM      7  C   UNL d   1      32.710  18.833 -22.637  0.00  0.00     0.014 A 
ATOM      8  C   UNL d   1      31.882  19.402 -23.919  0.00  0.00     0.018 A 
ATOM      9  C   UNL d   1      32.192  19.954 -23.353  0.00  0.00     0.014 A 
ATOM     10  O   UNL d   1      32.149  16.310 -23.836  0.00  0.00    -0.267 OA
ATOM     11  C   UNL d   1      32.926  17.208 -22.472  0.00  0.00     0.005 A 
ATOM     12  C   UNL d   1      33.121  18.551 -22.002  0.00  0.00     0.001 A 
ATOM     13  C   UNL d   1      33.232  17.734 -21.914  0.00  0.00     0.000 A 
ENDROOT
BRANCH   6  14
ATOM     14  S   UNL d   1      32.888  20.191 -22.193  0.00  0.00     0.287 S 
ATOM     15  O   UNL d   1      33.241  20.610 -22.775  0.00  0.00    -0.198 OA
ATOM     16  O   UNL d   1      32.527  19.765 -21.579  0.00  0.00    -0.198 OA
BRANCH  14  17
ATOM     17  N   UNL d   1      33.171  20.727 -21.618  0.00  0.00    -0.139 NA
BRANCH  17  18
ATOM     18  C   UNL d   1      32.799  21.453 -21.513  0.00  0.00     0.175 A 
ATOM     19  N   UNL d   1      32.974  22.098 -22.015  0.00  0.00    -0.225 NA
ATOM     20  C   UNL d   1      32.588  22.828 -21.894  0.00  0.00     0.101 A 
ATOM     21  C   UNL d   1      32.039  22.905 -21.283  0.00  0.00     0.021 A 
ATOM     22  C   UNL d   1      31.862  22.280 -20.787  0.00  0.00     0.005 A 
ATOM     23  C   UNL d   1      32.248  21.547 -20.905  0.00  0.00     0.040 A 
ENDBRANCH  17  18
ENDBRANCH  14  17
ENDBRANCH   6  14
BRANCH   1  24
ATOM     24  C   UNL d   1      31.319  18.093 -24.984  0.00  0.00     0.083 C 
ATOM     25  C   UNL d   1      30.511  17.867 -25.005  0.00  0.00     0.021 C 
ENDBRANCH   1  24
TORSDOF 4
ENDMDL
MODEL 6
REMARK VINA RESULT:       1.3      1.709      4.596
REMARK  4 active torsions:
REMARK  status: ('A' for Active; 'I' for Inactive)
REMARK    1  A    between atoms: N_7  and  S_1 
REMARK    2  A    between atoms: C_8  and  S_1 
REMARK    3  A    between atoms: C_17  and  N_2 
REMARK    4  A    between atoms: C_14  and  N_7 
ROOT
ATOM      1  N   UNL d   1      28.849  16.170 -24.035  0.00  0.00    -0.273 N 
ATOM      2  C   UNL d   1      28.405  17.031 -24.538  0.00  0.00     0.265 A 
ATOM      3  C   UNL d   1      29.625  16.350 -24.015  0.00  0.00     0.067 A 
ATOM      4  C   UNL d   1      29.722  17.100 -24.383  0.00  0.00     0.021 A 
ATOM      5  C   UNL d   1      29.064  17.499 -24.681  0.00  0.00     0.058 A 
ATOM      6  C   UNL d   1      31.145  17.032 -24.144  0.00  0.00     0.105 A 
ATOM      7  C   UNL d   1      30.479  17.433 -24.444  0.00  0.00     0.014 A 
ATOM      8  C   UNL d   1      30.290  15.980 -23.730  0.00  0.00     0.018 A 
ATOM      9  C   UNL d   1      31.071  16.312 -23.787  0.00  0.00     0.014 A 
ATOM     10  O   UNL d   1      27.653  17.254 -24.759  0.00  0.00    -0.267 OA
ATOM     11  C   UNL d   1      29.157  18.219 -25.035  0.00  0.00     0.005 A 
ATOM     12  C   UNL d   1      30.572  18.152 -24.797  0.00  0.00     0.001 A 
ATOM     13  C   UNL d   1      29.910  18.552 -25.096  0.00  0.00     0.000 A 
ENDROOT
BRANCH   6  14
ATOM     14  S   UNL d   1      31.893  17.335 -24.190  0.00  0.00     0.287 S 
ATOM     15  O   UNL d   1      31.910  17.474 -23.404  0.00  0.00    -0.198 OA
ATOM     16  O   UNL d   1      31.888  17.197 -25.009  0.00  0.00    -0.198 OA
BRANCH  14  17
ATOM     17  N   UNL d   1      32.665  17.642 -24.274  0.00  0.00    -0.139 NA
BRANCH  17  18
ATOM     18  C   UNL d   1      32.856  18.375 -23.953  0.00  0.00     0.175 A 
ATOM     19  N   UNL d   1      32.877  19.058 -24.434  0.00  0.00    -0.225 NA
ATOM     20  C   UNL d   1      33.072  19.794 -24.092  0.00  0.00     0.101 A 
ATOM     21  C   UNL d   1      33.241  19.840 -23.286  0.00  0.00     0.021 A 
ATOM     22  C   UNL d   1      33.223  19.177 -22.808  0.00  0.00     0.005 A 
ATOM     23  C   UNL d   1      33.028  18.438 -23.147  0.00  0.00     0.040 A 
ENDBRANCH  17  18
ENDBRANCH  14  17
ENDBRANCH   6  14
BRANCH   1  24
ATOM     24  C   UNL d   1      28.590  15.462 -23.711  0.00  0.00     0.083 C 
ATOM     25  C   UNL d   1      27.977  15.474 -23.138  0.00  0.00     0.021 C 
ENDBRANCH   1  24
TORSDOF 4
ENDMDL
