MODEL 1
REMARK VINA RESULT:       9.7      0.000      0.000
REMARK  4 active torsions:
REMARK  status: ('A' for Active; 'I' for Inactive)
REMARK    1  A    between atoms: N_2  and  S_1 
REMARK    2  A    between atoms: C_4  and  C_3 
REMARK       I    between atoms: N_9  and  C_4 
REMARK    3  A    between atoms: C_15  and  N_9 
REMARK    4  A    between atoms: C_10  and  C_15 
ROOT
ATOM      1  N   UNL d   1      14.988  13.389  -0.392  0.00  0.00    -0.233 N 
ATOM      2  C   UNL d   1      14.341  12.324  -1.078  0.00  0.00     0.076 A 
ATOM      3  C   UNL d   1      14.418  13.125  -0.925  0.00  0.00     0.096 A 
ATOM      4  C   UNL d   1      15.481  12.848  -0.014  0.00  0.00     0.091 A 
ATOM      5  C   UNL d   1      14.833  11.779  -0.700  0.00  0.00     0.008 A 
ATOM      6  C   UNL d   1      15.401  12.044  -0.170  0.00  0.00     0.020 A 
ENDROOT
BRANCH   2   7
ATOM      7  C   UNL d   1      13.767  12.061  -1.614  0.00  0.00     0.281 C 
ATOM      8  O   UNL d   1      13.034  11.805  -1.341  0.00  0.00    -0.265 OA
ATOM      9  N   UNL d   1      13.928  12.054  -2.423  0.00  0.00    -0.206 NA
BRANCH   9  10
ATOM     10  C   UNL d   1      13.357  11.793  -2.946  0.00  0.00     0.102 C 
BRANCH  10  11
ATOM     11  C   UNL d   1      13.443  11.952  -3.751  0.00  0.00     0.021 C 
ATOM     12  C   UNL d   1      12.818  11.803  -4.271  0.00  0.00     0.002 C 
ENDBRANCH  10  11
ENDBRANCH   9  10
ENDBRANCH   2   7
BRANCH   1  13
ATOM     13  S   UNL d   1      15.066  14.195  -0.238  0.00  0.00     0.252 S 
ATOM     14  O   UNL d   1      14.252  14.250  -0.115  0.00  0.00    -0.204 OA
ATOM     15  O   UNL d   1      15.877  14.140  -0.360  0.00  0.00    -0.204 OA
ATOM     16  C   UNL d   1      15.144  15.002  -0.083  0.00  0.00     0.164 C 
ENDBRANCH   1  13
TORSDOF 4
ENDMDL
