MODEL 1
REMARK VINA RESULT:     115.6      0.000      0.000
REMARK  5 active torsions:
REMARK  status: ('A' for Active; 'I' for Inactive)
REMARK    1  A    between atoms: O_8  and  C_2 
REMARK    2  A    between atoms: C_9  and  C_5 
REMARK    3  A    between atoms: C_14  and  O_8 
REMARK    4  A    between atoms: N_11  and  C_9 
REMARK    5  A    between atoms: O_21  and  C_18 
ROOT
ATOM      1  C   UNL d   1      61.043  47.282  50.691  0.00  0.00     0.108 A 
ATOM      2  C   UNL d   1      60.941  45.648  50.388  0.00  0.00     0.161 A 
ATOM      3  C   UNL d   1      61.491  46.942  50.074  0.00  0.00     0.064 A 
ATOM      4  C   UNL d   1      61.439  46.136  49.927  0.00  0.00     0.222 A 
ATOM      5  C   UNL d   1      61.093  48.098  50.843  0.00  0.00     0.079 A 
ATOM      6  O   UNL d   1      60.543  46.810  51.159  0.00  0.00    -0.305 OA
ATOM      7  C   UNL d   1      60.490  45.989  51.009  0.00  0.00     0.126 A 
ATOM      8  C   UNL d   1      61.985  47.433  49.619  0.00  0.00     0.009 A 
ATOM      9  C   UNL d   1      61.587  48.575  50.384  0.00  0.00     0.199 A 
ATOM     10  O   UNL d   1      61.881  45.796  49.318  0.00  0.00    -0.284 OA
ATOM     11  C   UNL d   1      62.033  48.242  49.772  0.00  0.00     0.042 A 
ATOM     12  O   UNL d   1      61.634  49.384  50.538  0.00  0.00    -0.286 OA
ATOM     13  C   UNL d   1      59.997  45.513  51.467  0.00  0.00     0.029 C 
ENDROOT
BRANCH   2  14
ATOM     14  O   UNL d   1      60.891  44.840  50.238  0.00  0.00    -0.302 OA
BRANCH  14  15
ATOM     15  C   UNL d   1      61.304  44.305  50.711  0.00  0.00     0.102 A 
ATOM     16  C   UNL d   1      61.923  43.864  50.388  0.00  0.00     0.049 A 
ATOM     17  C   UNL d   1      62.335  43.329  50.862  0.00  0.00     0.096 A 
ATOM     18  C   UNL d   1      62.130  43.235  51.656  0.00  0.00     0.024 A 
ATOM     19  C   UNL d   1      61.502  43.684  51.978  0.00  0.00     0.004 A 
ATOM     20  C   UNL d   1      61.097  44.214  51.501  0.00  0.00     0.025 A 
BRANCH  17  21
ATOM     21  O   UNL d   1      62.954  42.889  50.539  0.00  0.00    -0.328 OA
ATOM     22  C   UNL d   1      63.158  42.162  50.872  0.00  0.00     0.181 C 
ENDBRANCH  17  21
ENDBRANCH  14  15
ENDBRANCH   2  14
BRANCH   5  23
ATOM     23  C   UNL d   1      60.652  48.427  51.448  0.00  0.00     0.086 C 
BRANCH  23  24
ATOM     24  N   UNL d   1      59.965  48.854  51.273  0.00  0.00    -0.299 N 
ATOM     25  C   UNL d   1      59.539  49.212  51.885  0.00  0.00     0.107 A 
ATOM     26  C   UNL d   1      58.853  49.638  51.713  0.00  0.00     0.142 A 
ATOM     27  O   UNL d   1      58.593  49.706  50.929  0.00  0.00    -0.300 OA
ATOM     28  C   UNL d   1      59.022  49.346  50.320  0.00  0.00     0.142 A 
ATOM     29  C   UNL d   1      59.712  48.917  50.492  0.00  0.00     0.107 A 
ENDBRANCH  23  24
ENDBRANCH   5  23
TORSDOF 5
ENDMDL
