MODEL 1
REMARK VINA RESULT:      -5.9      0.000      0.000
REMARK  7 active torsions:
REMARK  status: ('A' for Active; 'I' for Inactive)
REMARK    1  A    between atoms: C_23  and  C_3 
REMARK    2  A    between atoms: S_18  and  C_5 
REMARK    3  A    between atoms: C_11  and  C_16 
REMARK       I    between atoms: N_14  and  C_11 
REMARK    4  A    between atoms: C_17  and  N_14 
REMARK    5  A    between atoms: C_16  and  C_21 
REMARK    6  A    between atoms: C_21  and  S_18 
REMARK    7  A    between atoms: O_24  and  C_22 
ROOT
ATOM      1  C   UNL d   1     -46.134  12.256  23.072  0.00  0.00     0.092 A 
ATOM      2  C   UNL d   1     -47.224  13.174  23.039  0.00  0.00     0.057 A 
ATOM      3  C   UNL d   1     -46.910  12.448  23.270  0.00  0.00     0.016 A 
ATOM      4  N   UNL d   1     -45.987  13.514  22.414  0.00  0.00    -0.239 NA
ATOM      5  C   UNL d   1     -45.673  12.790  22.644  0.00  0.00     0.120 A 
ATOM      6  C   UNL d   1     -46.763  13.707  22.611  0.00  0.00     0.081 A 
ATOM      7  C   UNL d   1     -48.000  13.365  23.237  0.00  0.00     0.193 A 
ATOM      8  C   UNL d   1     -45.813  11.520  23.305  0.00  0.00     0.103 C 
ATOM      9  N   UNL d   1     -45.502  10.784  23.542  0.00  0.00    -0.191 NA
ATOM     10  C   UNL d   1     -47.859  14.629  22.578  0.00  0.00     0.042 A 
ATOM     11  C   UNL d   1     -48.321  14.096  23.006  0.00  0.00     0.019 A 
ATOM     12  C   UNL d   1     -47.077  14.432  22.381  0.00  0.00    -0.003 A 
ATOM     13  O   UNL d   1     -48.461  12.832  23.665  0.00  0.00    -0.287 OA
ATOM     14  C   UNL d   1     -47.634  15.315  22.166  0.00  0.00     0.009 C 
ATOM     15  C   UNL d   1     -48.634  14.830  22.771  0.00  0.00     0.009 C 
ENDROOT
BRANCH   3  16
ATOM     16  C   UNL d   1     -47.371  11.915  23.697  0.00  0.00     0.001 C 
ATOM     17  C   UNL d   1     -47.848  11.371  23.302  0.00  0.00     0.000 C 
ENDBRANCH   3  16
BRANCH   5  18
ATOM     18  S   UNL d   1     -44.888  12.589  22.447  0.00  0.00    -0.067 SA
BRANCH  18  19
ATOM     19  C   UNL d   1     -44.457  13.064  21.927  0.00  0.00     0.042 C 
BRANCH  19  20
ATOM     20  C   UNL d   1     -43.780  12.764  21.561  0.00  0.00     0.070 C 
BRANCH  20  21
ATOM     21  C   UNL d   1     -43.139  13.275  21.394  0.00  0.00     0.280 C 
ATOM     22  N   UNL d   1     -42.445  12.964  21.077  0.00  0.00    -0.208 NA
ATOM     23  O   UNL d   1     -43.209  14.082  21.549  0.00  0.00    -0.265 OA
BRANCH  22  24
ATOM     24  C   UNL d   1     -41.800  13.475  20.909  0.00  0.00     0.087 A 
ATOM     25  C   UNL d   1     -41.670  13.723  20.133  0.00  0.00     0.043 A 
ATOM     26  C   UNL d   1     -41.036  14.225  19.973  0.00  0.00     0.096 A 
ATOM     27  C   UNL d   1     -40.528  14.484  20.578  0.00  0.00     0.024 A 
ATOM     28  C   UNL d   1     -40.663  14.234  21.353  0.00  0.00     0.004 A 
ATOM     29  C   UNL d   1     -41.298  13.729  21.525  0.00  0.00     0.019 A 
BRANCH  26  30
ATOM     30  O   UNL d   1     -40.906  14.473  19.197  0.00  0.00    -0.328 OA
ATOM     31  C   UNL d   1     -40.460  15.156  19.052  0.00  0.00     0.181 C 
ENDBRANCH  26  30
ENDBRANCH  22  24
ENDBRANCH  20  21
ENDBRANCH  19  20
ENDBRANCH  18  19
ENDBRANCH   5  18
TORSDOF 7
ENDMDL
MODEL 2
REMARK VINA RESULT:      -5.4      1.365      2.084
REMARK  7 active torsions:
REMARK  status: ('A' for Active; 'I' for Inactive)
REMARK    1  A    between atoms: C_23  and  C_3 
REMARK    2  A    between atoms: S_18  and  C_5 
REMARK    3  A    between atoms: C_11  and  C_16 
REMARK       I    between atoms: N_14  and  C_11 
REMARK    4  A    between atoms: C_17  and  N_14 
REMARK    5  A    between atoms: C_16  and  C_21 
REMARK    6  A    between atoms: C_21  and  S_18 
REMARK    7  A    between atoms: O_24  and  C_22 
ROOT
ATOM      1  C   UNL d   1     -48.290  12.503  23.203  0.00  0.00     0.092 A 
ATOM      2  C   UNL d   1     -49.179  13.617  23.215  0.00  0.00     0.057 A 
ATOM      3  C   UNL d   1     -49.031  12.821  23.369  0.00  0.00     0.016 A 
ATOM      4  N   UNL d   1     -47.845  13.774  22.731  0.00  0.00    -0.239 NA
ATOM      5  C   UNL d   1     -47.697  12.979  22.885  0.00  0.00     0.120 A 
ATOM      6  C   UNL d   1     -48.586  14.093  22.896  0.00  0.00     0.081 A 
ATOM      7  C   UNL d   1     -49.920  13.935  23.380  0.00  0.00     0.193 A 
ATOM      8  C   UNL d   1     -48.138  11.695  23.359  0.00  0.00     0.103 C 
ATOM      9  N   UNL d   1     -47.997  10.889  23.518  0.00  0.00    -0.191 NA
ATOM     10  C   UNL d   1     -49.479  15.214  22.907  0.00  0.00     0.042 A 
ATOM     11  C   UNL d   1     -50.073  14.737  23.226  0.00  0.00     0.019 A 
ATOM     12  C   UNL d   1     -48.733  14.888  22.742  0.00  0.00    -0.003 A 
ATOM     13  O   UNL d   1     -50.513  13.459  23.698  0.00  0.00    -0.287 OA
ATOM     14  C   UNL d   1     -49.090  15.884  22.606  0.00  0.00     0.009 C 
ATOM     15  C   UNL d   1     -50.217  15.541  23.069  0.00  0.00     0.009 C 
ENDROOT
BRANCH   3  16
ATOM     16  C   UNL d   1     -49.624  12.345  23.687  0.00  0.00     0.001 C 
ATOM     17  C   UNL d   1     -50.152  11.955  23.189  0.00  0.00     0.000 C 
ENDBRANCH   3  16
BRANCH   5  18
ATOM     18  S   UNL d   1     -46.949  12.651  22.720  0.00  0.00    -0.067 SA
BRANCH  18  19
ATOM     19  C   UNL d   1     -46.331  13.134  22.464  0.00  0.00     0.042 C 
BRANCH  19  20
ATOM     20  C   UNL d   1     -45.828  12.875  21.862  0.00  0.00     0.070 C 
BRANCH  20  21
ATOM     21  C   UNL d   1     -45.003  12.996  21.933  0.00  0.00     0.280 C 
ATOM     22  N   UNL d   1     -44.498  12.689  21.358  0.00  0.00    -0.208 NA
ATOM     23  O   UNL d   1     -44.706  13.422  22.574  0.00  0.00    -0.265 OA
BRANCH  22  24
ATOM     24  C   UNL d   1     -43.669  12.810  21.427  0.00  0.00     0.087 A 
ATOM     25  C   UNL d   1     -43.326  13.476  21.082  0.00  0.00     0.043 A 
ATOM     26  C   UNL d   1     -42.513  13.591  21.152  0.00  0.00     0.096 A 
ATOM     27  C   UNL d   1     -42.036  13.048  21.563  0.00  0.00     0.024 A 
ATOM     28  C   UNL d   1     -42.383  12.384  21.906  0.00  0.00     0.004 A 
ATOM     29  C   UNL d   1     -43.200  12.259  21.842  0.00  0.00     0.019 A 
BRANCH  26  30
ATOM     30  O   UNL d   1     -42.170  14.257  20.806  0.00  0.00    -0.328 OA
ATOM     31  C   UNL d   1     -41.367  14.416  20.928  0.00  0.00     0.181 C 
ENDBRANCH  26  30
ENDBRANCH  22  24
ENDBRANCH  20  21
ENDBRANCH  19  20
ENDBRANCH  18  19
ENDBRANCH   5  18
TORSDOF 7
ENDMDL
MODEL 3
REMARK VINA RESULT:      -5.0      1.824      6.998
REMARK  7 active torsions:
REMARK  status: ('A' for Active; 'I' for Inactive)
REMARK    1  A    between atoms: C_23  and  C_3 
REMARK    2  A    between atoms: S_18  and  C_5 
REMARK    3  A    between atoms: C_11  and  C_16 
REMARK       I    between atoms: N_14  and  C_11 
REMARK    4  A    between atoms: C_17  and  N_14 
REMARK    5  A    between atoms: C_16  and  C_21 
REMARK    6  A    between atoms: C_21  and  S_18 
REMARK    7  A    between atoms: O_24  and  C_22 
ROOT
ATOM      1  C   UNL d   1     -40.062  14.398  20.680  0.00  0.00     0.092 A 
ATOM      2  C   UNL d   1     -39.832  14.980  19.400  0.00  0.00     0.057 A 
ATOM      3  C   UNL d   1     -39.584  14.836  20.172  0.00  0.00     0.016 A 
ATOM      4  N   UNL d   1     -41.033  14.248  19.645  0.00  0.00    -0.239 NA
ATOM      5  C   UNL d   1     -40.786  14.104  20.416  0.00  0.00     0.120 A 
ATOM      6  C   UNL d   1     -40.556  14.686  19.136  0.00  0.00     0.081 A 
ATOM      7  C   UNL d   1     -39.354  15.418  18.892  0.00  0.00     0.193 A 
ATOM      8  C   UNL d   1     -39.813  14.250  21.464  0.00  0.00     0.103 C 
ATOM      9  N   UNL d   1     -39.556  14.109  22.245  0.00  0.00    -0.191 NA
ATOM     10  C   UNL d   1     -40.325  15.271  17.848  0.00  0.00     0.042 A 
ATOM     11  C   UNL d   1     -39.600  15.565  18.112  0.00  0.00     0.019 A 
ATOM     12  C   UNL d   1     -40.803  14.830  18.364  0.00  0.00    -0.003 A 
ATOM     13  O   UNL d   1     -38.631  15.711  19.155  0.00  0.00    -0.287 OA
ATOM     14  C   UNL d   1     -40.967  15.106  17.347  0.00  0.00     0.009 C 
ATOM     15  C   UNL d   1     -39.854  15.708  17.333  0.00  0.00     0.009 C 
ENDROOT
BRANCH   3  16
ATOM     16  C   UNL d   1     -38.861  15.129  20.436  0.00  0.00     0.001 C 
ATOM     17  C   UNL d   1     -38.831  15.835  20.859  0.00  0.00     0.000 C 
ENDBRANCH   3  16
BRANCH   5  18
ATOM     18  S   UNL d   1     -41.265  13.661  20.936  0.00  0.00    -0.067 SA
BRANCH  18  19
ATOM     19  C   UNL d   1     -42.086  13.667  20.849  0.00  0.00     0.042 C 
BRANCH  19  20
ATOM     20  C   UNL d   1     -42.530  13.015  21.094  0.00  0.00     0.070 C 
BRANCH  20  21
ATOM     21  C   UNL d   1     -43.258  13.135  21.488  0.00  0.00     0.280 C 
ATOM     22  N   UNL d   1     -43.798  12.515  21.539  0.00  0.00    -0.208 NA
ATOM     23  O   UNL d   1     -43.426  13.872  21.820  0.00  0.00    -0.265 OA
BRANCH  22  24
ATOM     24  C   UNL d   1     -44.530  12.634  21.934  0.00  0.00     0.087 A 
ATOM     25  C   UNL d   1     -44.730  12.152  22.573  0.00  0.00     0.043 A 
ATOM     26  C   UNL d   1     -45.449  12.272  22.958  0.00  0.00     0.096 A 
ATOM     27  C   UNL d   1     -45.973  12.869  22.713  0.00  0.00     0.024 A 
ATOM     28  C   UNL d   1     -45.769  13.349  22.074  0.00  0.00     0.004 A 
ATOM     29  C   UNL d   1     -45.048  13.236  21.680  0.00  0.00     0.019 A 
BRANCH  26  30
ATOM     30  O   UNL d   1     -45.648  11.789  23.597  0.00  0.00    -0.328 OA
ATOM     31  C   UNL d   1     -46.417  11.487  23.660  0.00  0.00     0.181 C 
ENDBRANCH  26  30
ENDBRANCH  22  24
ENDBRANCH  20  21
ENDBRANCH  19  20
ENDBRANCH  18  19
ENDBRANCH   5  18
TORSDOF 7
ENDMDL
MODEL 4
REMARK VINA RESULT:      -4.9      2.351      3.709
REMARK  7 active torsions:
REMARK  status: ('A' for Active; 'I' for Inactive)
REMARK    1  A    between atoms: C_23  and  C_3 
REMARK    2  A    between atoms: S_18  and  C_5 
REMARK    3  A    between atoms: C_11  and  C_16 
REMARK       I    between atoms: N_14  and  C_11 
REMARK    4  A    between atoms: C_17  and  N_14 
REMARK    5  A    between atoms: C_16  and  C_21 
REMARK    6  A    between atoms: C_21  and  S_18 
REMARK    7  A    between atoms: O_24  and  C_22 
ROOT
ATOM      1  C   UNL d   1     -49.329  12.419  23.251  0.00  0.00     0.092 A 
ATOM      2  C   UNL d   1     -49.214  13.765  22.799  0.00  0.00     0.057 A 
ATOM      3  C   UNL d   1     -49.681  13.109  22.972  0.00  0.00     0.016 A 
ATOM      4  N   UNL d   1     -48.046  13.040  23.184  0.00  0.00    -0.239 NA
ATOM      5  C   UNL d   1     -48.512  12.384  23.357  0.00  0.00     0.120 A 
ATOM      6  C   UNL d   1     -48.397  13.731  22.905  0.00  0.00     0.081 A 
ATOM      7  C   UNL d   1     -49.566  14.455  22.520  0.00  0.00     0.193 A 
ATOM      8  C   UNL d   1     -49.801  11.751  23.428  0.00  0.00     0.103 C 
ATOM      9  N   UNL d   1     -50.280  11.091  23.601  0.00  0.00    -0.191 NA
ATOM     10  C   UNL d   1     -48.281  15.085  22.451  0.00  0.00     0.042 A 
ATOM     11  C   UNL d   1     -49.098  15.119  22.345  0.00  0.00     0.019 A 
ATOM     12  C   UNL d   1     -47.931  14.386  22.732  0.00  0.00    -0.003 A 
ATOM     13  O   UNL d   1     -50.382  14.489  22.415  0.00  0.00    -0.287 OA
ATOM     14  C   UNL d   1     -47.482  15.315  22.463  0.00  0.00     0.009 C 
ATOM     15  C   UNL d   1     -48.623  15.779  22.171  0.00  0.00     0.009 C 
ENDROOT
BRANCH   3  16
ATOM     16  C   UNL d   1     -50.497  13.143  22.867  0.00  0.00     0.001 C 
ATOM     17  C   UNL d   1     -50.959  13.613  23.362  0.00  0.00     0.000 C 
ENDBRANCH   3  16
BRANCH   5  18
ATOM     18  S   UNL d   1     -48.162  11.682  23.640  0.00  0.00    -0.067 SA
BRANCH  18  19
ATOM     19  C   UNL d   1     -47.360  11.537  23.511  0.00  0.00     0.042 C 
BRANCH  19  20
ATOM     20  C   UNL d   1     -47.041  10.799  23.698  0.00  0.00     0.070 C 
BRANCH  20  21
ATOM     21  C   UNL d   1     -46.236  10.642  23.530  0.00  0.00     0.280 C 
ATOM     22  N   UNL d   1     -45.699  11.267  23.507  0.00  0.00    -0.208 NA
ATOM     23  O   UNL d   1     -45.990   9.867  23.389  0.00  0.00    -0.265 OA
BRANCH  22  24
ATOM     24  C   UNL d   1     -44.890  11.112  23.339  0.00  0.00     0.087 A 
ATOM     25  C   UNL d   1     -44.471  11.628  22.850  0.00  0.00     0.043 A 
ATOM     26  C   UNL d   1     -43.679  11.472  22.687  0.00  0.00     0.096 A 
ATOM     27  C   UNL d   1     -43.296  10.807  23.007  0.00  0.00     0.024 A 
ATOM     28  C   UNL d   1     -43.719  10.295  23.496  0.00  0.00     0.004 A 
ATOM     29  C   UNL d   1     -44.517  10.442  23.666  0.00  0.00     0.019 A 
BRANCH  26  30
ATOM     30  O   UNL d   1     -43.260  11.988  22.197  0.00  0.00    -0.328 OA
ATOM     31  C   UNL d   1     -43.665  12.444  21.637  0.00  0.00     0.181 C 
ENDBRANCH  26  30
ENDBRANCH  22  24
ENDBRANCH  20  21
ENDBRANCH  19  20
ENDBRANCH  18  19
ENDBRANCH   5  18
TORSDOF 7
ENDMDL
