MODEL 1
REMARK VINA RESULT:      -2.7      0.000      0.000
REMARK  4 active torsions:
REMARK  status: ('A' for Active; 'I' for Inactive)
REMARK    1  A    between atoms: C_6  and  C_1 
REMARK    2  A    between atoms: C_10  and  C_2 
REMARK       I    between atoms: N_14  and  C_6 
REMARK    3  A    between atoms: C_8  and  C_15 
REMARK    4  A    between atoms: C_21  and  N_14 
ROOT
ATOM      1  C   UNL d   1      59.045  -0.483  29.859  0.00  0.00     0.283 C 
ATOM      2  N   UNL d   1      59.204  -0.290  30.644  0.00  0.00    -0.208 NA
ATOM      3  O   UNL d   1      58.267  -0.540  29.588  0.00  0.00    -0.265 OA
ENDROOT
BRANCH   2   4
ATOM      4  C   UNL d   1      58.575  -0.154  31.161  0.00  0.00     0.085 A 
ATOM      5  C   UNL d   1      58.660   0.350  31.808  0.00  0.00     0.019 A 
ATOM      6  C   UNL d   1      58.028   0.483  32.323  0.00  0.00     0.003 A 
ATOM      7  C   UNL d   1      57.307   0.109  32.187  0.00  0.00     0.020 A 
ATOM      8  C   UNL d   1      57.208  -0.398  31.542  0.00  0.00     0.003 A 
ATOM      9  C   UNL d   1      57.837  -0.534  31.025  0.00  0.00     0.019 A 
BRANCH   7  10
ATOM     10  C   UNL d   1      56.673   0.239  32.699  0.00  0.00     0.118 A 
ATOM     11  N   UNL d   1      55.880   0.291  32.485  0.00  0.00    -0.059 NA
ATOM     12  C   UNL d   1      55.444   0.425  33.170  0.00  0.00     0.735 A 
ATOM     13  N   UNL d   1      54.632   0.521  33.286  0.00  0.00    -0.059 NA
ATOM     14  N   UNL d   1      55.959   0.456  33.799  0.00  0.00    -0.136 N 
ATOM     15  C   UNL d   1      54.348   0.650  34.048  0.00  0.00     0.119 A 
ATOM     16  C   UNL d   1      54.867   0.682  34.688  0.00  0.00     0.041 A 
ATOM     17  C   UNL d   1      55.671   0.586  34.568  0.00  0.00     0.100 A 
ATOM     18  C   UNL d   1      56.720   0.341  33.509  0.00  0.00     0.118 A 
ENDBRANCH   7  10
ENDBRANCH   2   4
BRANCH   1  19
ATOM     19  C   UNL d   1      59.667  -0.621  29.333  0.00  0.00     0.102 A 
ATOM     20  C   UNL d   1      59.800  -1.312  28.912  0.00  0.00     0.116 A 
ATOM     21  N   UNL d   1      60.485  -1.202  28.455  0.00  0.00    -0.126 NA
ATOM     22  O   UNL d   1      60.763  -0.439  28.604  0.00  0.00    -0.211 OA
ATOM     23  C   UNL d   1      60.260  -0.077  29.146  0.00  0.00     0.131 A 
ATOM     24  C   UNL d   1      60.330   0.682  29.448  0.00  0.00     0.029 C 
BRANCH  20  25
ATOM     25  C   UNL d   1      59.351  -1.988  28.931  0.00  0.00     0.031 A 
ATOM     26  C   UNL d   1      59.663  -2.681  29.232  0.00  0.00     0.059 A 
ATOM     27 CL   UNL d   1      60.431  -2.701  29.516  0.00  0.00    -0.082 Cl
ATOM     28  C   UNL d   1      59.198  -3.365  29.248  0.00  0.00     0.011 A 
ATOM     29  C   UNL d   1      58.430  -3.345  28.964  0.00  0.00     0.001 A 
ATOM     30  C   UNL d   1      58.111  -2.650  28.660  0.00  0.00     0.000 A 
ATOM     31  C   UNL d   1      58.575  -1.966  28.644  0.00  0.00     0.002 A 
ENDBRANCH  20  25
ENDBRANCH   1  19
TORSDOF 4
ENDMDL
MODEL 2
REMARK VINA RESULT:      -0.1      1.186      2.234
REMARK  4 active torsions:
REMARK  status: ('A' for Active; 'I' for Inactive)
REMARK    1  A    between atoms: C_6  and  C_1 
REMARK    2  A    between atoms: C_10  and  C_2 
REMARK       I    between atoms: N_14  and  C_6 
REMARK    3  A    between atoms: C_8  and  C_15 
REMARK    4  A    between atoms: C_21  and  N_14 
ROOT
ATOM      1  C   UNL d   1      58.465  -1.120  30.251  0.00  0.00     0.283 C 
ATOM      2  N   UNL d   1      57.666  -1.288  30.356  0.00  0.00    -0.208 NA
ATOM      3  O   UNL d   1      58.880  -0.679  30.813  0.00  0.00    -0.265 OA
ENDROOT
BRANCH   2   4
ATOM      4  C   UNL d   1      57.280  -1.011  31.031  0.00  0.00     0.085 A 
ATOM      5  C   UNL d   1      57.168  -0.203  31.152  0.00  0.00     0.019 A 
ATOM      6  C   UNL d   1      56.782   0.071  31.829  0.00  0.00     0.003 A 
ATOM      7  C   UNL d   1      56.507  -0.470  32.387  0.00  0.00     0.020 A 
ATOM      8  C   UNL d   1      56.613  -1.281  32.277  0.00  0.00     0.003 A 
ATOM      9  C   UNL d   1      56.998  -1.559  31.603  0.00  0.00     0.019 A 
BRANCH   7  10
ATOM     10  C   UNL d   1      56.121  -0.200  33.064  0.00  0.00     0.118 A 
ATOM     11  N   UNL d   1      56.472  -0.042  33.792  0.00  0.00    -0.059 NA
ATOM     12  C   UNL d   1      55.881   0.214  34.305  0.00  0.00     0.735 A 
ATOM     13  N   UNL d   1      55.914   0.445  35.097  0.00  0.00    -0.059 NA
ATOM     14  N   UNL d   1      55.175   0.215  33.901  0.00  0.00    -0.136 N 
ATOM     15  C   UNL d   1      55.222   0.679  35.475  0.00  0.00     0.119 A 
ATOM     16  C   UNL d   1      54.504   0.682  35.070  0.00  0.00     0.041 A 
ATOM     17  C   UNL d   1      54.476   0.451  34.285  0.00  0.00     0.100 A 
ATOM     18  C   UNL d   1      55.321  -0.041  33.133  0.00  0.00     0.118 A 
ENDBRANCH   7  10
ENDBRANCH   2   4
BRANCH   1  19
ATOM     19  C   UNL d   1      58.861  -1.393  29.579  0.00  0.00     0.102 A 
ATOM     20  C   UNL d   1      59.603  -1.152  29.323  0.00  0.00     0.116 A 
ATOM     21  N   UNL d   1      59.779  -1.571  28.628  0.00  0.00    -0.126 NA
ATOM     22  O   UNL d   1      59.138  -2.065  28.467  0.00  0.00    -0.211 OA
ATOM     23  C   UNL d   1      58.569  -1.958  29.052  0.00  0.00     0.131 A 
ATOM     24  C   UNL d   1      57.845  -2.338  29.108  0.00  0.00     0.029 C 
BRANCH  20  25
ATOM     25  C   UNL d   1      60.086  -0.605  29.678  0.00  0.00     0.031 A 
ATOM     26  C   UNL d   1      60.196   0.130  29.337  0.00  0.00     0.059 A 
ATOM     27 CL   UNL d   1      59.820   0.320  28.634  0.00  0.00    -0.082 Cl
ATOM     28  C   UNL d   1      60.689   0.682  29.705  0.00  0.00     0.011 A 
ATOM     29  C   UNL d   1      61.065   0.491  30.407  0.00  0.00     0.001 A 
ATOM     30  C   UNL d   1      60.958  -0.247  30.756  0.00  0.00     0.000 A 
ATOM     31  C   UNL d   1      60.465  -0.799  30.388  0.00  0.00     0.002 A 
ENDBRANCH  20  25
ENDBRANCH   1  19
TORSDOF 4
ENDMDL
