MODEL 1
REMARK VINA RESULT:      -9.2      0.000      0.000
REMARK  4 active torsions:
REMARK  status: ('A' for Active; 'I' for Inactive)
REMARK    1  A    between atoms: N_5  and  C_1 
REMARK    2  A    between atoms: S_2  and  N_5 
REMARK    3  A    between atoms: C_7  and  S_2 
REMARK    4  A    between atoms: N_10  and  C_3 
ROOT
ATOM      1  C   UNL d   1     -48.497  13.847  22.820  0.00  0.00     0.146 A 
ATOM      2  C   UNL d   1     -48.570  13.029  22.746  0.00  0.00     0.105 A 
ATOM      3  C   UNL d   1     -47.890  12.564  22.730  0.00  0.00     0.208 A 
ATOM      4  C   UNL d   1     -47.752  14.202  22.878  0.00  0.00     0.215 A 
ATOM      5  C   UNL d   1     -47.150  12.907  22.787  0.00  0.00     0.043 A 
ATOM      6  C   UNL d   1     -47.078  13.726  22.861  0.00  0.00     0.044 A 
ATOM      7  O   UNL d   1     -47.962  11.746  22.656  0.00  0.00    -0.285 OA
ATOM      8  O   UNL d   1     -47.696  15.022  22.951  0.00  0.00    -0.285 OA
ATOM      9  C   UNL d   1     -46.471  12.444  22.771  0.00  0.00     0.003 A 
ATOM     10  C   UNL d   1     -46.338  14.069  22.918  0.00  0.00     0.003 A 
ATOM     11  C   UNL d   1     -45.726  12.795  22.829  0.00  0.00     0.000 A 
ATOM     12  C   UNL d   1     -45.659  13.606  22.902  0.00  0.00     0.000 A 
ENDROOT
BRANCH   1  13
ATOM     13  N   UNL d   1     -49.176  14.323  22.836  0.00  0.00    -0.154 NA
BRANCH  13  14
ATOM     14  S   UNL d   1     -49.289  14.913  22.270  0.00  0.00     0.291 S 
ATOM     15  O   UNL d   1     -48.743  14.542  21.775  0.00  0.00    -0.198 OA
ATOM     16  O   UNL d   1     -49.399  15.500  21.702  0.00  0.00    -0.198 OA
BRANCH  14  17
ATOM     17  C   UNL d   1     -49.834  15.281  22.768  0.00  0.00     0.135 A 
ATOM     18  S   UNL d   1     -49.789  15.663  23.494  0.00  0.00    -0.073 SA
ATOM     19  C   UNL d   1     -50.552  15.913  23.697  0.00  0.00     0.036 A 
ATOM     20  C   UNL d   1     -51.064  15.685  23.097  0.00  0.00     0.008 A 
ATOM     21  C   UNL d   1     -50.623  15.292  22.517  0.00  0.00     0.020 A 
ENDBRANCH  14  17
ENDBRANCH  13  14
ENDBRANCH   1  13
BRANCH   2  22
ATOM     22  N   UNL d   1     -49.317  12.686  22.689  0.00  0.00    -0.201 NA
ATOM     23  C   UNL d   1     -49.607  12.221  23.052  0.00  0.00     0.082 A 
ATOM     24  C   UNL d   1     -50.534  11.783  22.997  0.00  0.00     0.136 A 
ATOM     25  O   UNL d   1     -50.402  11.248  23.697  0.00  0.00    -0.301 OA
ATOM     26  C   UNL d   1     -50.148  11.725  23.299  0.00  0.00     0.136 A 
ATOM     27  C   UNL d   1     -49.160  12.212  23.333  0.00  0.00     0.082 A 
ENDBRANCH   2  22
TORSDOF 4
ENDMDL
MODEL 2
REMARK VINA RESULT:      -8.9      1.619      2.939
REMARK  4 active torsions:
REMARK  status: ('A' for Active; 'I' for Inactive)
REMARK    1  A    between atoms: N_5  and  C_1 
REMARK    2  A    between atoms: S_2  and  N_5 
REMARK    3  A    between atoms: C_7  and  S_2 
REMARK    4  A    between atoms: N_10  and  C_3 
ROOT
ATOM      1  C   UNL d   1     -47.911  12.335  22.988  0.00  0.00     0.146 A 
ATOM      2  C   UNL d   1     -47.400  12.914  22.698  0.00  0.00     0.105 A 
ATOM      3  C   UNL d   1     -46.587  12.789  22.734  0.00  0.00     0.208 A 
ATOM      4  C   UNL d   1     -47.615  11.634  23.312  0.00  0.00     0.215 A 
ATOM      5  C   UNL d   1     -46.287  12.099  23.053  0.00  0.00     0.043 A 
ATOM      6  C   UNL d   1     -46.798  11.519  23.343  0.00  0.00     0.044 A 
ATOM      7  O   UNL d   1     -46.076  13.368  22.445  0.00  0.00    -0.285 OA
ATOM      8  O   UNL d   1     -48.139  11.064  23.597  0.00  0.00    -0.285 OA
ATOM      9  C   UNL d   1     -45.475  11.972  23.089  0.00  0.00     0.003 A 
ATOM     10  C   UNL d   1     -46.497  10.829  23.661  0.00  0.00     0.003 A 
ATOM     11  C   UNL d   1     -45.176  11.274  23.412  0.00  0.00     0.000 A 
ATOM     12  C   UNL d   1     -45.685  10.703  23.698  0.00  0.00     0.000 A 
ENDROOT
BRANCH   1  13
ATOM     13  N   UNL d   1     -48.731  12.452  22.956  0.00  0.00    -0.154 NA
BRANCH  13  14
ATOM     14  S   UNL d   1     -49.212  11.938  22.526  0.00  0.00     0.291 S 
ATOM     15  O   UNL d   1     -48.543  11.600  22.181  0.00  0.00    -0.198 OA
ATOM     16  O   UNL d   1     -49.690  11.422  22.094  0.00  0.00    -0.198 OA
BRANCH  14  17
ATOM     17  C   UNL d   1     -49.879  12.278  22.872  0.00  0.00     0.135 A 
ATOM     18  S   UNL d   1     -50.134  12.397  23.644  0.00  0.00    -0.073 SA
ATOM     19  C   UNL d   1     -50.868  12.779  23.614  0.00  0.00     0.036 A 
ATOM     20  C   UNL d   1     -51.064  12.894  22.824  0.00  0.00     0.008 A 
ATOM     21  C   UNL d   1     -50.453  12.585  22.360  0.00  0.00     0.020 A 
ENDBRANCH  14  17
ENDBRANCH  13  14
ENDBRANCH   1  13
BRANCH   2  22
ATOM     22  N   UNL d   1     -47.707  13.609  22.377  0.00  0.00    -0.201 NA
ATOM     23  C   UNL d   1     -47.601  14.238  22.533  0.00  0.00     0.082 A 
ATOM     24  C   UNL d   1     -47.972  15.115  22.147  0.00  0.00     0.136 A 
ATOM     25  O   UNL d   1     -47.515  15.639  22.704  0.00  0.00    -0.301 OA
ATOM     26  C   UNL d   1     -47.654  15.011  22.510  0.00  0.00     0.136 A 
ATOM     27  C   UNL d   1     -47.273  14.055  22.904  0.00  0.00     0.082 A 
ENDBRANCH   2  22
TORSDOF 4
ENDMDL
MODEL 3
REMARK VINA RESULT:      -6.5      1.767      4.056
REMARK  4 active torsions:
REMARK  status: ('A' for Active; 'I' for Inactive)
REMARK    1  A    between atoms: N_5  and  C_1 
REMARK    2  A    between atoms: S_2  and  N_5 
REMARK    3  A    between atoms: C_7  and  S_2 
REMARK    4  A    between atoms: N_10  and  C_3 
ROOT
ATOM      1  C   UNL d   1     -47.826  12.785  22.863  0.00  0.00     0.146 A 
ATOM      2  C   UNL d   1     -48.310  13.448  22.943  0.00  0.00     0.105 A 
ATOM      3  C   UNL d   1     -49.094  13.349  23.172  0.00  0.00     0.208 A 
ATOM      4  C   UNL d   1     -48.121  12.026  23.011  0.00  0.00     0.215 A 
ATOM      5  C   UNL d   1     -49.393  12.603  23.320  0.00  0.00     0.043 A 
ATOM      6  C   UNL d   1     -48.909  11.939  23.241  0.00  0.00     0.044 A 
ATOM      7  O   UNL d   1     -49.578  14.013  23.251  0.00  0.00    -0.285 OA
ATOM      8  O   UNL d   1     -47.625  11.373  22.928  0.00  0.00    -0.285 OA
ATOM      9  C   UNL d   1     -50.177  12.503  23.549  0.00  0.00     0.003 A 
ATOM     10  C   UNL d   1     -49.208  11.193  23.389  0.00  0.00     0.003 A 
ATOM     11  C   UNL d   1     -50.475  11.748  23.698  0.00  0.00     0.000 A 
ATOM     12  C   UNL d   1     -49.992  11.093  23.618  0.00  0.00     0.000 A 
ENDROOT
BRANCH   1  13
ATOM     13  N   UNL d   1     -47.034  12.874  22.633  0.00  0.00    -0.154 NA
BRANCH  13  14
ATOM     14  S   UNL d   1     -46.425  12.577  23.102  0.00  0.00     0.291 S 
ATOM     15  O   UNL d   1     -46.968  12.403  23.698  0.00  0.00    -0.198 OA
ATOM     16  O   UNL d   1     -45.818  12.279  23.575  0.00  0.00    -0.198 OA
BRANCH  14  17
ATOM     17  C   UNL d   1     -45.884  12.752  22.504  0.00  0.00     0.135 A 
ATOM     18  S   UNL d   1     -45.830  12.578  21.703  0.00  0.00    -0.073 SA
ATOM     19  C   UNL d   1     -45.137  12.926  21.414  0.00  0.00     0.036 A 
ATOM     20  C   UNL d   1     -44.766  13.315  22.035  0.00  0.00     0.008 A 
ATOM     21  C   UNL d   1     -45.227  13.209  22.715  0.00  0.00     0.020 A 
ENDBRANCH  14  17
ENDBRANCH  13  14
ENDBRANCH   1  13
BRANCH   2  22
ATOM     22  N   UNL d   1     -48.005  14.199  22.792  0.00  0.00    -0.201 NA
ATOM     23  C   UNL d   1     -48.263  14.713  22.475  0.00  0.00     0.082 A 
ATOM     24  C   UNL d   1     -47.901  15.654  22.278  0.00  0.00     0.136 A 
ATOM     25  O   UNL d   1     -48.629  15.922  21.841  0.00  0.00    -0.301 OA
ATOM     26  C   UNL d   1     -48.324  15.424  22.173  0.00  0.00     0.136 A 
ATOM     27  C   UNL d   1     -48.687  14.409  22.399  0.00  0.00     0.082 A 
ENDBRANCH   2  22
TORSDOF 4
ENDMDL
MODEL 4
REMARK VINA RESULT:      -6.3      9.166     10.462
REMARK  4 active torsions:
REMARK  status: ('A' for Active; 'I' for Inactive)
REMARK    1  A    between atoms: N_5  and  C_1 
REMARK    2  A    between atoms: S_2  and  N_5 
REMARK    3  A    between atoms: C_7  and  S_2 
REMARK    4  A    between atoms: N_10  and  C_3 
ROOT
ATOM      1  C   UNL d   1     -39.870  14.698  18.591  0.00  0.00     0.146 A 
ATOM      2  C   UNL d   1     -39.495  14.332  17.954  0.00  0.00     0.105 A 
ATOM      3  C   UNL d   1     -39.779  14.458  17.192  0.00  0.00     0.208 A 
ATOM      4  C   UNL d   1     -40.525  15.189  18.470  0.00  0.00     0.215 A 
ATOM      5  C   UNL d   1     -40.426  14.942  17.064  0.00  0.00     0.043 A 
ATOM      6  C   UNL d   1     -40.801  15.309  17.701  0.00  0.00     0.044 A 
ATOM      7  O   UNL d   1     -39.404  14.092  16.555  0.00  0.00    -0.285 OA
ATOM      8  O   UNL d   1     -40.890  15.549  19.116  0.00  0.00    -0.285 OA
ATOM      9  C   UNL d   1     -40.710  15.069  16.303  0.00  0.00     0.003 A 
ATOM     10  C   UNL d   1     -41.447  15.793  17.573  0.00  0.00     0.003 A 
ATOM     11  C   UNL d   1     -41.363  15.558  16.179  0.00  0.00     0.000 A 
ATOM     12  C   UNL d   1     -41.732  15.920  16.811  0.00  0.00     0.000 A 
ENDROOT
BRANCH   1  13
ATOM     13  N   UNL d   1     -39.592  14.577  19.362  0.00  0.00    -0.154 NA
BRANCH  13  14
ATOM     14  S   UNL d   1     -39.347  15.214  19.825  0.00  0.00     0.291 S 
ATOM     15  O   UNL d   1     -39.247  15.670  19.145  0.00  0.00    -0.198 OA
ATOM     16  O   UNL d   1     -39.101  15.854  20.285  0.00  0.00    -0.198 OA
BRANCH  14  17
ATOM     17  C   UNL d   1     -39.448  14.756  20.503  0.00  0.00     0.135 A 
ATOM     18  S   UNL d   1     -40.097  14.471  20.919  0.00  0.00    -0.073 SA
ATOM     19  C   UNL d   1     -39.815  14.037  21.564  0.00  0.00     0.036 A 
ATOM     20  C   UNL d   1     -38.994  14.054  21.546  0.00  0.00     0.008 A 
ATOM     21  C   UNL d   1     -38.761  14.500  20.889  0.00  0.00     0.020 A 
ENDBRANCH  14  17
ENDBRANCH  13  14
ENDBRANCH   1  13
BRANCH   2  22
ATOM     22  N   UNL d   1     -38.843  13.844  18.087  0.00  0.00    -0.201 NA
ATOM     23  C   UNL d   1     -38.747  13.209  17.953  0.00  0.00     0.082 A 
ATOM     24  C   UNL d   1     -37.945  12.586  18.110  0.00  0.00     0.136 A 
ATOM     25  O   UNL d   1     -38.338  11.871  17.755  0.00  0.00    -0.301 OA
ATOM     26  C   UNL d   1     -38.391  12.521  17.911  0.00  0.00     0.136 A 
ATOM     27  C   UNL d   1     -39.236  13.212  17.755  0.00  0.00     0.082 A 
ENDBRANCH   2  22
TORSDOF 4
ENDMDL
