MODEL 1
REMARK VINA RESULT:      -6.0      0.000      0.000
REMARK  5 active torsions:
REMARK  status: ('A' for Active; 'I' for Inactive)
REMARK    1  A    between atoms: N_2  and  C_7 
REMARK    2  A    between atoms: N_6  and  C_3 
REMARK    3  A    between atoms: N_8  and  N_6 
REMARK    4  A    between atoms: C_15  and  N_8 
REMARK    5  A    between atoms: C_16  and  C_15 
ROOT
ATOM      1  C   UNL d   1     -42.317-123.025 -49.687  0.00  0.00     0.127 A 
ATOM      2  C   UNL d   1     -41.700-123.463 -50.015  0.00  0.00     0.024 A 
ATOM      3  C   UNL d   1     -42.551-122.327 -50.062  0.00  0.00     0.024 A 
ATOM      4  C   UNL d   1     -41.557-122.520 -51.070  0.00  0.00     0.021 A 
ATOM      5  C   UNL d   1     -42.167-122.079 -50.754  0.00  0.00     0.003 A 
ATOM      6  C   UNL d   1     -41.329-123.201 -50.704  0.00  0.00     0.003 A 
ENDROOT
BRANCH   4   7
ATOM      7  C   UNL d   1     -41.175-122.272 -51.760  0.00  0.00     0.122 C 
BRANCH   7   8
ATOM      8  N   UNL d   1     -41.522-122.408 -52.488  0.00  0.00    -0.144 NA
BRANCH   8   9
ATOM      9  N   UNL d   1     -41.122-122.153 -53.191  0.00  0.00    -0.121 NA
BRANCH   9  10
ATOM     10  C   UNL d   1     -41.500-122.301 -53.925  0.00  0.00     0.217 A 
ATOM     11  N   UNL d   1     -41.954-121.758 -54.302  0.00  0.00    -0.181 NA
ATOM     12  C   UNL d   1     -42.235-122.096 -55.009  0.00  0.00     0.288 A 
ATOM     13  O   UNL d   1     -42.731-121.684 -55.547  0.00  0.00    -0.265 OA
ATOM     14  C   UNL d   1     -41.952-122.850 -55.064  0.00  0.00     0.101 A 
ATOM     15  S   UNL d   1     -41.491-122.977 -54.383  0.00  0.00    -0.041 SA
ENDBRANCH   9  10
ENDBRANCH   8   9
ENDBRANCH   7   8
ENDBRANCH   4   7
BRANCH   1  16
ATOM     16  N   UNL d   1     -42.694-123.253 -49.023  0.00  0.00    -0.114 N 
ATOM     17  O   UNL d   1     -42.451-123.046 -48.256  0.00  0.00    -0.532 OA
ATOM     18  O   UNL d   1     -43.357-123.709 -48.979  0.00  0.00    -0.532 OA
ENDBRANCH   1  16
TORSDOF 5
ENDMDL
MODEL 2
REMARK VINA RESULT:      -5.5      1.482      4.820
REMARK  5 active torsions:
REMARK  status: ('A' for Active; 'I' for Inactive)
REMARK    1  A    between atoms: N_2  and  C_7 
REMARK    2  A    between atoms: N_6  and  C_3 
REMARK    3  A    between atoms: N_8  and  N_6 
REMARK    4  A    between atoms: C_15  and  N_8 
REMARK    5  A    between atoms: C_16  and  C_15 
ROOT
ATOM      1  C   UNL d   1     -41.909-122.233 -54.743  0.00  0.00     0.127 A 
ATOM      2  C   UNL d   1     -41.886-121.793 -54.047  0.00  0.00     0.024 A 
ATOM      3  C   UNL d   1     -41.681-123.028 -54.719  0.00  0.00     0.024 A 
ATOM      4  C   UNL d   1     -41.416-122.921 -53.319  0.00  0.00     0.021 A 
ATOM      5  C   UNL d   1     -41.435-123.366 -54.003  0.00  0.00     0.003 A 
ATOM      6  C   UNL d   1     -41.639-122.146 -53.344  0.00  0.00     0.003 A 
ENDROOT
BRANCH   4   7
ATOM      7  C   UNL d   1     -41.171-123.259 -52.606  0.00  0.00     0.122 C 
BRANCH   7   8
ATOM      8  N   UNL d   1     -41.665-123.237 -51.954  0.00  0.00    -0.144 NA
BRANCH   8   9
ATOM      9  N   UNL d   1     -41.488-123.723 -51.283  0.00  0.00    -0.121 NA
BRANCH   9  10
ATOM     10  C   UNL d   1     -41.901-123.564 -50.571  0.00  0.00     0.217 A 
ATOM     11  N   UNL d   1     -42.649-123.817 -50.431  0.00  0.00    -0.181 NA
ATOM     12  C   UNL d   1     -42.877-123.559 -49.674  0.00  0.00     0.288 A 
ATOM     13  O   UNL d   1     -43.630-123.724 -49.342  0.00  0.00    -0.265 OA
ATOM     14  C   UNL d   1     -42.265-123.145 -49.348  0.00  0.00     0.101 A 
ATOM     15  S   UNL d   1     -41.653-123.149 -49.912  0.00  0.00    -0.041 SA
ENDBRANCH   9  10
ENDBRANCH   8   9
ENDBRANCH   7   8
ENDBRANCH   4   7
BRANCH   1  16
ATOM     16  N   UNL d   1     -42.143-121.919 -55.438  0.00  0.00    -0.114 N 
ATOM     17  O   UNL d   1     -41.642-121.503 -55.952  0.00  0.00    -0.532 OA
ATOM     18  O   UNL d   1     -42.884-121.950 -55.754  0.00  0.00    -0.532 OA
ENDBRANCH   1  16
TORSDOF 5
ENDMDL
