MODEL 1
REMARK VINA RESULT:      -3.2      0.000      0.000
REMARK  5 active torsions:
REMARK  status: ('A' for Active; 'I' for Inactive)
REMARK    1  A    between atoms: C_2  and  S_1 
REMARK    2  A    between atoms: N_4  and  S_1 
REMARK    3  A    between atoms: C_3  and  N_5 
REMARK    4  A    between atoms: O_26  and  C_14 
REMARK    5  A    between atoms: O_27  and  C_24 
ROOT
ATOM      1  N   UNL d   1      32.682  20.997 -21.778  0.00  0.00    -0.226 N 
ATOM      2  N   UNL d   1      32.831  19.695 -22.768  0.00  0.00    -0.319 N 
ATOM      3  C   UNL d   1      33.165  21.040 -22.441  0.00  0.00     0.110 A 
ATOM      4  C   UNL d   1      32.272  20.306 -21.607  0.00  0.00     0.110 A 
ATOM      5  C   UNL d   1      32.342  19.651 -22.097  0.00  0.00     0.096 A 
ATOM      6  C   UNL d   1      33.240  20.382 -22.941  0.00  0.00     0.096 A 
ENDROOT
BRANCH   1   7
ATOM      7  S   UNL d   1      32.607  21.651 -21.280  0.00  0.00     0.273 S 
ATOM      8  O   UNL d   1      33.239  22.006 -21.674  0.00  0.00    -0.200 OA
ATOM      9  O   UNL d   1      31.974  21.302 -20.882  0.00  0.00    -0.200 OA
BRANCH   7  10
ATOM     10  C   UNL d   1      32.551  22.316 -20.795  0.00  0.00     0.128 A 
ATOM     11  C   UNL d   1      32.859  22.285 -20.038  0.00  0.00     0.039 A 
ATOM     12  C   UNL d   1      32.809  22.944 -19.544  0.00  0.00     0.095 A 
ATOM     13  C   UNL d   1      32.446  23.636 -19.817  0.00  0.00     0.026 A 
ATOM     14  C   UNL d   1      32.135  23.663 -20.584  0.00  0.00     0.027 A 
ATOM     15  C   UNL d   1      32.189  23.000 -21.073  0.00  0.00     0.106 A 
BRANCH  12  16
ATOM     16  O   UNL d   1      33.117  22.920 -18.782  0.00  0.00    -0.328 OA
ATOM     17  C   UNL d   1      32.949  23.535 -18.254  0.00  0.00     0.181 C 
ENDBRANCH  12  16
BRANCH  15  18
ATOM     18  O   UNL d   1      31.881  23.020 -21.836  0.00  0.00    -0.327 OA
ATOM     19  C   UNL d   1      31.495  23.702 -22.101  0.00  0.00     0.181 C 
ENDBRANCH  15  18
ENDBRANCH   7  10
ENDBRANCH   1   7
BRANCH   2  20
ATOM     20  C   UNL d   1      32.898  19.035 -23.258  0.00  0.00     0.107 A 
ATOM     21  C   UNL d   1      32.864  18.407 -22.829  0.00  0.00    -0.002 A 
ATOM     22  C   UNL d   1      32.929  17.764 -23.301  0.00  0.00    -0.006 A 
ATOM     23  C   UNL d   1      33.004  17.974 -24.026  0.00  0.00    -0.022 A 
ATOM     24  C   UNL d   1      32.937  16.827 -23.192  0.00  0.00    -0.001 A 
ATOM     25  C   UNL d   1      33.045  18.565 -24.515  0.00  0.00     0.046 A 
ATOM     26  C   UNL d   1      32.979  19.232 -24.034  0.00  0.00     0.038 A 
ATOM     27  C   UNL d   1      33.059  17.693 -24.477  0.00  0.00    -0.022 A 
ATOM     28  C   UNL d   1      32.979  17.489 -23.706  0.00  0.00    -0.006 A 
ATOM     29  C   UNL d   1      32.910  18.169 -23.200  0.00  0.00    -0.002 A 
ENDBRANCH   2  20
TORSDOF 5
ENDMDL
