MODEL 1
REMARK VINA RESULT:      -7.3      0.000      0.000
REMARK  5 active torsions:
REMARK  status: ('A' for Active; 'I' for Inactive)
REMARK    1  A    between atoms: C_3  and  C_1 
REMARK    2  A    between atoms: C_6  and  C_9 
REMARK    3  A    between atoms: C_7  and  C_12 
REMARK    4  A    between atoms: C_9  and  C_11 
REMARK       I    between atoms: C_11  and  N_16 
REMARK    5  A    between atoms: N_16  and  C_18 
ROOT
ATOM      1  N   UNL d   1     -42.720-122.168 -49.924  0.00  0.00    -0.207 NA
ATOM      2  C   UNL d   1     -42.300-121.963 -50.619  0.00  0.00     0.285 A 
ATOM      3  S   UNL d   1     -41.217-122.823 -50.212  0.00  0.00    -0.080 SA
ATOM      4  C   UNL d   1     -41.552-122.289 -50.762  0.00  0.00     0.092 A 
ATOM      5  C   UNL d   1     -42.383-122.697 -49.384  0.00  0.00     0.090 A 
ATOM      6  C   UNL d   1     -41.636-123.025 -49.523  0.00  0.00     0.047 A 
ATOM      7  C   UNL d   1     -42.466-123.425 -48.159  0.00  0.00     0.073 A 
ATOM      8  C   UNL d   1     -42.799-122.898 -48.699  0.00  0.00     0.024 A 
ATOM      9  O   UNL d   1     -42.627-121.439 -51.161  0.00  0.00    -0.265 OA
ATOM     10  C   UNL d   1     -41.303-123.549 -48.985  0.00  0.00     0.008 A 
ATOM     11  C   UNL d   1     -41.718-123.750 -48.302  0.00  0.00     0.004 A 
ENDROOT
BRANCH   4  12
ATOM     12  C   UNL d   1     -41.134-122.095 -51.436  0.00  0.00     0.074 C 
BRANCH  12  13
ATOM     13  C   UNL d   1     -41.312-122.476 -52.156  0.00  0.00     0.280 C 
ATOM     14  N   UNL d   1     -41.163-122.095 -52.875  0.00  0.00    -0.208 NA
ATOM     15  O   UNL d   1     -41.533-122.992 -52.161  0.00  0.00    -0.265 OA
BRANCH  14  16
ATOM     16  C   UNL d   1     -41.342-122.479 -53.583  0.00  0.00     0.085 A 
ATOM     17  C   UNL d   1     -41.722-122.067 -54.184  0.00  0.00     0.024 A 
ATOM     18  C   UNL d   1     -41.901-122.450 -54.891  0.00  0.00     0.084 A 
ATOM     19  C   UNL d   1     -41.700-123.243 -54.994  0.00  0.00     0.062 A 
ATOM     20  C   UNL d   1     -41.317-123.651 -54.382  0.00  0.00     0.013 A 
ATOM     21 CL   UNL d   1     -41.876-123.619 -55.690  0.00  0.00    -0.082 Cl
ATOM     22  C   UNL d   1     -41.140-123.271 -53.682  0.00  0.00     0.020 A 
BRANCH  18  23
ATOM     23  C   UNL d   1     -42.276-122.046 -55.486  0.00  0.00     0.420 C 
ATOM     24  F   UNL d   1     -42.616-121.672 -56.033  0.00  0.00    -0.166 F 
ATOM     25  F   UNL d   1     -41.957-121.487 -56.037  0.00  0.00    -0.166 F 
ATOM     26  F   UNL d   1     -43.088-122.071 -55.720  0.00  0.00    -0.166 F 
ENDBRANCH  18  23
ENDBRANCH  14  16
ENDBRANCH  12  13
ENDBRANCH   4  12
BRANCH   7  27
ATOM     27  C   UNL d   1     -42.874-123.622 -47.487  0.00  0.00     0.419 C 
ATOM     28  F   UNL d   1     -42.596-123.690 -46.690  0.00  0.00    -0.166 F 
ATOM     29  F   UNL d   1     -43.700-123.817 -47.393  0.00  0.00    -0.166 F 
ATOM     30  F   UNL d   1     -43.247-123.804 -46.867  0.00  0.00    -0.166 F 
ENDBRANCH   7  27
TORSDOF 5
ENDMDL
MODEL 2
REMARK VINA RESULT:      -7.2      1.738      6.205
REMARK  5 active torsions:
REMARK  status: ('A' for Active; 'I' for Inactive)
REMARK    1  A    between atoms: C_3  and  C_1 
REMARK    2  A    between atoms: C_6  and  C_9 
REMARK    3  A    between atoms: C_7  and  C_12 
REMARK    4  A    between atoms: C_9  and  C_11 
REMARK       I    between atoms: C_11  and  N_16 
REMARK    5  A    between atoms: N_16  and  C_18 
ROOT
ATOM      1  N   UNL d   1     -41.765-121.349 -53.149  0.00  0.00    -0.207 NA
ATOM      2  C   UNL d   1     -41.512-121.574 -52.383  0.00  0.00     0.285 A 
ATOM      3  S   UNL d   1     -41.487-122.954 -52.802  0.00  0.00    -0.080 SA
ATOM      4  C   UNL d   1     -41.373-122.372 -52.211  0.00  0.00     0.092 A 
ATOM      5  C   UNL d   1     -41.876-121.929 -53.730  0.00  0.00     0.090 A 
ATOM      6  C   UNL d   1     -41.738-122.728 -53.561  0.00  0.00     0.047 A 
ATOM      7  C   UNL d   1     -42.236-122.281 -55.065  0.00  0.00     0.073 A 
ATOM      8  C   UNL d   1     -42.125-121.705 -54.484  0.00  0.00     0.024 A 
ATOM      9  O   UNL d   1     -41.399-121.006 -51.800  0.00  0.00    -0.265 OA
ATOM     10  C   UNL d   1     -41.849-123.302 -54.139  0.00  0.00     0.008 A 
ATOM     11  C   UNL d   1     -42.098-123.078 -54.892  0.00  0.00     0.004 A 
ENDROOT
BRANCH   4  12
ATOM     12  C   UNL d   1     -41.126-122.602 -51.467  0.00  0.00     0.074 C 
BRANCH  12  13
ATOM     13  C   UNL d   1     -41.689-122.822 -50.893  0.00  0.00     0.280 C 
ATOM     14  N   UNL d   1     -41.455-122.955 -50.111  0.00  0.00    -0.208 NA
ATOM     15  O   UNL d   1     -42.231-122.882 -51.030  0.00  0.00    -0.265 OA
BRANCH  14  16
ATOM     16  C   UNL d   1     -42.019-123.172 -49.550  0.00  0.00     0.085 A 
ATOM     17  C   UNL d   1     -41.861-123.063 -48.751  0.00  0.00     0.024 A 
ATOM     18  C   UNL d   1     -42.425-123.280 -48.190  0.00  0.00     0.084 A 
ATOM     19  C   UNL d   1     -43.143-123.604 -48.430  0.00  0.00     0.062 A 
ATOM     20  C   UNL d   1     -43.295-123.710 -49.239  0.00  0.00     0.013 A 
ATOM     21 CL   UNL d   1     -43.697-123.817 -47.878  0.00  0.00    -0.082 Cl
ATOM     22  C   UNL d   1     -42.737-123.495 -49.794  0.00  0.00     0.020 A 
BRANCH  18  23
ATOM     23  C   UNL d   1     -42.270-123.174 -47.401  0.00  0.00     0.420 C 
ATOM     24  F   UNL d   1     -42.129-123.072 -46.677  0.00  0.00    -0.166 F 
ATOM     25  F   UNL d   1     -42.254-122.456 -46.950  0.00  0.00    -0.166 F 
ATOM     26  F   UNL d   1     -42.083-123.749 -46.811  0.00  0.00    -0.166 F 
ENDBRANCH  18  23
ENDBRANCH  14  16
ENDBRANCH  12  13
ENDBRANCH   4  12
BRANCH   7  27
ATOM     27  C   UNL d   1     -42.482-122.061 -55.805  0.00  0.00     0.419 C 
ATOM     28  F   UNL d   1     -43.065-122.417 -56.306  0.00  0.00    -0.166 F 
ATOM     29  F   UNL d   1     -42.221-121.408 -56.291  0.00  0.00    -0.166 F 
ATOM     30  F   UNL d   1     -42.709-121.861 -56.487  0.00  0.00    -0.166 F 
ENDBRANCH   7  27
TORSDOF 5
ENDMDL
