MODEL 1
REMARK VINA RESULT:      15.4      0.000      0.000
REMARK  0 active torsions:
REMARK  status: ('A' for Active; 'I' for Inactive)
ROOT
ATOM      1  C   UNL d   1     -58.181 -98.755 -44.315  0.00  0.00     0.062 A 
ATOM      2  C   UNL d   1     -58.477 -98.755 -45.087  0.00  0.00     0.116 A 
ATOM      3  C   UNL d   1     -58.719 -98.755 -43.666  0.00  0.00     0.192 A 
ATOM      4  N   UNL d   1     -59.540 -98.755 -43.824  0.00  0.00    -0.171 N 
ATOM      5  N   UNL d   1     -59.293 -98.755 -45.221  0.00  0.00    -0.217 NA
ATOM      6  S   UNL d   1     -57.802 -98.755 -45.569  0.00  0.00    -0.068 SA
ATOM      7  C   UNL d   1     -57.371 -98.755 -44.320  0.00  0.00     0.011 A 
ATOM      8  N   UNL d   1     -59.384 -98.755 -42.520  0.00  0.00    -0.022 NA
ATOM      9  N   UNL d   1     -59.961 -98.755 -43.091  0.00  0.00    -0.037 NA
ATOM     10  N   UNL d   1     -58.620 -98.755 -42.866  0.00  0.00    -0.108 NA
ATOM     11  C   UNL d   1     -57.142 -98.755 -45.120  0.00  0.00     0.031 A 
ATOM     12  C   UNL d   1     -59.813 -98.755 -44.602  0.00  0.00     0.204 A 
ATOM     13  C   UNL d   1     -56.658 -98.755 -43.904  0.00  0.00     0.001 A 
ATOM     14  C   UNL d   1     -56.335 -98.756 -45.180  0.00  0.00     0.006 A 
ATOM     15  C   UNL d   1     -56.040 -98.756 -44.433  0.00  0.00     0.001 A 
ENDROOT
TORSDOF 0
ENDMDL
MODEL 2
REMARK VINA RESULT:      18.4      1.674      2.740
REMARK  0 active torsions:
REMARK  status: ('A' for Active; 'I' for Inactive)
ROOT
ATOM      1  C   UNL d   1     -58.879 -98.755 -44.527  0.00  0.00     0.062 A 
ATOM      2  C   UNL d   1     -58.059 -98.755 -44.425  0.00  0.00     0.116 A 
ATOM      3  C   UNL d   1     -59.197 -98.755 -45.308  0.00  0.00     0.192 A 
ATOM      4  N   UNL d   1     -58.671 -98.756 -45.957  0.00  0.00    -0.171 N 
ATOM      5  N   UNL d   1     -57.556 -98.755 -45.081  0.00  0.00    -0.217 NA
ATOM      6  S   UNL d   1     -57.953 -98.755 -43.603  0.00  0.00    -0.068 SA
ATOM      7  C   UNL d   1     -59.257 -98.755 -43.811  0.00  0.00     0.011 A 
ATOM      8  N   UNL d   1     -59.895 -98.756 -46.436  0.00  0.00    -0.022 NA
ATOM      9  N   UNL d   1     -59.119 -98.756 -46.674  0.00  0.00    -0.037 NA
ATOM     10  N   UNL d   1     -59.950 -98.756 -45.598  0.00  0.00    -0.108 NA
ATOM     11  C   UNL d   1     -58.660 -98.755 -43.232  0.00  0.00     0.031 A 
ATOM     12  C   UNL d   1     -57.857 -98.755 -45.831  0.00  0.00     0.204 A 
ATOM     13  C   UNL d   1     -59.960 -98.755 -43.378  0.00  0.00     0.001 A 
ATOM     14  C   UNL d   1     -58.988 -98.755 -42.492  0.00  0.00     0.006 A 
ATOM     15  C   UNL d   1     -59.786 -98.755 -42.584  0.00  0.00     0.001 A 
ENDROOT
TORSDOF 0
ENDMDL
