MODEL 1
REMARK VINA RESULT:      34.1      0.000      0.000
REMARK  1 active torsions:
REMARK  status: ('A' for Active; 'I' for Inactive)
REMARK    1  A    between atoms: C_14  and  C_7 
ROOT
ATOM      1  C   UNL d   1     -51.289  26.506  33.395  0.00  0.00     0.121 A 
ATOM      2  C   UNL d   1     -51.885  25.936  33.387  0.00  0.00     0.058 A 
ATOM      3  N   UNL d   1     -51.651  27.247  33.410  0.00  0.00    -0.195 NA
ATOM      4  S   UNL d   1     -50.499  26.275  33.387  0.00  0.00    -0.068 SA
ATOM      5  C   UNL d   1     -50.311  25.481  33.371  0.00  0.00     0.027 A 
ATOM      6  C   UNL d   1     -50.908  24.912  33.363  0.00  0.00     0.003 A 
ATOM      7  C   UNL d   1     -51.692  25.137  33.371  0.00  0.00     0.010 A 
ATOM      8  C   UNL d   1     -52.463  27.140  33.412  0.00  0.00     0.311 A 
ATOM      9  S   UNL d   1     -52.615  26.327  33.398  0.00  0.00    -0.024 SA
ATOM     10  C   UNL d   1     -50.212  24.219  33.347  0.00  0.00    -0.017 A 
ATOM     11  C   UNL d   1     -49.488  24.753  33.354  0.00  0.00    -0.012 A 
ATOM     12  C   UNL d   1     -48.508  24.877  33.351  0.00  0.00     0.053 A 
ATOM     13  O   UNL d   1     -53.033  27.736  33.426  0.00  0.00    -0.258 OA
ATOM     14  C   UNL d   1     -50.365  23.191  33.329  0.00  0.00    -0.004 A 
ATOM     15  C   UNL d   1     -49.758  23.858  33.338  0.00  0.00    -0.004 A 
ENDROOT
BRANCH   7  16
ATOM     16  C   UNL d   1     -52.289  24.567  33.363  0.00  0.00     0.020 A 
ATOM     17  C   UNL d   1     -53.084  24.804  33.393  0.00  0.00     0.099 A 
ATOM     18  N   UNL d   1     -53.675  24.228  33.384  0.00  0.00    -0.242 NA
ATOM     19  C   UNL d   1     -53.482  23.429  33.347  0.00  0.00     0.099 A 
ATOM     20  C   UNL d   1     -52.689  23.202  33.318  0.00  0.00     0.021 A 
ATOM     21  C   UNL d   1     -52.096  23.768  33.326  0.00  0.00     0.003 A 
ENDBRANCH   7  16
TORSDOF 1
ENDMDL
