MODEL 1
REMARK VINA RESULT:      70.4      0.000      0.000
REMARK  6 active torsions:
REMARK  status: ('A' for Active; 'I' for Inactive)
REMARK    1  A    between atoms: C_11  and  N_3 
REMARK    2  A    between atoms: C_10  and  C_7 
REMARK       I    between atoms: N_19  and  C_10 
REMARK    3  A    between atoms: C_21  and  C_11 
REMARK    4  A    between atoms: N_15  and  C_23 
REMARK    5  A    between atoms: C_22  and  N_19 
REMARK    6  A    between atoms: C_23  and  C_22 
ROOT
ATOM      1  C   UNL d   1      13.885  13.688  -2.506  0.00  0.00     0.154 A 
ATOM      2  C   UNL d   1      14.532  14.080  -2.177  0.00  0.00     0.093 A 
ATOM      3  N   UNL d   1      13.668  14.096  -3.191  0.00  0.00    -0.286 N 
ATOM      4  N   UNL d   1      13.581  13.016  -2.142  0.00  0.00    -0.210 NA
ATOM      5  C   UNL d   1      14.874  13.800  -1.483  0.00  0.00     0.269 A 
ATOM      6  N   UNL d   1      14.571  13.127  -1.118  0.00  0.00    -0.258 N 
ATOM      7  C   UNL d   1      14.174  14.734  -3.286  0.00  0.00     0.124 A 
ATOM      8  C   UNL d   1      13.924  12.735  -1.447  0.00  0.00     0.152 A 
ATOM      9  C   UNL d   1      14.710  14.728  -2.661  0.00  0.00     0.030 A 
ATOM     10  C   UNL d   1      14.913  12.847  -0.424  0.00  0.00     0.084 A 
ATOM     11  O   UNL d   1      15.521  14.192  -1.154  0.00  0.00    -0.266 OA
ATOM     12  C   UNL d   1      13.619  12.063  -1.083  0.00  0.00     0.038 A 
ATOM     13  C   UNL d   1      14.609  12.172  -0.056  0.00  0.00     0.019 A 
ATOM     14  C   UNL d   1      13.962  11.780  -0.385  0.00  0.00     0.005 A 
ENDROOT
BRANCH   7  15
ATOM     15  C   UNL d   1      14.145  15.282  -3.902  0.00  0.00     0.295 C 
ATOM     16  O   UNL d   1      13.551  15.243  -4.470  0.00  0.00    -0.264 OA
ATOM     17  N   UNL d   1      14.725  15.875  -3.944  0.00  0.00    -0.204 NA
BRANCH  17  18
ATOM     18  C   UNL d   1      14.703  16.430  -4.561  0.00  0.00     0.121 C 
BRANCH  18  19
ATOM     19  C   UNL d   1      14.327  17.153  -4.451  0.00  0.00     0.101 C 
BRANCH  19  20
ATOM     20  N   UNL d   1      14.407  17.750  -5.015  0.00  0.00    -0.298 N 
ATOM     21  C   UNL d   1      14.826  18.442  -4.827  0.00  0.00     0.107 A 
ATOM     22  C   UNL d   1      14.907  19.045  -5.396  0.00  0.00     0.142 A 
ATOM     23  O   UNL d   1      14.569  18.950  -6.147  0.00  0.00    -0.300 OA
ATOM     24  C   UNL d   1      14.154  18.263  -6.332  0.00  0.00     0.142 A 
ATOM     25  C   UNL d   1      14.073  17.660  -5.763  0.00  0.00     0.107 A 
ENDBRANCH  19  20
ENDBRANCH  18  19
ENDBRANCH  17  18
ENDBRANCH   7  15
BRANCH   3  26
ATOM     26  C   UNL d   1      13.043  13.889  -3.692  0.00  0.00     0.082 C 
BRANCH  26  27
ATOM     27  C   UNL d   1      13.067  13.186  -4.119  0.00  0.00     0.018 A 
ATOM     28  C   UNL d   1      12.865  12.475  -3.759  0.00  0.00     0.002 A 
ATOM     29  C   UNL d   1      12.888  11.779  -4.180  0.00  0.00     0.000 A 
ATOM     30  C   UNL d   1      13.115  11.780  -4.974  0.00  0.00     0.000 A 
ATOM     31  C   UNL d   1      13.318  12.484  -5.341  0.00  0.00     0.000 A 
ATOM     32  C   UNL d   1      13.294  13.186  -4.914  0.00  0.00     0.002 A 
ENDBRANCH  26  27
ENDBRANCH   3  26
TORSDOF 6
ENDMDL
