MODEL 1
REMARK VINA RESULT:      -1.9      0.000      0.000
REMARK  3 active torsions:
REMARK  status: ('A' for Active; 'I' for Inactive)
REMARK       I    between atoms: C_4  and  N_1 
REMARK    1  A    between atoms: C_7  and  C_3 
REMARK    2  A    between atoms: C_9  and  C_4 
REMARK    3  A    between atoms: C_8  and  C_5 
ROOT
ATOM      1  N   UNL d   1      32.691  22.302 -22.434  0.00  0.00    -0.191 N 
ATOM      2  N   UNL d   1      32.785  21.634 -22.895  0.00  0.00    -0.163 NA
ATOM      3  C   UNL d   1      32.696  22.041 -21.632  0.00  0.00     0.110 A 
ATOM      4  C   UNL d   1      32.608  23.067 -22.688  0.00  0.00     0.303 C 
ATOM      5  C   UNL d   1      32.848  20.971 -22.408  0.00  0.00     0.103 A 
ATOM      6  C   UNL d   1      32.794  21.220 -21.640  0.00  0.00     0.042 A 
ATOM      7  O   UNL d   1      32.514  23.696 -22.097  0.00  0.00    -0.263 OA
ENDROOT
BRANCH   3   8
ATOM      8  C   UNL d   1      32.617  22.521 -20.967  0.00  0.00     0.118 A 
ATOM      9  O   UNL d   1      31.916  22.817 -20.681  0.00  0.00    -0.304 OA
ATOM     10  C   UNL d   1      32.086  23.274 -20.001  0.00  0.00     0.123 A 
ATOM     11  C   UNL d   1      32.902  23.248 -19.885  0.00  0.00     0.029 A 
ATOM     12  C   UNL d   1      33.224  22.774 -20.495  0.00  0.00     0.028 A 
ENDBRANCH   3   8
BRANCH   4  13
ATOM     13  C   UNL d   1      32.610  23.269 -23.479  0.00  0.00     0.158 A 
ATOM     14  O   UNL d   1      33.240  23.206 -24.002  0.00  0.00    -0.300 OA
ATOM     15  C   UNL d   1      33.003  23.469 -24.741  0.00  0.00     0.123 A 
ATOM     16  C   UNL d   1      32.216  23.699 -24.683  0.00  0.00     0.029 A 
ATOM     17  C   UNL d   1      31.966  23.577 -23.902  0.00  0.00     0.032 A 
ENDBRANCH   4  13
BRANCH   5  18
ATOM     18  C   UNL d   1      32.950  20.192 -22.687  0.00  0.00     0.019 A 
ATOM     19  C   UNL d   1      32.927  19.595 -22.155  0.00  0.00     0.002 A 
ATOM     20  C   UNL d   1      33.025  18.813 -22.396  0.00  0.00     0.007 A 
ATOM     21  C   UNL d   1      33.145  18.651 -23.187  0.00  0.00     0.035 A 
ATOM     22  C   UNL d   1      33.171  19.260 -23.756  0.00  0.00     0.007 A 
ATOM     23 BR   UNL d   1      33.241  17.867 -23.423  0.00  0.00    -0.049 Br
ATOM     24  C   UNL d   1      33.069  20.058 -23.488  0.00  0.00     0.002 A 
ENDBRANCH   5  18
TORSDOF 3
ENDMDL
MODEL 2
REMARK VINA RESULT:       0.4      1.096      2.977
REMARK  3 active torsions:
REMARK  status: ('A' for Active; 'I' for Inactive)
REMARK       I    between atoms: C_4  and  N_1 
REMARK    1  A    between atoms: C_7  and  C_3 
REMARK    2  A    between atoms: C_9  and  C_4 
REMARK    3  A    between atoms: C_8  and  C_5 
ROOT
ATOM      1  N   UNL d   1      32.835  21.052 -22.643  0.00  0.00    -0.191 N 
ATOM      2  N   UNL d   1      32.776  20.262 -22.444  0.00  0.00    -0.163 NA
ATOM      3  C   UNL d   1      32.984  21.077 -23.473  0.00  0.00     0.110 A 
ATOM      4  C   UNL d   1      32.767  21.690 -22.150  0.00  0.00     0.303 C 
ATOM      5  C   UNL d   1      32.882  19.799 -23.118  0.00  0.00     0.103 A 
ATOM      6  C   UNL d   1      33.008  20.296 -23.744  0.00  0.00     0.042 A 
ATOM      7  O   UNL d   1      32.850  22.488 -22.483  0.00  0.00    -0.263 OA
ENDROOT
BRANCH   3   8
ATOM      8  C   UNL d   1      33.085  21.759 -23.926  0.00  0.00     0.118 A 
ATOM      9  O   UNL d   1      33.143  22.514 -23.631  0.00  0.00    -0.304 OA
ATOM     10  C   UNL d   1      33.241  23.038 -24.277  0.00  0.00     0.123 A 
ATOM     11  C   UNL d   1      33.240  22.582 -24.964  0.00  0.00     0.029 A 
ATOM     12  C   UNL d   1      33.142  21.784 -24.733  0.00  0.00     0.028 A 
ENDBRANCH   3   8
BRANCH   4  13
ATOM     13  C   UNL d   1      32.622  21.612 -21.350  0.00  0.00     0.158 A 
ATOM     14  O   UNL d   1      31.894  21.488 -20.991  0.00  0.00    -0.300 OA
ATOM     15  C   UNL d   1      31.999  21.443 -20.179  0.00  0.00     0.123 A 
ATOM     16  C   UNL d   1      32.800  21.539 -20.026  0.00  0.00     0.029 A 
ATOM     17  C   UNL d   1      33.193  21.645 -20.748  0.00  0.00     0.032 A 
ENDBRANCH   4  13
BRANCH   5  18
ATOM     18  C   UNL d   1      32.858  18.966 -23.124  0.00  0.00     0.019 A 
ATOM     19  C   UNL d   1      32.458  18.604 -23.716  0.00  0.00     0.002 A 
ATOM     20  C   UNL d   1      32.413  17.782 -23.752  0.00  0.00     0.007 A 
ATOM     21  C   UNL d   1      32.783  17.337 -23.177  0.00  0.00     0.035 A 
ATOM     22  C   UNL d   1      33.204  17.695 -22.553  0.00  0.00     0.007 A 
ATOM     23 BR   UNL d   1      32.735  16.515 -23.218  0.00  0.00    -0.049 Br
ATOM     24  C   UNL d   1      33.238  18.542 -22.533  0.00  0.00     0.002 A 
ENDBRANCH   5  18
TORSDOF 3
ENDMDL
MODEL 3
REMARK VINA RESULT:       0.6      4.043      5.969
REMARK  3 active torsions:
REMARK  status: ('A' for Active; 'I' for Inactive)
REMARK       I    between atoms: C_4  and  N_1 
REMARK    1  A    between atoms: C_7  and  C_3 
REMARK    2  A    between atoms: C_9  and  C_4 
REMARK    3  A    between atoms: C_8  and  C_5 
ROOT
ATOM      1  N   UNL d   1      31.859  17.365 -23.791  0.00  0.00    -0.191 N 
ATOM      2  N   UNL d   1      31.215  16.864 -23.768  0.00  0.00    -0.163 NA
ATOM      3  C   UNL d   1      31.636  18.015 -24.281  0.00  0.00     0.110 A 
ATOM      4  C   UNL d   1      32.572  17.267 -23.421  0.00  0.00     0.303 C 
ATOM      5  C   UNL d   1      30.604  17.179 -24.224  0.00  0.00     0.103 A 
ATOM      6  C   UNL d   1      30.862  17.879 -24.536  0.00  0.00     0.042 A 
ATOM      7  O   UNL d   1      33.184  17.875 -23.523  0.00  0.00    -0.263 OA
ENDROOT
BRANCH   3   8
ATOM      8  C   UNL d   1      32.110  18.664 -24.468  0.00  0.00     0.118 A 
ATOM      9  O   UNL d   1      32.623  18.706 -25.097  0.00  0.00    -0.304 OA
ATOM     10  C   UNL d   1      32.991  19.458 -25.081  0.00  0.00     0.123 A 
ATOM     11  C   UNL d   1      32.688  19.865 -24.431  0.00  0.00     0.029 A 
ATOM     12  C   UNL d   1      32.139  19.359 -24.054  0.00  0.00     0.028 A 
ENDBRANCH   3   8
BRANCH   4  13
ATOM     13  C   UNL d   1      32.739  16.617 -22.956  0.00  0.00     0.158 A 
ATOM     14  O   UNL d   1      32.456  16.468 -22.199  0.00  0.00    -0.300 OA
ATOM     15  C   UNL d   1      32.760  15.754 -21.934  0.00  0.00     0.123 A 
ATOM     16  C   UNL d   1      33.240  15.453 -22.529  0.00  0.00     0.029 A 
ATOM     17  C   UNL d   1      33.231  15.983 -23.166  0.00  0.00     0.032 A 
ENDBRANCH   4  13
BRANCH   5  18
ATOM     18  C   UNL d   1      29.861  16.815 -24.328  0.00  0.00     0.019 A 
ATOM     19  C   UNL d   1      29.816  16.179 -24.811  0.00  0.00     0.002 A 
ATOM     20  C   UNL d   1      29.097  15.795 -24.936  0.00  0.00     0.007 A 
ATOM     21  C   UNL d   1      28.427  16.072 -24.561  0.00  0.00     0.035 A 
ATOM     22  C   UNL d   1      28.454  16.733 -24.054  0.00  0.00     0.007 A 
ATOM     23 BR   UNL d   1      27.711  15.684 -24.690  0.00  0.00    -0.049 Br
ATOM     24  C   UNL d   1      29.203  17.113 -23.939  0.00  0.00     0.002 A 
ENDBRANCH   5  18
TORSDOF 3
ENDMDL
MODEL 4
REMARK VINA RESULT:       0.8      1.877      4.104
REMARK  3 active torsions:
REMARK  status: ('A' for Active; 'I' for Inactive)
REMARK       I    between atoms: C_4  and  N_1 
REMARK    1  A    between atoms: C_7  and  C_3 
REMARK    2  A    between atoms: C_9  and  C_4 
REMARK    3  A    between atoms: C_8  and  C_5 
ROOT
ATOM      1  N   UNL d   1      33.073  21.737 -22.377  0.00  0.00    -0.191 N 
ATOM      2  N   UNL d   1      33.052  21.738 -21.560  0.00  0.00    -0.163 NA
ATOM      3  C   UNL d   1      33.032  22.546 -22.615  0.00  0.00     0.110 A 
ATOM      4  C   UNL d   1      33.123  21.096 -22.867  0.00  0.00     0.303 C 
ATOM      5  C   UNL d   1      32.999  22.514 -21.286  0.00  0.00     0.103 A 
ATOM      6  C   UNL d   1      32.987  23.005 -21.929  0.00  0.00     0.042 A 
ATOM      7  O   UNL d   1      33.138  21.225 -23.726  0.00  0.00    -0.263 OA
ENDROOT
BRANCH   3   8
ATOM      8  C   UNL d   1      33.036  22.821 -23.393  0.00  0.00     0.118 A 
ATOM      9  O   UNL d   1      33.240  22.381 -24.046  0.00  0.00    -0.304 OA
ATOM     10  C   UNL d   1      33.168  22.871 -24.720  0.00  0.00     0.123 A 
ATOM     11  C   UNL d   1      32.917  23.613 -24.460  0.00  0.00     0.029 A 
ATOM     12  C   UNL d   1      32.837  23.569 -23.628  0.00  0.00     0.028 A 
ENDBRANCH   3   8
BRANCH   4  13
ATOM     13  C   UNL d   1      33.161  20.330 -22.585  0.00  0.00     0.158 A 
ATOM     14  O   UNL d   1      33.157  20.095 -21.798  0.00  0.00    -0.300 OA
ATOM     15  C   UNL d   1      33.203  19.277 -21.762  0.00  0.00     0.123 A 
ATOM     16  C   UNL d   1      33.235  18.996 -22.533  0.00  0.00     0.029 A 
ATOM     17  C   UNL d   1      33.209  19.644 -23.049  0.00  0.00     0.032 A 
ENDBRANCH   4  13
BRANCH   5  18
ATOM     18  C   UNL d   1      32.966  22.726 -20.480  0.00  0.00     0.019 A 
ATOM     19  C   UNL d   1      32.704  23.459 -20.294  0.00  0.00     0.002 A 
ATOM     20  C   UNL d   1      32.658  23.702 -19.508  0.00  0.00     0.007 A 
ATOM     21  C   UNL d   1      32.883  23.186 -18.917  0.00  0.00     0.035 A 
ATOM     22  C   UNL d   1      33.158  22.419 -19.092  0.00  0.00     0.007 A 
ATOM     23 BR   UNL d   1      32.835  23.434 -18.133  0.00  0.00    -0.049 Br
ATOM     24  C   UNL d   1      33.198  22.188 -19.907  0.00  0.00     0.002 A 
ENDBRANCH   5  18
TORSDOF 3
ENDMDL
MODEL 5
REMARK VINA RESULT:       0.9      4.369      6.237
REMARK  3 active torsions:
REMARK  status: ('A' for Active; 'I' for Inactive)
REMARK       I    between atoms: C_4  and  N_1 
REMARK    1  A    between atoms: C_7  and  C_3 
REMARK    2  A    between atoms: C_9  and  C_4 
REMARK    3  A    between atoms: C_8  and  C_5 
ROOT
ATOM      1  N   UNL d   1      31.231  17.049 -24.137  0.00  0.00    -0.191 N 
ATOM      2  N   UNL d   1      31.828  17.604 -24.188  0.00  0.00    -0.163 NA
ATOM      3  C   UNL d   1      30.537  17.419 -24.442  0.00  0.00     0.110 A 
ATOM      4  C   UNL d   1      31.284  16.294 -23.852  0.00  0.00     0.303 C 
ATOM      5  C   UNL d   1      31.530  18.301 -24.513  0.00  0.00     0.103 A 
ATOM      6  C   UNL d   1      30.743  18.187 -24.667  0.00  0.00     0.042 A 
ATOM      7  O   UNL d   1      30.573  15.795 -23.849  0.00  0.00    -0.263 OA
ENDROOT
BRANCH   3   8
ATOM      8  C   UNL d   1      29.791  17.071 -24.503  0.00  0.00     0.118 A 
ATOM      9  O   UNL d   1      29.561  16.549 -25.081  0.00  0.00    -0.304 OA
ATOM     10  C   UNL d   1      28.766  16.334 -24.935  0.00  0.00     0.123 A 
ATOM     11  C   UNL d   1      28.523  16.738 -24.258  0.00  0.00     0.029 A 
ATOM     12  C   UNL d   1      29.172  17.196 -23.996  0.00  0.00     0.028 A 
ENDBRANCH   3   8
BRANCH   4  13
ATOM     13  C   UNL d   1      31.983  15.982 -23.566  0.00  0.00     0.158 A 
ATOM     14  O   UNL d   1      32.664  15.821 -23.997  0.00  0.00    -0.300 OA
ATOM     15  C   UNL d   1      33.233  15.513 -23.495  0.00  0.00     0.123 A 
ATOM     16  C   UNL d   1      32.908  15.478 -22.741  0.00  0.00     0.029 A 
ATOM     17  C   UNL d   1      32.132  15.768 -22.778  0.00  0.00     0.032 A 
ENDBRANCH   4  13
BRANCH   5  18
ATOM     18  C   UNL d   1      31.983  18.988 -24.647  0.00  0.00     0.019 A 
ATOM     19  C   UNL d   1      31.613  19.630 -24.951  0.00  0.00     0.002 A 
ATOM     20  C   UNL d   1      32.031  20.325 -25.097  0.00  0.00     0.007 A 
ATOM     21  C   UNL d   1      32.829  20.354 -24.927  0.00  0.00     0.035 A 
ATOM     22  C   UNL d   1      33.230  19.697 -24.611  0.00  0.00     0.007 A 
ATOM     23 BR   UNL d   1      33.241  21.053 -25.075  0.00  0.00    -0.049 Br
ATOM     24  C   UNL d   1      32.783  18.990 -24.468  0.00  0.00     0.002 A 
ENDBRANCH   5  18
TORSDOF 3
ENDMDL
