MODEL 1
REMARK VINA RESULT:      88.6      0.000      0.000
REMARK  5 active torsions:
REMARK  status: ('A' for Active; 'I' for Inactive)
REMARK    1  A    between atoms: C_2  and  S_1 
REMARK    2  A    between atoms: N_4  and  S_1 
REMARK    3  A    between atoms: C_15  and  N_4 
REMARK    4  A    between atoms: N_7  and  C_6 
REMARK    5  A    between atoms: C_12  and  C_13 
ROOT
ATOM      1  C   UNL d   1     -49.464  27.688  34.393  0.00  0.00     0.021 A 
ATOM      2  C   UNL d   1     -49.027  29.044  34.288  0.00  0.00     0.094 A 
ATOM      3  C   UNL d   1     -49.583  28.458  34.120  0.00  0.00     0.021 A 
ATOM      4  C   UNL d   1     -48.790  27.505  34.834  0.00  0.00     0.002 A 
ATOM      5  C   UNL d   1     -48.238  28.092  34.999  0.00  0.00     0.002 A 
ATOM      6  C   UNL d   1     -48.357  28.861  34.726  0.00  0.00     0.020 A 
ENDROOT
BRANCH   1   7
ATOM      7  C   UNL d   1     -50.020  27.101  34.226  0.00  0.00     0.103 A 
ATOM      8  N   UNL d   1     -50.364  27.060  33.477  0.00  0.00    -0.147 NA
ATOM      9  N   UNL d   1     -50.920  26.472  33.309  0.00  0.00    -0.130 NA
ATOM     10  C   UNL d   1     -51.130  25.926  33.891  0.00  0.00     0.170 A 
ATOM     11  C   UNL d   1     -50.785  25.967  34.639  0.00  0.00     0.041 A 
ATOM     12  C   UNL d   1     -50.230  26.554  34.807  0.00  0.00     0.024 A 
BRANCH  10  13
ATOM     13  N   UNL d   1     -51.680  25.343  33.728  0.00  0.00    -0.284 N 
ATOM     14  C   UNL d   1     -51.433  24.600  33.469  0.00  0.00     0.108 A 
ATOM     15  C   UNL d   1     -51.983  24.016  33.306  0.00  0.00     0.142 A 
ATOM     16  O   UNL d   1     -52.787  24.173  33.403  0.00  0.00    -0.300 OA
ATOM     17  C   UNL d   1     -53.034  24.917  33.663  0.00  0.00     0.142 A 
ATOM     18  C   UNL d   1     -52.476  25.502  33.826  0.00  0.00     0.108 A 
ENDBRANCH  10  13
ENDBRANCH   1   7
BRANCH   2  19
ATOM     19  N   UNL d   1     -49.146  29.814  34.015  0.00  0.00    -0.158 NA
BRANCH  19  20
ATOM     20  S   UNL d   1     -48.651  30.421  34.265  0.00  0.00     0.285 S 
ATOM     21  O   UNL d   1     -49.153  30.977  33.913  0.00  0.00    -0.198 OA
ATOM     22  O   UNL d   1     -48.147  29.860  34.619  0.00  0.00    -0.198 OA
BRANCH  20  23
ATOM     23  C   UNL d   1     -48.159  31.038  34.513  0.00  0.00     0.106 A 
ATOM     24  C   UNL d   1     -47.979  31.657  34.011  0.00  0.00     0.025 A 
ATOM     25  C   UNL d   1     -47.490  32.271  34.256  0.00  0.00     0.069 A 
ATOM     26 CL   UNL d   1     -47.308  32.897  33.749  0.00  0.00    -0.082 Cl
ATOM     27  C   UNL d   1     -47.177  32.260  35.019  0.00  0.00     0.068 A 
ATOM     28  C   UNL d   1     -47.357  31.636  35.529  0.00  0.00     0.013 A 
ATOM     29 CL   UNL d   1     -46.679  32.876  35.284  0.00  0.00    -0.082 Cl
ATOM     30  C   UNL d   1     -47.846  31.027  35.276  0.00  0.00     0.014 A 
ENDBRANCH  20  23
ENDBRANCH  19  20
ENDBRANCH   2  19
TORSDOF 5
ENDMDL
MODEL 2
REMARK VINA RESULT:      89.8      2.624      3.062
REMARK  5 active torsions:
REMARK  status: ('A' for Active; 'I' for Inactive)
REMARK    1  A    between atoms: C_2  and  S_1 
REMARK    2  A    between atoms: N_4  and  S_1 
REMARK    3  A    between atoms: C_15  and  N_4 
REMARK    4  A    between atoms: N_7  and  C_6 
REMARK    5  A    between atoms: C_12  and  C_13 
ROOT
ATOM      1  C   UNL d   1     -48.445  28.617  35.927  0.00  0.00     0.021 A 
ATOM      2  C   UNL d   1     -47.633  29.768  35.687  0.00  0.00     0.094 A 
ATOM      3  C   UNL d   1     -48.212  29.382  36.131  0.00  0.00     0.021 A 
ATOM      4  C   UNL d   1     -48.100  28.239  35.279  0.00  0.00     0.002 A 
ATOM      5  C   UNL d   1     -47.524  28.626  34.839  0.00  0.00     0.002 A 
ATOM      6  C   UNL d   1     -47.290  29.390  35.043  0.00  0.00     0.020 A 
ENDROOT
BRANCH   1   7
ATOM      7  C   UNL d   1     -49.024  28.230  36.370  0.00  0.00     0.103 A 
ATOM      8  N   UNL d   1     -49.402  27.563  36.064  0.00  0.00    -0.147 NA
ATOM      9  N   UNL d   1     -49.981  27.176  36.507  0.00  0.00    -0.130 NA
ATOM     10  C   UNL d   1     -50.182  27.456  37.257  0.00  0.00     0.170 A 
ATOM     11  C   UNL d   1     -49.805  28.123  37.562  0.00  0.00     0.041 A 
ATOM     12  C   UNL d   1     -49.226  28.510  37.120  0.00  0.00     0.024 A 
BRANCH  10  13
ATOM     13  N   UNL d   1     -50.755  27.075  37.698  0.00  0.00    -0.284 N 
ATOM     14  C   UNL d   1     -50.783  27.174  38.517  0.00  0.00     0.108 A 
ATOM     15  C   UNL d   1     -51.356  26.794  38.960  0.00  0.00     0.142 A 
ATOM     16  O   UNL d   1     -51.908  26.308  38.583  0.00  0.00    -0.300 OA
ATOM     17  C   UNL d   1     -51.879  26.208  37.765  0.00  0.00     0.142 A 
ATOM     18  C   UNL d   1     -51.299  26.595  37.323  0.00  0.00     0.108 A 
ENDBRANCH  10  13
ENDBRANCH   1   7
BRANCH   2  19
ATOM     19  N   UNL d   1     -47.399  30.532  35.891  0.00  0.00    -0.158 NA
BRANCH  19  20
ATOM     20  S   UNL d   1     -47.532  31.156  35.372  0.00  0.00     0.285 S 
ATOM     21  O   UNL d   1     -46.899  31.571  35.708  0.00  0.00    -0.198 OA
ATOM     22  O   UNL d   1     -48.169  30.737  35.035  0.00  0.00    -0.198 OA
BRANCH  20  23
ATOM     23  C   UNL d   1     -47.658  31.788  34.854  0.00  0.00     0.106 A 
ATOM     24  C   UNL d   1     -47.045  32.091  34.407  0.00  0.00     0.025 A 
ATOM     25  C   UNL d   1     -47.169  32.719  33.891  0.00  0.00     0.069 A 
ATOM     26 CL   UNL d   1     -46.549  33.027  33.438  0.00  0.00    -0.082 Cl
ATOM     27  C   UNL d   1     -47.923  33.047  33.825  0.00  0.00     0.068 A 
ATOM     28  C   UNL d   1     -48.545  32.744  34.276  0.00  0.00     0.013 A 
ATOM     29 CL   UNL d   1     -48.066  33.686  33.306  0.00  0.00    -0.082 Cl
ATOM     30  C   UNL d   1     -48.412  32.116  34.788  0.00  0.00     0.014 A 
ENDBRANCH  20  23
ENDBRANCH  19  20
ENDBRANCH   2  19
TORSDOF 5
ENDMDL
