MODEL 1
REMARK VINA RESULT:      58.9      0.000      0.000
REMARK  5 active torsions:
REMARK  status: ('A' for Active; 'I' for Inactive)
REMARK    1  A    between atoms: C_8  and  S_1 
REMARK    2  A    between atoms: N_10  and  S_1 
REMARK    3  A    between atoms: C_6  and  C_17 
REMARK    4  A    between atoms: C_18  and  N_10 
REMARK    5  A    between atoms: O_24  and  C_19 
ROOT
ATOM      1  C   UNL d   1     -50.813  26.133  33.454  0.00  0.00     0.021 A 
ATOM      2  C   UNL d   1     -49.688  26.994  33.694  0.00  0.00     0.094 A 
ATOM      3  C   UNL d   1     -50.011  26.236  33.650  0.00  0.00     0.021 A 
ATOM      4  C   UNL d   1     -51.280  26.793  33.306  0.00  0.00     0.002 A 
ATOM      5  C   UNL d   1     -50.968  27.548  33.347  0.00  0.00     0.002 A 
ATOM      6  C   UNL d   1     -50.167  27.651  33.542  0.00  0.00     0.020 A 
ENDROOT
BRANCH   2   7
ATOM      7  N   UNL d   1     -48.898  27.096  33.887  0.00  0.00    -0.158 NA
BRANCH   7   8
ATOM      8  S   UNL d   1     -48.678  27.689  34.409  0.00  0.00     0.285 S 
ATOM      9  O   UNL d   1     -48.498  28.172  33.760  0.00  0.00    -0.198 OA
ATOM     10  O   UNL d   1     -48.857  27.212  35.063  0.00  0.00    -0.198 OA
BRANCH   8  11
ATOM     11  C   UNL d   1     -48.453  28.300  34.932  0.00  0.00     0.108 A 
ATOM     12  C   UNL d   1     -48.179  29.003  34.634  0.00  0.00     0.045 A 
ATOM     13  C   UNL d   1     -47.952  29.614  35.136  0.00  0.00     0.163 A 
ATOM     14  F   UNL d   1     -47.677  30.320  34.836  0.00  0.00    -0.202 F 
ATOM     15  C   UNL d   1     -48.009  29.500  35.956  0.00  0.00     0.121 A 
ATOM     16  C   UNL d   1     -48.287  28.786  36.259  0.00  0.00     0.027 A 
ATOM     17  C   UNL d   1     -48.516  28.168  35.748  0.00  0.00     0.015 A 
BRANCH  15  18
ATOM     18  O   UNL d   1     -47.790  30.092  36.461  0.00  0.00    -0.326 OA
ATOM     19  C   UNL d   1     -47.084  30.478  36.362  0.00  0.00     0.181 C 
ENDBRANCH  15  18
ENDBRANCH   8  11
ENDBRANCH   7   8
ENDBRANCH   2   7
BRANCH   1  20
ATOM     20  C   UNL d   1     -51.123  25.371  33.413  0.00  0.00     0.102 A 
ATOM     21  N   UNL d   1     -51.950  25.277  33.436  0.00  0.00    -0.162 NA
ATOM     22  N   UNL d   1     -52.272  24.508  33.395  0.00  0.00    -0.189 N 
ATOM     23  C   UNL d   1     -53.044  24.246  33.404  0.00  0.00     0.224 A 
ATOM     24  C   UNL d   1     -51.773  23.844  33.333  0.00  0.00     0.187 A 
ATOM     25  N   UNL d   1     -53.038  23.435  33.349  0.00  0.00    -0.124 NA
ATOM     26  N   UNL d   1     -52.253  23.197  33.306  0.00  0.00    -0.127 NA
ATOM     27  C   UNL d   1     -50.946  23.962  33.312  0.00  0.00     0.042 A 
ATOM     28  C   UNL d   1     -50.627  24.727  33.352  0.00  0.00     0.024 A 
ENDBRANCH   1  20
TORSDOF 5
ENDMDL
MODEL 2
REMARK VINA RESULT:      60.8      2.531      5.952
REMARK  5 active torsions:
REMARK  status: ('A' for Active; 'I' for Inactive)
REMARK    1  A    between atoms: C_8  and  S_1 
REMARK    2  A    between atoms: N_10  and  S_1 
REMARK    3  A    between atoms: C_6  and  C_17 
REMARK    4  A    between atoms: C_18  and  N_10 
REMARK    5  A    between atoms: O_24  and  C_19 
ROOT
ATOM      1  C   UNL d   1     -48.363  29.016  34.907  0.00  0.00     0.021 A 
ATOM      2  C   UNL d   1     -49.030  28.046  34.084  0.00  0.00     0.094 A 
ATOM      3  C   UNL d   1     -48.721  28.804  34.188  0.00  0.00     0.021 A 
ATOM      4  C   UNL d   1     -48.318  28.463  35.514  0.00  0.00     0.002 A 
ATOM      5  C   UNL d   1     -48.621  27.710  35.420  0.00  0.00     0.002 A 
ATOM      6  C   UNL d   1     -48.980  27.498  34.701  0.00  0.00     0.020 A 
ENDROOT
BRANCH   2   7
ATOM      7  N   UNL d   1     -49.383  27.837  33.374  0.00  0.00    -0.158 NA
BRANCH   7   8
ATOM      8  S   UNL d   1     -49.956  27.249  33.361  0.00  0.00     0.285 S 
ATOM      9  O   UNL d   1     -50.538  27.837  33.416  0.00  0.00    -0.198 OA
ATOM     10  O   UNL d   1     -49.379  26.656  33.307  0.00  0.00    -0.198 OA
BRANCH   8  11
ATOM     11  C   UNL d   1     -50.546  26.659  33.349  0.00  0.00     0.108 A 
ATOM     12  C   UNL d   1     -51.328  26.873  33.348  0.00  0.00     0.045 A 
ATOM     13  C   UNL d   1     -51.922  26.304  33.336  0.00  0.00     0.163 A 
ATOM     14  F   UNL d   1     -52.708  26.520  33.335  0.00  0.00    -0.202 F 
ATOM     15  C   UNL d   1     -51.707  25.502  33.324  0.00  0.00     0.121 A 
ATOM     16  C   UNL d   1     -50.913  25.284  33.325  0.00  0.00     0.027 A 
ATOM     17  C   UNL d   1     -50.313  25.864  33.338  0.00  0.00     0.015 A 
BRANCH  15  18
ATOM     18  O   UNL d   1     -52.280  24.932  33.312  0.00  0.00    -0.326 OA
ATOM     19  C   UNL d   1     -52.176  24.236  33.716  0.00  0.00     0.181 C 
ENDBRANCH  15  18
ENDBRANCH   8  11
ENDBRANCH   7   8
ENDBRANCH   2   7
BRANCH   1  20
ATOM     20  C   UNL d   1     -48.059  29.777  34.998  0.00  0.00     0.102 A 
ATOM     21  N   UNL d   1     -48.321  30.374  34.480  0.00  0.00    -0.162 NA
ATOM     22  N   UNL d   1     -48.017  31.147  34.566  0.00  0.00    -0.189 N 
ATOM     23  C   UNL d   1     -48.165  31.833  34.151  0.00  0.00     0.224 A 
ATOM     24  C   UNL d   1     -47.461  31.317  35.161  0.00  0.00     0.187 A 
ATOM     25  N   UNL d   1     -47.714  32.426  34.474  0.00  0.00    -0.124 NA
ATOM     26  N   UNL d   1     -47.284  32.101  35.094  0.00  0.00    -0.127 NA
ATOM     27  C   UNL d   1     -47.212  30.702  35.670  0.00  0.00     0.042 A 
ATOM     28  C   UNL d   1     -47.514  29.935  35.583  0.00  0.00     0.024 A 
ENDBRANCH   1  20
TORSDOF 5
ENDMDL
