MODEL 1
REMARK VINA RESULT:       0.9      0.000      0.000
REMARK  5 active torsions:
REMARK  status: ('A' for Active; 'I' for Inactive)
REMARK    1  A    between atoms: O_4  and  C_1 
REMARK    2  A    between atoms: C_10  and  C_2 
REMARK    3  A    between atoms: C_5  and  O_4 
REMARK    4  A    between atoms: C_7  and  C_5 
REMARK    5  A    between atoms: N_12  and  C_10 
ROOT
ATOM      1  C   UNL d   1      57.725  -0.588  31.267  0.00  0.00     0.122 A 
ATOM      2  C   UNL d   1      58.031   0.155  31.464  0.00  0.00     0.043 A 
ATOM      3  C   UNL d   1      57.093  -0.900  31.699  0.00  0.00     0.105 A 
ATOM      4  C   UNL d   1      56.768  -0.472  32.325  0.00  0.00     0.030 A 
ATOM      5  C   UNL d   1      57.078   0.265  32.514  0.00  0.00     0.059 A 
ATOM      6  C   UNL d   1      57.706   0.583  32.090  0.00  0.00     0.015 A 
ATOM      7  N   UNL d   1      56.792  -1.638  31.501  0.00  0.00    -0.242 NA
ATOM      8 CL   UNL d   1      56.731   0.681  33.153  0.00  0.00    -0.082 Cl
ATOM      9  C   UNL d   1      56.144  -0.784  32.748  0.00  0.00     0.004 A 
ATOM     10  C   UNL d   1      56.159  -1.949  31.934  0.00  0.00     0.099 A 
ATOM     11  C   UNL d   1      55.835  -1.521  32.559  0.00  0.00     0.021 A 
ENDROOT
BRANCH   1  12
ATOM     12  O   UNL d   1      58.012  -0.985  30.702  0.00  0.00    -0.271 OA
BRANCH  12  13
ATOM     13  C   UNL d   1      58.012  -1.023  29.736  0.00  0.00     0.306 C 
ATOM     14  O   UNL d   1      57.348  -0.404  29.301  0.00  0.00    -0.258 OA
BRANCH  13  15
ATOM     15  C   UNL d   1      58.521  -1.527  29.325  0.00  0.00     0.093 A 
ATOM     16  S   UNL d   1      58.582  -2.335  29.436  0.00  0.00    -0.081 SA
ATOM     17  C   UNL d   1      59.174  -2.615  28.891  0.00  0.00     0.036 A 
ATOM     18  C   UNL d   1      59.452  -1.968  28.470  0.00  0.00     0.008 A 
ATOM     19  C   UNL d   1      59.035  -1.288  28.750  0.00  0.00     0.012 A 
ENDBRANCH  13  15
ENDBRANCH  12  13
ENDBRANCH   1  12
BRANCH   2  20
ATOM     20  C   UNL d   1      58.709   0.652  31.113  0.00  0.00     0.082 C 
BRANCH  20  21
ATOM     21  N   UNL d   1      59.452   0.632  31.467  0.00  0.00    -0.299 N 
ATOM     22  C   UNL d   1      60.125   0.562  31.013  0.00  0.00     0.107 A 
ATOM     23  C   UNL d   1      60.867   0.542  31.362  0.00  0.00     0.142 A 
ATOM     24  O   UNL d   1      60.928   0.593  32.189  0.00  0.00    -0.300 OA
ATOM     25  C   UNL d   1      60.257   0.663  32.651  0.00  0.00     0.142 A 
ATOM     26  C   UNL d   1      59.516   0.682  32.280  0.00  0.00     0.107 A 
ENDBRANCH  20  21
ENDBRANCH   2  20
TORSDOF 5
ENDMDL
MODEL 2
REMARK VINA RESULT:       2.1      1.541      3.347
REMARK  5 active torsions:
REMARK  status: ('A' for Active; 'I' for Inactive)
REMARK    1  A    between atoms: O_4  and  C_1 
REMARK    2  A    between atoms: C_10  and  C_2 
REMARK    3  A    between atoms: C_5  and  O_4 
REMARK    4  A    between atoms: C_7  and  C_5 
REMARK    5  A    between atoms: N_12  and  C_10 
ROOT
ATOM      1  C   UNL d   1      58.032   0.482  31.840  0.00  0.00     0.122 A 
ATOM      2  C   UNL d   1      57.370   0.481  32.336  0.00  0.00     0.043 A 
ATOM      3  C   UNL d   1      58.789   0.548  32.165  0.00  0.00     0.105 A 
ATOM      4  C   UNL d   1      58.884   0.613  32.982  0.00  0.00     0.030 A 
ATOM      5  C   UNL d   1      58.222   0.611  33.467  0.00  0.00     0.059 A 
ATOM      6  C   UNL d   1      57.465   0.546  33.153  0.00  0.00     0.015 A 
ATOM      7  N   UNL d   1      59.444   0.549  31.670  0.00  0.00    -0.242 NA
ATOM      8 CL   UNL d   1      58.344   0.678  34.293  0.00  0.00    -0.082 Cl
ATOM      9  C   UNL d   1      59.634   0.678  33.298  0.00  0.00     0.004 A 
ATOM     10  C   UNL d   1      60.201   0.615  31.995  0.00  0.00     0.099 A 
ATOM     11  C   UNL d   1      60.297   0.680  32.812  0.00  0.00     0.021 A 
ENDROOT
BRANCH   1  12
ATOM     12  O   UNL d   1      57.957   0.423  31.098  0.00  0.00    -0.271 OA
BRANCH  12  13
ATOM     13  C   UNL d   1      57.930  -0.241  30.396  0.00  0.00     0.306 C 
ATOM     14  O   UNL d   1      57.518  -1.117  30.676  0.00  0.00    -0.258 OA
BRANCH  13  15
ATOM     15  C   UNL d   1      58.224  -0.082  29.642  0.00  0.00     0.093 A 
ATOM     16  S   UNL d   1      58.131   0.620  29.233  0.00  0.00    -0.081 SA
ATOM     17  C   UNL d   1      58.526   0.525  28.484  0.00  0.00     0.036 A 
ATOM     18  C   UNL d   1      58.844  -0.231  28.465  0.00  0.00     0.008 A 
ATOM     19  C   UNL d   1      58.649  -0.605  29.197  0.00  0.00     0.012 A 
ENDBRANCH  13  15
ENDBRANCH  12  13
ENDBRANCH   1  12
BRANCH   2  20
ATOM     20  C   UNL d   1      56.476   0.418  32.167  0.00  0.00     0.082 C 
BRANCH  20  21
ATOM     21  N   UNL d   1      55.975   0.120  32.748  0.00  0.00    -0.299 N 
ATOM     22  C   UNL d   1      55.709  -0.649  32.710  0.00  0.00     0.107 A 
ATOM     23  C   UNL d   1      55.209  -0.949  33.287  0.00  0.00     0.142 A 
ATOM     24  O   UNL d   1      54.973  -0.459  33.915  0.00  0.00    -0.300 OA
ATOM     25  C   UNL d   1      55.236   0.313  33.959  0.00  0.00     0.142 A 
ATOM     26  C   UNL d   1      55.741   0.600  33.367  0.00  0.00     0.107 A 
ENDBRANCH  20  21
ENDBRANCH   2  20
TORSDOF 5
ENDMDL
