MODEL 1
REMARK VINA RESULT:      -8.0      0.000      0.000
REMARK  6 active torsions:
REMARK  status: ('A' for Active; 'I' for Inactive)
REMARK    1  A    between atoms: C_2  and  C_4 
REMARK    2  A    between atoms: C_5  and  C_3 
REMARK    3  A    between atoms: C_16  and  C_15 
REMARK    4  A    between atoms: C_17  and  C_16 
REMARK    5  A    between atoms: C_19  and  C_17 
REMARK    6  A    between atoms: C_18  and  C_19 
ROOT
ATOM      1  N   UNL d   1      51.370  33.534  53.586  0.00  0.00    -0.244 NA
ATOM      2  C   UNL d   1      52.095  33.886  53.348  0.00  0.00     0.081 A 
ATOM      3  C   UNL d   1      52.125  34.327  52.627  0.00  0.00     0.019 A 
ATOM      4  C   UNL d   1      50.658  33.614  53.108  0.00  0.00     0.099 A 
ATOM      5  C   UNL d   1      51.455  34.408  52.169  0.00  0.00     0.003 A 
ATOM      6  C   UNL d   1      50.730  34.055  52.407  0.00  0.00     0.019 A 
ENDROOT
BRANCH   2   7
ATOM      7  C   UNL d   1      52.732  33.797  53.805  0.00  0.00     0.018 A 
ATOM      8  C   UNL d   1      53.164  33.108  53.761  0.00  0.00     0.002 A 
ATOM      9  C   UNL d   1      53.846  33.026  54.258  0.00  0.00     0.006 A 
ATOM     10  C   UNL d   1      54.061  33.629  54.768  0.00  0.00     0.064 A 
ATOM     11  C   UNL d   1      53.596  34.342  54.799  0.00  0.00     0.006 A 
ATOM     12  C   UNL d   1      52.944  34.402  54.313  0.00  0.00     0.002 A 
BRANCH  10  13
ATOM     13  C   UNL d   1      54.742  33.549  55.264  0.00  0.00     0.211 C 
ATOM     14  O   UNL d   1      55.425  34.028  55.192  0.00  0.00    -0.644 OA
ATOM     15  O   UNL d   1      54.752  32.956  55.876  0.00  0.00    -0.644 OA
ENDBRANCH  10  13
ENDBRANCH   2   7
BRANCH   6  16
ATOM     16  C   UNL d   1      50.015  34.134  51.930  0.00  0.00     0.002 C 
BRANCH  16  17
ATOM     17  C   UNL d   1      49.463  34.685  52.164  0.00  0.00     0.000 C 
BRANCH  17  18
ATOM     18  C   UNL d   1      48.783  34.825  51.678  0.00  0.00     0.000 C 
BRANCH  18  19
ATOM     19  C   UNL d   1      48.201  35.323  51.892  0.00  0.00     0.000 C 
ATOM     20  C   UNL d   1      47.553  35.458  51.410  0.00  0.00     0.000 C 
ENDBRANCH  18  19
ENDBRANCH  17  18
ENDBRANCH  16  17
ENDBRANCH   6  16
TORSDOF 6
ENDMDL
MODEL 2
REMARK VINA RESULT:      -7.7      2.742      4.476
REMARK  6 active torsions:
REMARK  status: ('A' for Active; 'I' for Inactive)
REMARK    1  A    between atoms: C_2  and  C_4 
REMARK    2  A    between atoms: C_5  and  C_3 
REMARK    3  A    between atoms: C_16  and  C_15 
REMARK    4  A    between atoms: C_17  and  C_16 
REMARK    5  A    between atoms: C_19  and  C_17 
REMARK    6  A    between atoms: C_18  and  C_19 
ROOT
ATOM      1  N   UNL d   1      52.483  32.502  53.503  0.00  0.00    -0.244 NA
ATOM      2  C   UNL d   1      53.178  32.903  53.755  0.00  0.00     0.081 A 
ATOM      3  C   UNL d   1      53.903  32.473  53.823  0.00  0.00     0.019 A 
ATOM      4  C   UNL d   1      52.499  31.662  53.312  0.00  0.00     0.099 A 
ATOM      5  C   UNL d   1      53.925  31.678  53.644  0.00  0.00     0.003 A 
ATOM      6  C   UNL d   1      53.231  31.277  53.392  0.00  0.00     0.019 A 
ENDROOT
BRANCH   2   7
ATOM      7  C   UNL d   1      53.136  33.673  53.923  0.00  0.00     0.018 A 
ATOM      8  C   UNL d   1      52.837  34.189  53.369  0.00  0.00     0.002 A 
ATOM      9  C   UNL d   1      52.798  35.013  53.564  0.00  0.00     0.006 A 
ATOM     10  C   UNL d   1      53.056  35.278  54.293  0.00  0.00     0.064 A 
ATOM     11  C   UNL d   1      53.366  34.722  54.859  0.00  0.00     0.006 A 
ATOM     12  C   UNL d   1      53.395  33.934  54.654  0.00  0.00     0.002 A 
BRANCH  10  13
ATOM     13  C   UNL d   1      53.018  36.101  54.489  0.00  0.00     0.211 C 
ATOM     14  O   UNL d   1      53.594  36.660  54.249  0.00  0.00    -0.644 OA
ATOM     15  O   UNL d   1      52.368  36.395  54.954  0.00  0.00    -0.644 OA
ENDBRANCH  10  13
ENDBRANCH   2   7
BRANCH   6  16
ATOM     16  C   UNL d   1      53.243  30.436  53.200  0.00  0.00     0.002 C 
BRANCH  16  17
ATOM     17  C   UNL d   1      53.573  29.929  53.744  0.00  0.00     0.000 C 
BRANCH  17  18
ATOM     18  C   UNL d   1      53.187  29.194  53.917  0.00  0.00     0.000 C 
BRANCH  18  19
ATOM     19  C   UNL d   1      53.529  28.626  54.356  0.00  0.00     0.000 C 
ATOM     20  C   UNL d   1      53.312  28.499  55.136  0.00  0.00     0.000 C 
ENDBRANCH  18  19
ENDBRANCH  17  18
ENDBRANCH  16  17
ENDBRANCH   6  16
TORSDOF 6
ENDMDL
MODEL 3
REMARK VINA RESULT:      -7.6      2.824      5.318
REMARK  6 active torsions:
REMARK  status: ('A' for Active; 'I' for Inactive)
REMARK    1  A    between atoms: C_2  and  C_4 
REMARK    2  A    between atoms: C_5  and  C_3 
REMARK    3  A    between atoms: C_16  and  C_15 
REMARK    4  A    between atoms: C_17  and  C_16 
REMARK    5  A    between atoms: C_19  and  C_17 
REMARK    6  A    between atoms: C_18  and  C_19 
ROOT
ATOM      1  N   UNL d   1      50.841  33.368  53.125  0.00  0.00    -0.244 NA
ATOM      2  C   UNL d   1      50.836  34.109  52.726  0.00  0.00     0.081 A 
ATOM      3  C   UNL d   1      51.567  34.509  52.587  0.00  0.00     0.019 A 
ATOM      4  C   UNL d   1      51.579  33.013  53.393  0.00  0.00     0.099 A 
ATOM      5  C   UNL d   1      52.269  34.179  52.837  0.00  0.00     0.003 A 
ATOM      6  C   UNL d   1      52.275  33.439  53.236  0.00  0.00     0.019 A 
ENDROOT
BRANCH   2   7
ATOM      7  C   UNL d   1      50.146  34.412  52.492  0.00  0.00     0.018 A 
ATOM      8  C   UNL d   1      49.701  34.849  53.016  0.00  0.00     0.002 A 
ATOM      9  C   UNL d   1      48.962  35.168  52.750  0.00  0.00     0.006 A 
ATOM     10  C   UNL d   1      48.707  35.038  51.984  0.00  0.00     0.064 A 
ATOM     11  C   UNL d   1      49.187  34.578  51.451  0.00  0.00     0.006 A 
ATOM     12  C   UNL d   1      49.894  34.279  51.725  0.00  0.00     0.002 A 
BRANCH  10  13
ATOM     13  C   UNL d   1      47.969  35.356  51.716  0.00  0.00     0.211 C 
ATOM     14  O   UNL d   1      47.627  36.053  52.030  0.00  0.00    -0.644 OA
ATOM     15  O   UNL d   1      47.538  34.962  51.097  0.00  0.00    -0.644 OA
ENDBRANCH  10  13
ENDBRANCH   2   7
BRANCH   6  16
ATOM     16  C   UNL d   1      53.012  33.080  53.505  0.00  0.00     0.002 C 
BRANCH  16  17
ATOM     17  C   UNL d   1      53.345  33.369  54.189  0.00  0.00     0.000 C 
BRANCH  17  18
ATOM     18  C   UNL d   1      54.113  33.099  54.424  0.00  0.00     0.000 C 
BRANCH  18  19
ATOM     19  C   UNL d   1      54.423  33.263  55.138  0.00  0.00     0.000 C 
ATOM     20  C   UNL d   1      55.133  33.662  55.216  0.00  0.00     0.000 C 
ENDBRANCH  18  19
ENDBRANCH  17  18
ENDBRANCH  16  17
ENDBRANCH   6  16
TORSDOF 6
ENDMDL
MODEL 4
REMARK VINA RESULT:      -7.0      3.117      5.372
REMARK  6 active torsions:
REMARK  status: ('A' for Active; 'I' for Inactive)
REMARK    1  A    between atoms: C_2  and  C_4 
REMARK    2  A    between atoms: C_5  and  C_3 
REMARK    3  A    between atoms: C_16  and  C_15 
REMARK    4  A    between atoms: C_17  and  C_16 
REMARK    5  A    between atoms: C_19  and  C_17 
REMARK    6  A    between atoms: C_18  and  C_19 
ROOT
ATOM      1  N   UNL d   1      50.353  33.645  53.166  0.00  0.00    -0.244 NA
ATOM      2  C   UNL d   1      50.362  34.216  52.549  0.00  0.00     0.081 A 
ATOM      3  C   UNL d   1      51.092  34.397  52.163  0.00  0.00     0.019 A 
ATOM      4  C   UNL d   1      51.074  33.242  53.410  0.00  0.00     0.099 A 
ATOM      5  C   UNL d   1      51.779  34.020  52.388  0.00  0.00     0.003 A 
ATOM      6  C   UNL d   1      51.770  33.448  53.005  0.00  0.00     0.019 A 
ENDROOT
BRANCH   2   7
ATOM      7  C   UNL d   1      49.687  34.571  52.346  0.00  0.00     0.018 A 
ATOM      8  C   UNL d   1      49.378  34.448  51.602  0.00  0.00     0.002 A 
ATOM      9  C   UNL d   1      48.653  34.835  51.398  0.00  0.00     0.006 A 
ATOM     10  C   UNL d   1      48.276  35.320  51.938  0.00  0.00     0.064 A 
ATOM     11  C   UNL d   1      48.615  35.436  52.710  0.00  0.00     0.006 A 
ATOM     12  C   UNL d   1      49.314  35.055  52.889  0.00  0.00     0.002 A 
BRANCH  10  13
ATOM     13  C   UNL d   1      47.551  35.708  51.735  0.00  0.00     0.211 C 
ATOM     14  O   UNL d   1      47.391  36.510  51.914  0.00  0.00    -0.644 OA
ATOM     15  O   UNL d   1      46.940  35.276  51.328  0.00  0.00    -0.644 OA
ENDBRANCH  10  13
ENDBRANCH   2   7
BRANCH   6  16
ATOM     16  C   UNL d   1      52.490  33.042  53.252  0.00  0.00     0.002 C 
BRANCH  16  17
ATOM     17  C   UNL d   1      52.574  32.260  53.042  0.00  0.00     0.000 C 
BRANCH  17  18
ATOM     18  C   UNL d   1      53.236  31.819  53.336  0.00  0.00     0.000 C 
BRANCH  18  19
ATOM     19  C   UNL d   1      53.412  31.090  53.074  0.00  0.00     0.000 C 
ATOM     20  C   UNL d   1      53.599  30.482  53.591  0.00  0.00     0.000 C 
ENDBRANCH  18  19
ENDBRANCH  17  18
ENDBRANCH  16  17
ENDBRANCH   6  16
TORSDOF 6
ENDMDL
MODEL 5
REMARK VINA RESULT:      -6.7      1.762      2.225
REMARK  6 active torsions:
REMARK  status: ('A' for Active; 'I' for Inactive)
REMARK    1  A    between atoms: C_2  and  C_4 
REMARK    2  A    between atoms: C_5  and  C_3 
REMARK    3  A    between atoms: C_16  and  C_15 
REMARK    4  A    between atoms: C_17  and  C_16 
REMARK    5  A    between atoms: C_19  and  C_17 
REMARK    6  A    between atoms: C_18  and  C_19 
ROOT
ATOM      1  N   UNL d   1      51.090  32.878  53.432  0.00  0.00    -0.244 NA
ATOM      2  C   UNL d   1      51.844  32.884  53.060  0.00  0.00     0.081 A 
ATOM      3  C   UNL d   1      52.060  33.540  52.572  0.00  0.00     0.019 A 
ATOM      4  C   UNL d   1      50.535  33.527  53.325  0.00  0.00     0.099 A 
ATOM      5  C   UNL d   1      51.540  34.159  52.466  0.00  0.00     0.003 A 
ATOM      6  C   UNL d   1      50.786  34.153  52.838  0.00  0.00     0.019 A 
ENDROOT
BRANCH   2   7
ATOM      7  C   UNL d   1      52.333  32.275  53.175  0.00  0.00     0.018 A 
ATOM      8  C   UNL d   1      53.026  32.390  53.587  0.00  0.00     0.002 A 
ATOM      9  C   UNL d   1      53.541  31.727  53.703  0.00  0.00     0.006 A 
ATOM     10  C   UNL d   1      53.342  30.992  53.406  0.00  0.00     0.064 A 
ATOM     11  C   UNL d   1      52.613  30.892  52.978  0.00  0.00     0.006 A 
ATOM     12  C   UNL d   1      52.130  31.541  52.876  0.00  0.00     0.002 A 
BRANCH  10  13
ATOM     13  C   UNL d   1      53.856  30.328  53.521  0.00  0.00     0.211 C 
ATOM     14  O   UNL d   1      53.660  29.671  54.001  0.00  0.00    -0.644 OA
ATOM     15  O   UNL d   1      54.616  30.311  53.138  0.00  0.00    -0.644 OA
ENDBRANCH  10  13
ENDBRANCH   2   7
BRANCH   6  16
ATOM     16  C   UNL d   1      50.228  34.802  52.732  0.00  0.00     0.002 C 
BRANCH  16  17
ATOM     17  C   UNL d   1      49.516  34.635  52.374  0.00  0.00     0.000 C 
BRANCH  17  18
ATOM     18  C   UNL d   1      48.925  35.240  52.319  0.00  0.00     0.000 C 
BRANCH  18  19
ATOM     19  C   UNL d   1      48.350  35.226  51.771  0.00  0.00     0.000 C 
ATOM     20  C   UNL d   1      47.681  35.694  51.839  0.00  0.00     0.000 C 
ENDBRANCH  18  19
ENDBRANCH  17  18
ENDBRANCH  16  17
ENDBRANCH   6  16
TORSDOF 6
ENDMDL
MODEL 6
REMARK VINA RESULT:      -6.2      1.630      2.799
REMARK  6 active torsions:
REMARK  status: ('A' for Active; 'I' for Inactive)
REMARK    1  A    between atoms: C_2  and  C_4 
REMARK    2  A    between atoms: C_5  and  C_3 
REMARK    3  A    between atoms: C_16  and  C_15 
REMARK    4  A    between atoms: C_17  and  C_16 
REMARK    5  A    between atoms: C_19  and  C_17 
REMARK    6  A    between atoms: C_18  and  C_19 
ROOT
ATOM      1  N   UNL d   1      49.526  35.086  53.132  0.00  0.00    -0.244 NA
ATOM      2  C   UNL d   1      49.839  34.593  52.526  0.00  0.00     0.081 A 
ATOM      3  C   UNL d   1      49.432  34.536  51.788  0.00  0.00     0.019 A 
ATOM      4  C   UNL d   1      48.800  35.533  53.011  0.00  0.00     0.099 A 
ATOM      5  C   UNL d   1      48.744  34.956  51.666  0.00  0.00     0.003 A 
ATOM      6  C   UNL d   1      48.431  35.449  52.271  0.00  0.00     0.019 A 
ENDROOT
BRANCH   2   7
ATOM      7  C   UNL d   1      50.506  34.195  52.663  0.00  0.00     0.018 A 
ATOM      8  C   UNL d   1      50.503  33.576  53.193  0.00  0.00     0.002 A 
ATOM      9  C   UNL d   1      51.227  33.158  53.330  0.00  0.00     0.006 A 
ATOM     10  C   UNL d   1      51.911  33.375  52.936  0.00  0.00     0.064 A 
ATOM     11  C   UNL d   1      51.894  34.024  52.386  0.00  0.00     0.006 A 
ATOM     12  C   UNL d   1      51.188  34.415  52.268  0.00  0.00     0.002 A 
BRANCH  10  13
ATOM     13  C   UNL d   1      52.635  32.958  53.072  0.00  0.00     0.211 C 
ATOM     14  O   UNL d   1      52.840  32.249  52.675  0.00  0.00    -0.644 OA
ATOM     15  O   UNL d   1      53.197  33.258  53.636  0.00  0.00    -0.644 OA
ENDBRANCH  10  13
ENDBRANCH   2   7
BRANCH   6  16
ATOM     16  C   UNL d   1      47.703  35.897  52.154  0.00  0.00     0.002 C 
BRANCH  16  17
ATOM     17  C   UNL d   1      47.082  35.521  51.787  0.00  0.00     0.000 C 
BRANCH  17  18
ATOM     18  C   UNL d   1      46.373  35.954  51.620  0.00  0.00     0.000 C 
BRANCH  18  19
ATOM     19  C   UNL d   1      45.660  35.604  51.575  0.00  0.00     0.000 C 
ATOM     20  C   UNL d   1      45.123  35.799  50.989  0.00  0.00     0.000 C 
ENDBRANCH  18  19
ENDBRANCH  17  18
ENDBRANCH  16  17
ENDBRANCH   6  16
TORSDOF 6
ENDMDL
MODEL 7
REMARK VINA RESULT:      -6.1      2.936      5.142
REMARK  6 active torsions:
REMARK  status: ('A' for Active; 'I' for Inactive)
REMARK    1  A    between atoms: C_2  and  C_4 
REMARK    2  A    between atoms: C_5  and  C_3 
REMARK    3  A    between atoms: C_16  and  C_15 
REMARK    4  A    between atoms: C_17  and  C_16 
REMARK    5  A    between atoms: C_19  and  C_17 
REMARK    6  A    between atoms: C_18  and  C_19 
ROOT
ATOM      1  N   UNL d   1      51.937  31.883  52.687  0.00  0.00    -0.244 NA
ATOM      2  C   UNL d   1      52.023  32.622  53.080  0.00  0.00     0.081 A 
ATOM      3  C   UNL d   1      52.680  32.742  53.598  0.00  0.00     0.019 A 
ATOM      4  C   UNL d   1      52.507  31.248  52.804  0.00  0.00     0.099 A 
ATOM      5  C   UNL d   1      53.224  32.146  53.714  0.00  0.00     0.003 A 
ATOM      6  C   UNL d   1      53.138  31.407  53.321  0.00  0.00     0.019 A 
ENDROOT
BRANCH   2   7
ATOM      7  C   UNL d   1      51.485  33.186  52.955  0.00  0.00     0.018 A 
ATOM      8  C   UNL d   1      51.612  33.737  52.368  0.00  0.00     0.002 A 
ATOM      9  C   UNL d   1      51.026  34.337  52.246  0.00  0.00     0.006 A 
ATOM     10  C   UNL d   1      50.352  34.358  52.708  0.00  0.00     0.064 A 
ATOM     11  C   UNL d   1      50.238  33.773  53.316  0.00  0.00     0.006 A 
ATOM     12  C   UNL d   1      50.812  33.203  53.419  0.00  0.00     0.002 A 
BRANCH  10  13
ATOM     13  C   UNL d   1      49.766  34.957  52.586  0.00  0.00     0.211 C 
ATOM     14  O   UNL d   1      49.583  35.545  53.154  0.00  0.00    -0.644 OA
ATOM     15  O   UNL d   1      49.329  34.980  51.856  0.00  0.00    -0.644 OA
ENDBRANCH  10  13
ENDBRANCH   2   7
BRANCH   6  16
ATOM     16  C   UNL d   1      53.708  30.769  53.436  0.00  0.00     0.002 C 
BRANCH  16  17
ATOM     17  C   UNL d   1      53.611  30.289  54.086  0.00  0.00     0.000 C 
BRANCH  17  18
ATOM     18  C   UNL d   1      53.701  29.450  54.001  0.00  0.00     0.000 C 
BRANCH  18  19
ATOM     19  C   UNL d   1      53.874  28.975  54.614  0.00  0.00     0.000 C 
ATOM     20  C   UNL d   1      53.376  28.365  54.838  0.00  0.00     0.000 C 
ENDBRANCH  18  19
ENDBRANCH  17  18
ENDBRANCH  16  17
ENDBRANCH   6  16
TORSDOF 6
ENDMDL
MODEL 8
REMARK VINA RESULT:      -5.2      9.976     10.888
REMARK  6 active torsions:
REMARK  status: ('A' for Active; 'I' for Inactive)
REMARK    1  A    between atoms: C_2  and  C_4 
REMARK    2  A    between atoms: C_5  and  C_3 
REMARK    3  A    between atoms: C_16  and  C_15 
REMARK    4  A    between atoms: C_17  and  C_16 
REMARK    5  A    between atoms: C_19  and  C_17 
REMARK    6  A    between atoms: C_18  and  C_19 
ROOT
ATOM      1  N   UNL d   1      44.440  28.504  57.516  0.00  0.00    -0.244 NA
ATOM      2  C   UNL d   1      44.952  28.460  58.182  0.00  0.00     0.081 A 
ATOM      3  C   UNL d   1      45.508  27.825  58.234  0.00  0.00     0.019 A 
ATOM      4  C   UNL d   1      44.472  27.915  56.890  0.00  0.00     0.099 A 
ATOM      5  C   UNL d   1      45.545  27.263  57.645  0.00  0.00     0.003 A 
ATOM      6  C   UNL d   1      45.033  27.307  56.980  0.00  0.00     0.019 A 
ENDROOT
BRANCH   2   7
ATOM      7  C   UNL d   1      44.902  29.014  58.742  0.00  0.00     0.018 A 
ATOM      8  C   UNL d   1      45.255  29.738  58.623  0.00  0.00     0.002 A 
ATOM      9  C   UNL d   1      45.192  30.323  59.233  0.00  0.00     0.006 A 
ATOM     10  C   UNL d   1      44.785  30.158  59.923  0.00  0.00     0.064 A 
ATOM     11  C   UNL d   1      44.423  29.395  60.028  0.00  0.00     0.006 A 
ATOM     12  C   UNL d   1      44.494  28.845  59.430  0.00  0.00     0.002 A 
BRANCH  10  13
ATOM     13  C   UNL d   1      44.721  30.741  60.534  0.00  0.00     0.211 C 
ATOM     14  O   UNL d   1      44.315  31.467  60.438  0.00  0.00    -0.644 OA
ATOM     15  O   UNL d   1      45.082  30.601  61.292  0.00  0.00    -0.644 OA
ENDBRANCH  10  13
ENDBRANCH   2   7
BRANCH   6  16
ATOM     16  C   UNL d   1      45.063  26.718  56.350  0.00  0.00     0.002 C 
BRANCH  16  17
ATOM     17  C   UNL d   1      44.792  25.969  56.520  0.00  0.00     0.000 C 
BRANCH  17  18
ATOM     18  C   UNL d   1      44.733  25.397  55.898  0.00  0.00     0.000 C 
BRANCH  18  19
ATOM     19  C   UNL d   1      44.724  24.614  56.038  0.00  0.00     0.000 C 
ATOM     20  C   UNL d   1      44.741  24.069  55.427  0.00  0.00     0.000 C 
ENDBRANCH  18  19
ENDBRANCH  17  18
ENDBRANCH  16  17
ENDBRANCH   6  16
TORSDOF 6
ENDMDL
