MODEL 1
REMARK VINA RESULT:      16.7      0.000      0.000
REMARK  6 active torsions:
REMARK  status: ('A' for Active; 'I' for Inactive)
REMARK    1  A    between atoms: C_6  and  C_1 
REMARK    2  A    between atoms: C_7  and  C_3 
REMARK    3  A    between atoms: O_11  and  C_6 
REMARK    4  A    between atoms: O_12  and  C_7 
REMARK    5  A    between atoms: C_14  and  O_11 
REMARK    6  A    between atoms: C_15  and  O_12 
ROOT
ATOM      1  C   UNL d   1     -51.833  24.824  33.352  0.00  0.00     0.083 A 
ATOM      2  C   UNL d   1     -51.017  25.018  33.359  0.00  0.00     0.030 A 
ATOM      3  C   UNL d   1     -50.970  25.843  33.332  0.00  0.00     0.145 A 
ATOM      4  N   UNL d   1     -51.720  26.158  33.309  0.00  0.00    -0.240 NA
ATOM      5  C   UNL d   1     -52.257  25.522  33.322  0.00  0.00     0.087 A 
ATOM      6  C   UNL d   1     -50.407  24.487  33.387  0.00  0.00     0.002 C 
ATOM      7  C   UNL d   1     -53.083  25.568  33.307  0.00  0.00     0.021 C 
ENDROOT
BRANCH   1   8
ATOM      8  C   UNL d   1     -52.165  24.071  33.373  0.00  0.00     0.302 C 
ATOM      9  O   UNL d   1     -51.693  23.429  33.428  0.00  0.00    -0.259 OA
BRANCH   8  10
ATOM     10  O   UNL d   1     -53.002  23.995  33.334  0.00  0.00    -0.271 OA
BRANCH  10  11
ATOM     11  C   UNL d   1     -53.351  23.276  33.310  0.00  0.00     0.126 C 
ATOM     12  C   UNL d   1     -54.157  23.188  33.473  0.00  0.00     0.029 C 
ENDBRANCH  10  11
ENDBRANCH   8  10
ENDBRANCH   1   8
BRANCH   3  13
ATOM     13  C   UNL d   1     -50.252  26.255  33.330  0.00  0.00     0.318 C 
ATOM     14  O   UNL d   1     -49.551  25.873  33.315  0.00  0.00    -0.257 OA
BRANCH  13  15
ATOM     15  O   UNL d   1     -50.262  27.068  33.343  0.00  0.00    -0.270 OA
BRANCH  15  16
ATOM     16  C   UNL d   1     -49.566  27.501  33.335  0.00  0.00     0.126 C 
ATOM     17  C   UNL d   1     -49.498  28.189  33.759  0.00  0.00     0.029 C 
ENDBRANCH  15  16
ENDBRANCH  13  15
ENDBRANCH   3  13
TORSDOF 6
ENDMDL
