MODEL 1
REMARK VINA RESULT:      -7.0      0.000      0.000
REMARK  2 active torsions:
REMARK  status: ('A' for Active; 'I' for Inactive)
REMARK    1  A    between atoms: C_2  and  N_1 
REMARK    2  A    between atoms: O_12  and  C_10 
ROOT
ATOM      1  C   UNL d   1     -47.818  13.158  22.650  0.00  0.00     0.072 A 
ATOM      2  C   UNL d   1     -47.097  13.522  22.495  0.00  0.00     0.042 A 
ATOM      3  C   UNL d   1     -46.419  13.227  22.857  0.00  0.00     0.096 A 
ATOM      4  C   UNL d   1     -47.856  12.509  23.161  0.00  0.00     0.018 A 
ATOM      5  C   UNL d   1     -47.195  12.219  23.516  0.00  0.00     0.004 A 
ATOM      6  C   UNL d   1     -46.450  12.582  23.366  0.00  0.00     0.024 A 
ENDROOT
BRANCH   1   7
ATOM      7  N   UNL d   1     -48.500  13.451  22.288  0.00  0.00    -0.242 N 
ATOM      8  C   UNL d   1     -48.986  14.040  22.569  0.00  0.00     0.267 A 
ATOM      9  C   UNL d   1     -49.601  14.156  22.031  0.00  0.00     0.066 A 
ATOM     10  O   UNL d   1     -48.882  14.454  23.275  0.00  0.00    -0.267 OA
ATOM     11  C   UNL d   1     -49.488  13.623  21.404  0.00  0.00     0.066 A 
ATOM     12  C   UNL d   1     -48.804  13.181  21.557  0.00  0.00     0.267 A 
ATOM     13  O   UNL d   1     -48.491  12.593  21.079  0.00  0.00    -0.267 OA
ENDBRANCH   1   7
BRANCH   3  14
ATOM     14  O   UNL d   1     -45.684  13.593  22.703  0.00  0.00    -0.328 OA
ATOM     15  C   UNL d   1     -45.184  13.251  22.162  0.00  0.00     0.181 C 
ENDBRANCH   3  14
TORSDOF 2
ENDMDL
MODEL 2
REMARK VINA RESULT:      -7.0      1.138      3.058
REMARK  2 active torsions:
REMARK  status: ('A' for Active; 'I' for Inactive)
REMARK    1  A    between atoms: C_2  and  N_1 
REMARK    2  A    between atoms: O_12  and  C_10 
ROOT
ATOM      1  C   UNL d   1     -48.214  12.906  22.656  0.00  0.00     0.072 A 
ATOM      2  C   UNL d   1     -48.636  13.465  23.087  0.00  0.00     0.042 A 
ATOM      3  C   UNL d   1     -49.127  13.988  22.683  0.00  0.00     0.096 A 
ATOM      4  C   UNL d   1     -48.284  12.875  21.833  0.00  0.00     0.018 A 
ATOM      5  C   UNL d   1     -48.763  13.384  21.436  0.00  0.00     0.004 A 
ATOM      6  C   UNL d   1     -49.202  13.961  21.864  0.00  0.00     0.024 A 
ENDROOT
BRANCH   1   7
ATOM      7  N   UNL d   1     -47.720  12.380  23.059  0.00  0.00    -0.242 N 
ATOM      8  C   UNL d   1     -47.912  11.634  23.318  0.00  0.00     0.267 A 
ATOM      9  C   UNL d   1     -47.255  11.305  23.693  0.00  0.00     0.066 A 
ATOM     10  O   UNL d   1     -48.644  11.265  23.223  0.00  0.00    -0.267 OA
ATOM     11  C   UNL d   1     -46.643  11.867  23.661  0.00  0.00     0.066 A 
ATOM     12  C   UNL d   1     -46.926  12.540  23.268  0.00  0.00     0.267 A 
ATOM     13  O   UNL d   1     -46.503  13.225  23.117  0.00  0.00    -0.267 OA
ENDBRANCH   1   7
BRANCH   3  14
ATOM     14  O   UNL d   1     -49.559  14.558  23.116  0.00  0.00    -0.328 OA
ATOM     15  C   UNL d   1     -49.447  15.343  22.945  0.00  0.00     0.181 C 
ENDBRANCH   3  14
TORSDOF 2
ENDMDL
MODEL 3
REMARK VINA RESULT:      -6.9      1.403      3.045
REMARK  2 active torsions:
REMARK  status: ('A' for Active; 'I' for Inactive)
REMARK    1  A    between atoms: C_2  and  N_1 
REMARK    2  A    between atoms: O_12  and  C_10 
ROOT
ATOM      1  C   UNL d   1     -48.256  12.933  22.578  0.00  0.00     0.072 A 
ATOM      2  C   UNL d   1     -48.708  12.668  23.211  0.00  0.00     0.042 A 
ATOM      3  C   UNL d   1     -49.382  12.222  23.058  0.00  0.00     0.096 A 
ATOM      4  C   UNL d   1     -48.479  12.752  21.802  0.00  0.00     0.018 A 
ATOM      5  C   UNL d   1     -49.137  12.317  21.649  0.00  0.00     0.004 A 
ATOM      6  C   UNL d   1     -49.609  12.039  22.288  0.00  0.00     0.024 A 
ENDROOT
BRANCH   1   7
ATOM      7  N   UNL d   1     -47.578  13.381  22.730  0.00  0.00    -0.242 N 
ATOM      8  C   UNL d   1     -46.836  13.097  22.904  0.00  0.00     0.267 A 
ATOM      9  C   UNL d   1     -46.327  13.737  23.015  0.00  0.00     0.066 A 
ATOM     10  O   UNL d   1     -46.626  12.301  22.960  0.00  0.00    -0.267 OA
ATOM     11  C   UNL d   1     -46.770  14.431  22.906  0.00  0.00     0.066 A 
ATOM     12  C   UNL d   1     -47.552  14.217  22.728  0.00  0.00     0.267 A 
ATOM     13  O   UNL d   1     -48.172  14.731  22.579  0.00  0.00    -0.267 OA
ENDBRANCH   1   7
BRANCH   3  14
ATOM     14  O   UNL d   1     -49.845  11.949  23.697  0.00  0.00    -0.328 OA
ATOM     15  C   UNL d   1     -50.652  12.039  23.661  0.00  0.00     0.181 C 
ENDBRANCH   3  14
TORSDOF 2
ENDMDL
MODEL 4
REMARK VINA RESULT:      -6.6      1.710      2.255
REMARK  2 active torsions:
REMARK  status: ('A' for Active; 'I' for Inactive)
REMARK    1  A    between atoms: C_2  and  N_1 
REMARK    2  A    between atoms: O_12  and  C_10 
ROOT
ATOM      1  C   UNL d   1     -49.030  12.755  22.718  0.00  0.00     0.072 A 
ATOM      2  C   UNL d   1     -48.403  13.020  23.179  0.00  0.00     0.042 A 
ATOM      3  C   UNL d   1     -47.704  13.243  22.807  0.00  0.00     0.096 A 
ATOM      4  C   UNL d   1     -48.955  12.717  21.895  0.00  0.00     0.018 A 
ATOM      5  C   UNL d   1     -48.274  12.934  21.528  0.00  0.00     0.004 A 
ATOM      6  C   UNL d   1     -47.623  13.207  21.988  0.00  0.00     0.024 A 
ENDROOT
BRANCH   1   7
ATOM      7  N   UNL d   1     -49.733  12.531  23.090  0.00  0.00    -0.242 N 
ATOM      8  C   UNL d   1     -49.922  11.790  23.368  0.00  0.00     0.267 A 
ATOM      9  C   UNL d   1     -50.678  11.814  23.698  0.00  0.00     0.066 A 
ATOM     10  O   UNL d   1     -49.437  11.123  23.327  0.00  0.00    -0.267 OA
ATOM     11  C   UNL d   1     -50.959  12.592  23.619  0.00  0.00     0.066 A 
ATOM     12  C   UNL d   1     -50.376  13.045  23.241  0.00  0.00     0.267 A 
ATOM     13  O   UNL d   1     -50.426  13.840  23.054  0.00  0.00    -0.267 OA
ENDBRANCH   1   7
BRANCH   3  14
ATOM     14  O   UNL d   1     -47.063  13.513  23.270  0.00  0.00    -0.328 OA
ATOM     15  C   UNL d   1     -46.542  14.042  22.944  0.00  0.00     0.181 C 
ENDBRANCH   3  14
TORSDOF 2
ENDMDL
