MODEL 1
REMARK VINA RESULT:      -4.2      0.000      0.000
REMARK  5 active torsions:
REMARK  status: ('A' for Active; 'I' for Inactive)
REMARK       I    between atoms: C_3  and  N_1 
REMARK    1  A    between atoms: C_12  and  C_3 
REMARK    2  A    between atoms: C_7  and  O_10 
REMARK    3  A    between atoms: O_10  and  C_21 
REMARK    4  A    between atoms: C_22  and  C_12 
REMARK    5  A    between atoms: C_21  and  C_22 
ROOT
ATOM      1  N   UNL d   1      56.817   0.581  33.037  0.00  0.00    -0.273 N 
ATOM      2  C   UNL d   1      56.121   0.582  33.481  0.00  0.00     0.067 A 
ATOM      3  C   UNL d   1      56.780   0.530  32.214  0.00  0.00     0.265 C 
ATOM      4  C   UNL d   1      56.157   0.633  34.304  0.00  0.00     0.016 A 
ATOM      5  O   UNL d   1      56.049   0.482  31.836  0.00  0.00    -0.267 OA
ATOM      6  C   UNL d   1      57.547   0.629  33.415  0.00  0.00     0.083 A 
ATOM      7  C   UNL d   1      55.390   0.533  33.103  0.00  0.00     0.018 A 
ATOM      8  C   UNL d   1      57.582   0.680  34.238  0.00  0.00     0.019 A 
ATOM      9  C   UNL d   1      56.887   0.681  34.682  0.00  0.00     0.003 A 
ATOM     10  C   UNL d   1      55.461   0.634  34.748  0.00  0.00     0.001 A 
ATOM     11  C   UNL d   1      54.694   0.535  33.547  0.00  0.00     0.002 A 
ATOM     12  C   UNL d   1      54.731   0.585  34.369  0.00  0.00     0.000 A 
ENDROOT
BRANCH   3  13
ATOM     13  C   UNL d   1      57.476   0.529  31.770  0.00  0.00     0.063 C 
BRANCH  13  14
ATOM     14  C   UNL d   1      57.464   0.272  30.985  0.00  0.00     0.032 C 
BRANCH  14  15
ATOM     15  C   UNL d   1      58.161   0.260  30.545  0.00  0.00     0.123 C 
BRANCH  15  16
ATOM     16  O   UNL d   1      58.341  -0.395  30.075  0.00  0.00    -0.305 OA
BRANCH  16  17
ATOM     17  C   UNL d   1      59.049  -0.417  29.653  0.00  0.00     0.100 A 
ATOM     18  C   UNL d   1      59.275  -1.109  29.263  0.00  0.00     0.023 A 
ATOM     19  C   UNL d   1      59.983  -1.131  28.841  0.00  0.00     0.002 A 
ATOM     20  C   UNL d   1      58.794  -1.776  29.296  0.00  0.00     0.002 C 
ATOM     21  C   UNL d   1      60.204  -1.818  28.456  0.00  0.00     0.000 C 
ATOM     22  C   UNL d   1      60.465  -0.463  28.808  0.00  0.00     0.000 A 
ATOM     23  C   UNL d   1      60.239   0.228  29.197  0.00  0.00     0.002 A 
ATOM     24  C   UNL d   1      59.531   0.251  29.620  0.00  0.00     0.025 A 
ENDBRANCH  16  17
ENDBRANCH  15  16
ENDBRANCH  14  15
ENDBRANCH  13  14
ENDBRANCH   3  13
TORSDOF 5
ENDMDL
MODEL 2
REMARK VINA RESULT:      -4.1      0.964      5.566
REMARK  5 active torsions:
REMARK  status: ('A' for Active; 'I' for Inactive)
REMARK       I    between atoms: C_3  and  N_1 
REMARK    1  A    between atoms: C_12  and  C_3 
REMARK    2  A    between atoms: C_7  and  O_10 
REMARK    3  A    between atoms: O_10  and  C_21 
REMARK    4  A    between atoms: C_22  and  C_12 
REMARK    5  A    between atoms: C_21  and  C_22 
ROOT
ATOM      1  N   UNL d   1      58.710  -0.511  29.832  0.00  0.00    -0.273 N 
ATOM      2  C   UNL d   1      59.023  -1.162  29.432  0.00  0.00     0.067 A 
ATOM      3  C   UNL d   1      58.044  -0.602  30.309  0.00  0.00     0.265 C 
ATOM      4  C   UNL d   1      59.690  -1.072  28.954  0.00  0.00     0.016 A 
ATOM      5  O   UNL d   1      57.689  -1.342  30.386  0.00  0.00    -0.267 OA
ATOM      6  C   UNL d   1      59.065   0.229  29.755  0.00  0.00     0.083 A 
ATOM      7  C   UNL d   1      58.668  -1.902  29.509  0.00  0.00     0.018 A 
ATOM      8  C   UNL d   1      59.732   0.319  29.278  0.00  0.00     0.019 A 
ATOM      9  C   UNL d   1      60.045  -0.332  28.877  0.00  0.00     0.003 A 
ATOM     10  C   UNL d   1      60.002  -1.722  28.554  0.00  0.00     0.001 A 
ATOM     11  C   UNL d   1      58.980  -2.553  29.108  0.00  0.00     0.002 A 
ATOM     12  C   UNL d   1      59.647  -2.462  28.631  0.00  0.00     0.000 A 
ENDROOT
BRANCH   3  13
ATOM     13  C   UNL d   1      57.732   0.049  30.710  0.00  0.00     0.063 C 
BRANCH  13  14
ATOM     14  C   UNL d   1      57.103  -0.052  31.235  0.00  0.00     0.032 C 
BRANCH  14  15
ATOM     15  C   UNL d   1      57.092   0.361  31.949  0.00  0.00     0.123 C 
BRANCH  15  16
ATOM     16  O   UNL d   1      56.381   0.459  32.358  0.00  0.00    -0.305 OA
BRANCH  16  17
ATOM     17  C   UNL d   1      56.385   0.529  33.180  0.00  0.00     0.100 A 
ATOM     18  C   UNL d   1      55.672   0.540  33.596  0.00  0.00     0.023 A 
ATOM     19  C   UNL d   1      55.676   0.609  34.418  0.00  0.00     0.002 A 
ATOM     20  C   UNL d   1      54.957   0.481  33.190  0.00  0.00     0.002 C 
ATOM     21  C   UNL d   1      54.967   0.620  34.826  0.00  0.00     0.000 C 
ATOM     22  C   UNL d   1      56.390   0.668  34.823  0.00  0.00     0.000 A 
ATOM     23  C   UNL d   1      57.102   0.657  34.408  0.00  0.00     0.002 A 
ATOM     24  C   UNL d   1      57.100   0.587  33.585  0.00  0.00     0.025 A 
ENDBRANCH  16  17
ENDBRANCH  15  16
ENDBRANCH  14  15
ENDBRANCH  13  14
ENDBRANCH   3  13
TORSDOF 5
ENDMDL
MODEL 3
REMARK VINA RESULT:      -3.6      1.683      5.957
REMARK  5 active torsions:
REMARK  status: ('A' for Active; 'I' for Inactive)
REMARK       I    between atoms: C_3  and  N_1 
REMARK    1  A    between atoms: C_12  and  C_3 
REMARK    2  A    between atoms: C_7  and  O_10 
REMARK    3  A    between atoms: O_10  and  C_21 
REMARK    4  A    between atoms: C_22  and  C_12 
REMARK    5  A    between atoms: C_21  and  C_22 
ROOT
ATOM      1  N   UNL d   1      58.906  -2.408  29.267  0.00  0.00    -0.273 N 
ATOM      2  C   UNL d   1      59.649  -2.698  29.053  0.00  0.00     0.067 A 
ATOM      3  C   UNL d   1      58.843  -1.681  29.650  0.00  0.00     0.265 C 
ATOM      4  C   UNL d   1      59.714  -3.426  28.669  0.00  0.00     0.016 A 
ATOM      5  O   UNL d   1      59.520  -1.243  29.821  0.00  0.00    -0.267 OA
ATOM      6  C   UNL d   1      58.229  -2.845  29.097  0.00  0.00     0.083 A 
ATOM      7  C   UNL d   1      60.327  -2.261  29.223  0.00  0.00     0.018 A 
ATOM      8  C   UNL d   1      58.294  -3.573  28.713  0.00  0.00     0.019 A 
ATOM      9  C   UNL d   1      59.036  -3.863  28.499  0.00  0.00     0.003 A 
ATOM     10  C   UNL d   1      60.456  -3.715  28.456  0.00  0.00     0.001 A 
ATOM     11  C   UNL d   1      61.070  -2.550  29.010  0.00  0.00     0.002 A 
ATOM     12  C   UNL d   1      61.133  -3.278  28.626  0.00  0.00     0.000 A 
ENDROOT
BRANCH   3  13
ATOM     13  C   UNL d   1      58.100  -1.391  29.864  0.00  0.00     0.063 C 
BRANCH  13  14
ATOM     14  C   UNL d   1      58.036  -0.808  30.446  0.00  0.00     0.032 C 
BRANCH  14  15
ATOM     15  C   UNL d   1      57.416  -0.835  30.989  0.00  0.00     0.123 C 
BRANCH  15  16
ATOM     16  O   UNL d   1      57.342  -0.243  31.560  0.00  0.00    -0.305 OA
BRANCH  16  17
ATOM     17  C   UNL d   1      56.840  -0.354  32.205  0.00  0.00     0.100 A 
ATOM     18  C   UNL d   1      56.932   0.109  32.882  0.00  0.00     0.023 A 
ATOM     19  C   UNL d   1      56.430  -0.001  33.528  0.00  0.00     0.002 A 
ATOM     20  C   UNL d   1      57.524   0.682  32.913  0.00  0.00     0.002 C 
ATOM     21  C   UNL d   1      56.524   0.460  34.197  0.00  0.00     0.000 C 
ATOM     22  C   UNL d   1      55.838  -0.574  33.497  0.00  0.00     0.000 A 
ATOM     23  C   UNL d   1      55.747  -1.036  32.821  0.00  0.00     0.002 A 
ATOM     24  C   UNL d   1      56.248  -0.926  32.174  0.00  0.00     0.025 A 
ENDBRANCH  16  17
ENDBRANCH  15  16
ENDBRANCH  14  15
ENDBRANCH  13  14
ENDBRANCH   3  13
TORSDOF 5
ENDMDL
