MODEL 1
REMARK VINA RESULT:      -3.6      0.000      0.000
REMARK  5 active torsions:
REMARK  status: ('A' for Active; 'I' for Inactive)
REMARK    1  A    between atoms: C_8  and  C_6 
REMARK    2  A    between atoms: C_9  and  C_8 
REMARK       I    between atoms: N_10  and  C_9 
REMARK    3  A    between atoms: C_14  and  N_10 
REMARK    4  A    between atoms: O_22  and  C_15 
REMARK    5  A    between atoms: C_27  and  O_22 
ROOT
ATOM      1  N   UNL d   1      58.393  -2.565  29.483  0.00  0.00    -0.207 NA
ATOM      2  N   UNL d   1      59.201  -1.096  29.506  0.00  0.00    -0.240 NA
ATOM      3  C   UNL d   1      58.176  -1.826  29.741  0.00  0.00     0.297 A 
ATOM      4  C   UNL d   1      59.102  -2.819  29.144  0.00  0.00     0.086 A 
ATOM      5  C   UNL d   1      59.790  -1.556  29.166  0.00  0.00     0.083 A 
ATOM      6  C   UNL d   1      58.452  -1.330  29.747  0.00  0.00     0.144 A 
ATOM      7  C   UNL d   1      59.781  -2.364  28.981  0.00  0.00     0.035 A 
ATOM      8  O   UNL d   1      57.417  -1.770  30.054  0.00  0.00    -0.264 OA
ATOM      9  C   UNL d   1      60.439  -2.726  28.637  0.00  0.00     0.003 A 
ATOM     10  C   UNL d   1      59.090  -3.625  28.960  0.00  0.00     0.019 A 
ATOM     11  C   UNL d   1      60.462  -1.105  29.005  0.00  0.00     0.019 A 
ATOM     12  C   UNL d   1      61.133  -1.466  28.656  0.00  0.00     0.002 A 
ATOM     13  C   UNL d   1      59.752  -3.980  28.616  0.00  0.00     0.002 A 
ATOM     14  C   UNL d   1      61.118  -2.270  28.474  0.00  0.00     0.000 A 
ATOM     15  C   UNL d   1      60.424  -3.530  28.455  0.00  0.00     0.000 A 
ENDROOT
BRANCH   6  16
ATOM     16  C   UNL d   1      58.006  -0.715  30.067  0.00  0.00     0.086 C 
BRANCH  16  17
ATOM     17  C   UNL d   1      57.918  -0.008  29.635  0.00  0.00     0.281 C 
ATOM     18  N   UNL d   1      57.669   0.680  30.019  0.00  0.00    -0.208 NA
ATOM     19  O   UNL d   1      58.078   0.009  28.826  0.00  0.00    -0.265 OA
BRANCH  18  20
ATOM     20  C   UNL d   1      57.507   0.669  30.830  0.00  0.00     0.085 A 
ATOM     21  C   UNL d   1      58.125   0.681  31.375  0.00  0.00     0.021 A 
ATOM     22  C   UNL d   1      57.960   0.670  32.182  0.00  0.00     0.026 A 
ATOM     23  C   UNL d   1      57.179   0.647  32.443  0.00  0.00     0.100 A 
ATOM     24  C   UNL d   1      56.558   0.634  31.892  0.00  0.00     0.026 A 
ATOM     25  C   UNL d   1      56.728   0.645  31.087  0.00  0.00     0.021 A 
BRANCH  23  26
ATOM     26  O   UNL d   1      57.017   0.636  33.235  0.00  0.00    -0.305 OA
BRANCH  26  27
ATOM     27  C   UNL d   1      56.851   0.625  34.038  0.00  0.00     0.123 C 
ATOM     28  C   UNL d   1      56.085   0.552  34.290  0.00  0.00     0.029 C 
ENDBRANCH  26  27
ENDBRANCH  23  26
ENDBRANCH  18  20
ENDBRANCH  16  17
ENDBRANCH   6  16
TORSDOF 5
ENDMDL
MODEL 2
REMARK VINA RESULT:      -3.4      1.407      4.914
REMARK  5 active torsions:
REMARK  status: ('A' for Active; 'I' for Inactive)
REMARK    1  A    between atoms: C_8  and  C_6 
REMARK    2  A    between atoms: C_9  and  C_8 
REMARK       I    between atoms: N_10  and  C_9 
REMARK    3  A    between atoms: C_14  and  N_10 
REMARK    4  A    between atoms: O_22  and  C_15 
REMARK    5  A    between atoms: C_27  and  O_22 
ROOT
ATOM      1  N   UNL d   1      56.462  -1.223  31.585  0.00  0.00    -0.207 NA
ATOM      2  N   UNL d   1      57.777  -0.194  31.737  0.00  0.00    -0.240 NA
ATOM      3  C   UNL d   1      57.071  -1.037  31.081  0.00  0.00     0.297 A 
ATOM      4  C   UNL d   1      56.306  -0.950  32.348  0.00  0.00     0.086 A 
ATOM      5  C   UNL d   1      57.436  -0.069  32.473  0.00  0.00     0.083 A 
ATOM      6  C   UNL d   1      57.515  -0.688  31.135  0.00  0.00     0.144 A 
ATOM      7  C   UNL d   1      56.749  -0.403  32.795  0.00  0.00     0.035 A 
ATOM      8  O   UNL d   1      57.054  -1.417  30.352  0.00  0.00    -0.264 OA
ATOM      9  C   UNL d   1      56.497  -0.201  33.555  0.00  0.00     0.003 A 
ATOM     10  C   UNL d   1      55.620  -1.285  32.667  0.00  0.00     0.019 A 
ATOM     11  C   UNL d   1      57.875   0.472  32.915  0.00  0.00     0.019 A 
ATOM     12  C   UNL d   1      57.625   0.682  33.687  0.00  0.00     0.002 A 
ATOM     13  C   UNL d   1      55.374  -1.079  33.428  0.00  0.00     0.002 A 
ATOM     14  C   UNL d   1      56.941   0.346  34.002  0.00  0.00     0.000 A 
ATOM     15  C   UNL d   1      55.813  -0.538  33.870  0.00  0.00     0.000 A 
ENDROOT
BRANCH   6  16
ATOM     16  C   UNL d   1      57.999  -0.674  30.469  0.00  0.00     0.086 C 
BRANCH  16  17
ATOM     17  C   UNL d   1      58.087   0.037  30.043  0.00  0.00     0.281 C 
ATOM     18  N   UNL d   1      58.670   0.098  29.460  0.00  0.00    -0.208 NA
ATOM     19  O   UNL d   1      57.596   0.681  30.202  0.00  0.00    -0.265 OA
BRANCH  18  20
ATOM     20  C   UNL d   1      59.165  -0.544  29.297  0.00  0.00     0.085 A 
ATOM     21  C   UNL d   1      59.918  -0.579  29.629  0.00  0.00     0.021 A 
ATOM     22  C   UNL d   1      60.408  -1.220  29.464  0.00  0.00     0.026 A 
ATOM     23  C   UNL d   1      60.146  -1.825  28.970  0.00  0.00     0.100 A 
ATOM     24  C   UNL d   1      59.386  -1.787  28.637  0.00  0.00     0.026 A 
ATOM     25  C   UNL d   1      58.900  -1.144  28.804  0.00  0.00     0.021 A 
BRANCH  23  26
ATOM     26  O   UNL d   1      60.627  -2.454  28.808  0.00  0.00    -0.305 OA
BRANCH  26  27
ATOM     27  C   UNL d   1      61.116  -3.092  28.645  0.00  0.00     0.123 C 
ATOM     28  C   UNL d   1      61.068  -3.762  29.098  0.00  0.00     0.029 C 
ENDBRANCH  26  27
ENDBRANCH  23  26
ENDBRANCH  18  20
ENDBRANCH  16  17
ENDBRANCH   6  16
TORSDOF 5
ENDMDL
