MODEL 1
REMARK VINA RESULT:      81.3      0.000      0.000
REMARK  7 active torsions:
REMARK  status: ('A' for Active; 'I' for Inactive)
REMARK    1  A    between atoms: C_4  and  S_1 
REMARK    2  A    between atoms: N_6  and  S_1 
REMARK    3  A    between atoms: S_2  and  N_3 
REMARK    4  A    between atoms: C_8  and  S_2 
REMARK    5  A    between atoms: N_3  and  C_7 
REMARK    6  A    between atoms: C_20  and  N_13 
REMARK    7  A    between atoms: C_18  and  C_20 
ROOT
ATOM      1  C   UNL d   1     -50.006  25.732  33.474  0.00  0.00     0.105 A 
ATOM      2  C   UNL d   1     -50.073  26.540  33.619  0.00  0.00     0.029 A 
ATOM      3  C   UNL d   1     -49.399  27.016  33.634  0.00  0.00     0.076 A 
ATOM      4  C   UNL d   1     -49.252  25.397  33.343  0.00  0.00     0.013 A 
ATOM      5  C   UNL d   1     -48.660  26.685  33.506  0.00  0.00     0.017 A 
ATOM      6  C   UNL d   1     -48.583  25.878  33.360  0.00  0.00     0.002 A 
ATOM      7  C   UNL d   1     -50.817  26.870  33.748  0.00  0.00     0.002 C 
ATOM      8  C   UNL d   1     -47.988  27.164  33.522  0.00  0.00     0.002 C 
ENDROOT
BRANCH   1   9
ATOM      9  S   UNL d   1     -50.680  25.256  33.459  0.00  0.00     0.272 S 
ATOM     10  O   UNL d   1     -51.421  25.597  33.356  0.00  0.00    -0.200 OA
ATOM     11  O   UNL d   1     -50.607  24.438  33.547  0.00  0.00    -0.200 OA
BRANCH   9  12
ATOM     12  N   UNL d   1     -51.350  24.775  33.445  0.00  0.00    -0.226 N 
ATOM     13  C   UNL d   1     -52.094  25.115  33.489  0.00  0.00     0.111 A 
ATOM     14  C   UNL d   1     -52.763  24.633  33.475  0.00  0.00     0.100 A 
ATOM     15  N   UNL d   1     -52.682  23.815  33.416  0.00  0.00    -0.300 N 
ATOM     16  C   UNL d   1     -51.931  23.481  33.371  0.00  0.00     0.100 A 
ATOM     17  C   UNL d   1     -51.262  23.963  33.386  0.00  0.00     0.111 A 
BRANCH  15  18
ATOM     18  C   UNL d   1     -53.356  23.340  33.402  0.00  0.00     0.080 C 
BRANCH  18  19
ATOM     19  C   UNL d   1     -54.109  23.681  33.392  0.00  0.00     0.018 C 
ATOM     20  C   UNL d   1     -54.189  24.498  33.312  0.00  0.00     0.002 C 
ATOM     21  C   UNL d   1     -54.779  23.206  33.460  0.00  0.00     0.002 C 
ENDBRANCH  18  19
ENDBRANCH  15  18
ENDBRANCH   9  12
ENDBRANCH   1   9
BRANCH   3  22
ATOM     22  N   UNL d   1     -49.475  27.822  33.779  0.00  0.00    -0.229 N 
ATOM     23  C   UNL d   1     -49.975  28.286  33.306  0.00  0.00     0.111 C 
BRANCH  22  24
ATOM     24  S   UNL d   1     -49.054  28.172  34.396  0.00  0.00     0.271 S 
ATOM     25  O   UNL d   1     -49.637  28.603  33.998  0.00  0.00    -0.200 OA
ATOM     26  O   UNL d   1     -48.898  27.391  34.171  0.00  0.00    -0.200 OA
BRANCH  24  27
ATOM     27  C   UNL d   1     -48.633  28.523  35.013  0.00  0.00     0.104 A 
ATOM     28  C   UNL d   1     -48.908  28.462  35.787  0.00  0.00     0.013 A 
ATOM     29  C   UNL d   1     -48.493  28.807  36.395  0.00  0.00     0.001 A 
ATOM     30  C   UNL d   1     -47.802  29.216  36.243  0.00  0.00     0.000 A 
ATOM     31  C   UNL d   1     -47.515  29.284  35.474  0.00  0.00     0.001 A 
ATOM     32  C   UNL d   1     -47.381  29.566  36.860  0.00  0.00     0.000 C 
ATOM     33  C   UNL d   1     -47.933  28.935  34.854  0.00  0.00     0.013 A 
ENDBRANCH  24  27
ENDBRANCH  22  24
ENDBRANCH   3  22
TORSDOF 7
ENDMDL
MODEL 2
REMARK VINA RESULT:      83.2      2.039      3.708
REMARK  7 active torsions:
REMARK  status: ('A' for Active; 'I' for Inactive)
REMARK    1  A    between atoms: C_4  and  S_1 
REMARK    2  A    between atoms: N_6  and  S_1 
REMARK    3  A    between atoms: S_2  and  N_3 
REMARK    4  A    between atoms: C_8  and  S_2 
REMARK    5  A    between atoms: N_3  and  C_7 
REMARK    6  A    between atoms: C_20  and  N_13 
REMARK    7  A    between atoms: C_18  and  C_20 
ROOT
ATOM      1  C   UNL d   1     -48.780  28.429  35.636  0.00  0.00     0.105 A 
ATOM      2  C   UNL d   1     -48.190  28.889  35.290  0.00  0.00     0.029 A 
ATOM      3  C   UNL d   1     -47.745  29.408  35.752  0.00  0.00     0.076 A 
ATOM      4  C   UNL d   1     -48.924  28.490  36.456  0.00  0.00     0.013 A 
ATOM      5  C   UNL d   1     -47.887  29.467  36.557  0.00  0.00     0.017 A 
ATOM      6  C   UNL d   1     -48.474  29.011  36.912  0.00  0.00     0.002 A 
ATOM      7  C   UNL d   1     -48.049  28.828  34.480  0.00  0.00     0.002 C 
ATOM      8  C   UNL d   1     -47.440  29.986  37.016  0.00  0.00     0.002 C 
ENDROOT
BRANCH   1   9
ATOM      9  S   UNL d   1     -49.225  27.911  35.174  0.00  0.00     0.272 S 
ATOM     10  O   UNL d   1     -49.707  27.350  35.533  0.00  0.00    -0.200 OA
ATOM     11  O   UNL d   1     -49.185  27.958  34.350  0.00  0.00    -0.200 OA
BRANCH   9  12
ATOM     12  N   UNL d   1     -49.668  27.396  34.705  0.00  0.00    -0.226 N 
ATOM     13  C   UNL d   1     -50.485  27.452  34.704  0.00  0.00     0.111 A 
ATOM     14  C   UNL d   1     -50.928  26.937  34.236  0.00  0.00     0.100 A 
ATOM     15  N   UNL d   1     -50.549  26.371  33.772  0.00  0.00    -0.300 N 
ATOM     16  C   UNL d   1     -49.727  26.321  33.778  0.00  0.00     0.100 A 
ATOM     17  C   UNL d   1     -49.284  26.836  34.247  0.00  0.00     0.111 A 
BRANCH  15  18
ATOM     18  C   UNL d   1     -50.998  25.859  33.306  0.00  0.00     0.080 C 
BRANCH  18  19
ATOM     19  C   UNL d   1     -50.988  25.045  33.449  0.00  0.00     0.018 C 
ATOM     20  C   UNL d   1     -50.301  24.611  33.306  0.00  0.00     0.002 C 
ATOM     21  C   UNL d   1     -51.662  24.667  33.733  0.00  0.00     0.002 C 
ENDBRANCH  18  19
ENDBRANCH  15  18
ENDBRANCH   9  12
ENDBRANCH   1   9
BRANCH   3  22
ATOM     22  N   UNL d   1     -47.158  29.863  35.399  0.00  0.00    -0.229 N 
ATOM     23  C   UNL d   1     -46.371  29.598  35.390  0.00  0.00     0.111 C 
BRANCH  22  24
ATOM     24  S   UNL d   1     -47.350  30.587  35.051  0.00  0.00     0.271 S 
ATOM     25  O   UNL d   1     -46.865  30.052  34.648  0.00  0.00    -0.200 OA
ATOM     26  O   UNL d   1     -47.639  30.390  35.802  0.00  0.00    -0.200 OA
BRANCH  24  27
ATOM     27  C   UNL d   1     -47.542  31.310  34.704  0.00  0.00     0.104 A 
ATOM     28  C   UNL d   1     -48.157  31.356  34.158  0.00  0.00     0.013 A 
ATOM     29  C   UNL d   1     -48.346  32.068  33.816  0.00  0.00     0.001 A 
ATOM     30  C   UNL d   1     -47.928  32.742  34.010  0.00  0.00     0.000 A 
ATOM     31  C   UNL d   1     -47.310  32.711  34.554  0.00  0.00     0.001 A 
ATOM     32  C   UNL d   1     -48.120  33.466  33.663  0.00  0.00     0.000 C 
ATOM     33  C   UNL d   1     -47.115  31.990  34.904  0.00  0.00     0.013 A 
ENDBRANCH  24  27
ENDBRANCH  22  24
ENDBRANCH   3  22
TORSDOF 7
ENDMDL
