MODEL 1
REMARK VINA RESULT:      -9.5      0.000      0.000
REMARK  1 active torsions:
REMARK  status: ('A' for Active; 'I' for Inactive)
REMARK    1  A    between atoms: C_2  and  C_1 
ROOT
ATOM      1  C   UNL d   1      52.404  33.455  53.419  0.00  0.00     0.089 A 
ATOM      2  C   UNL d   1      52.828  32.874  53.023  0.00  0.00     0.302 A 
ATOM      3  C   UNL d   1      52.743  33.854  54.065  0.00  0.00     0.009 A 
ATOM      4  O   UNL d   1      53.595  32.686  53.268  0.00  0.00    -0.273 OA
ATOM      5  C   UNL d   1      53.512  33.659  54.303  0.00  0.00     0.023 A 
ATOM      6  C   UNL d   1      53.936  33.078  53.907  0.00  0.00     0.103 A 
ATOM      7  O   UNL d   1      52.473  32.488  52.382  0.00  0.00    -0.259 OA
ATOM      8  C   UNL d   1      53.849  34.058  54.948  0.00  0.00     0.002 A 
ATOM      9  C   UNL d   1      54.701  32.890  54.151  0.00  0.00     0.025 A 
ATOM     10  C   UNL d   1      54.618  33.862  55.185  0.00  0.00     0.000 A 
ATOM     11  C   UNL d   1      55.041  33.282  54.789  0.00  0.00     0.002 A 
ENDROOT
BRANCH   1  12
ATOM     12  C   UNL d   1      51.632  33.642  53.170  0.00  0.00     0.140 A 
ATOM     13  S   UNL d   1      51.333  34.170  52.616  0.00  0.00    -0.024 SA
ATOM     14  C   UNL d   1      50.521  34.100  52.620  0.00  0.00     0.236 A 
ATOM     15  N   UNL d   1      49.978  34.527  52.148  0.00  0.00    -0.118 N 
ATOM     16  N   UNL d   1      50.303  33.543  53.162  0.00  0.00    -0.119 NA
ATOM     17  N   UNL d   1      50.985  33.248  53.512  0.00  0.00    -0.139 NA
ENDBRANCH   1  12
TORSDOF 1
ENDMDL
MODEL 2
REMARK VINA RESULT:      -9.4      2.285      3.319
REMARK  1 active torsions:
REMARK  status: ('A' for Active; 'I' for Inactive)
REMARK    1  A    between atoms: C_2  and  C_1 
ROOT
ATOM      1  C   UNL d   1      52.982  32.099  53.281  0.00  0.00     0.089 A 
ATOM      2  C   UNL d   1      53.647  32.570  53.386  0.00  0.00     0.302 A 
ATOM      3  C   UNL d   1      52.236  32.447  53.162  0.00  0.00     0.009 A 
ATOM      4  O   UNL d   1      53.573  33.393  53.374  0.00  0.00    -0.273 OA
ATOM      5  C   UNL d   1      52.172  33.273  53.151  0.00  0.00     0.023 A 
ATOM      6  C   UNL d   1      52.837  33.743  53.256  0.00  0.00     0.103 A 
ATOM      7  O   UNL d   1      54.381  32.205  53.504  0.00  0.00    -0.259 OA
ATOM      8  C   UNL d   1      51.427  33.619  53.031  0.00  0.00     0.002 A 
ATOM      9  C   UNL d   1      52.764  34.565  53.243  0.00  0.00     0.025 A 
ATOM     10  C   UNL d   1      51.364  34.444  53.020  0.00  0.00     0.000 A 
ATOM     11  C   UNL d   1      52.029  34.914  53.126  0.00  0.00     0.002 A 
ENDROOT
BRANCH   1  12
ATOM     12  C   UNL d   1      53.061  31.270  53.294  0.00  0.00     0.140 A 
ATOM     13  S   UNL d   1      53.260  30.735  53.885  0.00  0.00    -0.024 SA
ATOM     14  C   UNL d   1      53.244  29.988  53.558  0.00  0.00     0.236 A 
ATOM     15  N   UNL d   1      53.408  29.266  53.947  0.00  0.00    -0.118 N 
ATOM     16  N   UNL d   1      53.040  30.041  52.779  0.00  0.00    -0.119 NA
ATOM     17  N   UNL d   1      52.923  30.835  52.600  0.00  0.00    -0.139 NA
ENDBRANCH   1  12
TORSDOF 1
ENDMDL
MODEL 3
REMARK VINA RESULT:      -9.3      1.974      2.801
REMARK  1 active torsions:
REMARK  status: ('A' for Active; 'I' for Inactive)
REMARK    1  A    between atoms: C_2  and  C_1 
ROOT
ATOM      1  C   UNL d   1      53.368  32.955  53.772  0.00  0.00     0.089 A 
ATOM      2  C   UNL d   1      54.063  32.657  54.093  0.00  0.00     0.302 A 
ATOM      3  C   UNL d   1      52.828  32.446  53.395  0.00  0.00     0.009 A 
ATOM      4  O   UNL d   1      54.226  31.849  54.039  0.00  0.00    -0.273 OA
ATOM      5  C   UNL d   1      53.001  31.638  53.346  0.00  0.00     0.023 A 
ATOM      6  C   UNL d   1      53.696  31.341  53.666  0.00  0.00     0.103 A 
ATOM      7  O   UNL d   1      54.587  33.179  54.465  0.00  0.00    -0.259 OA
ATOM      8  C   UNL d   1      52.462  31.131  52.969  0.00  0.00     0.002 A 
ATOM      9  C   UNL d   1      53.860  30.534  53.613  0.00  0.00     0.025 A 
ATOM     10  C   UNL d   1      52.635  30.324  52.920  0.00  0.00     0.000 A 
ATOM     11  C   UNL d   1      53.330  30.026  53.241  0.00  0.00     0.002 A 
ENDROOT
BRANCH   1  12
ATOM     12  C   UNL d   1      53.206  33.770  53.828  0.00  0.00     0.140 A 
ATOM     13  S   UNL d   1      53.131  34.285  54.464  0.00  0.00    -0.024 SA
ATOM     14  C   UNL d   1      52.969  35.026  54.165  0.00  0.00     0.236 A 
ATOM     15  N   UNL d   1      52.847  35.728  54.602  0.00  0.00    -0.118 N 
ATOM     16  N   UNL d   1      52.939  34.989  53.359  0.00  0.00    -0.119 NA
ATOM     17  N   UNL d   1      53.085  34.212  53.135  0.00  0.00    -0.139 NA
ENDBRANCH   1  12
TORSDOF 1
ENDMDL
MODEL 4
REMARK VINA RESULT:      -8.4      1.947      3.467
REMARK  1 active torsions:
REMARK  status: ('A' for Active; 'I' for Inactive)
REMARK    1  A    between atoms: C_2  and  C_1 
ROOT
ATOM      1  C   UNL d   1      53.016  33.403  53.759  0.00  0.00     0.089 A 
ATOM      2  C   UNL d   1      53.016  32.907  53.105  0.00  0.00     0.302 A 
ATOM      3  C   UNL d   1      52.399  33.949  53.873  0.00  0.00     0.009 A 
ATOM      4  O   UNL d   1      52.398  32.952  52.557  0.00  0.00    -0.273 OA
ATOM      5  C   UNL d   1      51.786  33.987  53.318  0.00  0.00     0.023 A 
ATOM      6  C   UNL d   1      51.785  33.491  52.663  0.00  0.00     0.103 A 
ATOM      7  O   UNL d   1      53.638  32.370  53.010  0.00  0.00    -0.259 OA
ATOM      8  C   UNL d   1      51.171  34.533  53.432  0.00  0.00     0.002 A 
ATOM      9  C   UNL d   1      51.170  33.536  52.116  0.00  0.00     0.025 A 
ATOM     10  C   UNL d   1      50.558  34.570  52.877  0.00  0.00     0.000 A 
ATOM     11  C   UNL d   1      50.557  34.074  52.222  0.00  0.00     0.002 A 
ENDROOT
BRANCH   1  12
ATOM     12  C   UNL d   1      53.639  33.355  54.310  0.00  0.00     0.140 A 
ATOM     13  S   UNL d   1      54.324  33.795  54.423  0.00  0.00    -0.024 SA
ATOM     14  C   UNL d   1      54.721  33.477  55.060  0.00  0.00     0.236 A 
ATOM     15  N   UNL d   1      55.446  33.741  55.383  0.00  0.00    -0.118 N 
ATOM     16  N   UNL d   1      54.304  32.849  55.349  0.00  0.00    -0.119 NA
ATOM     17  N   UNL d   1      53.627  32.761  54.891  0.00  0.00    -0.139 NA
ENDBRANCH   1  12
TORSDOF 1
ENDMDL
