MODEL 1
REMARK VINA RESULT:      21.3      0.000      0.000
REMARK  1 active torsions:
REMARK  status: ('A' for Active; 'I' for Inactive)
REMARK    1  A    between atoms: C_6  and  C_1 
ROOT
ATOM      1  C   UNL d   1     -55.323-102.184 -38.064  0.00  0.00     0.111 A 
ATOM      2  N   UNL d   1     -55.962-102.541 -38.446  0.00  0.00    -0.239 NA
ATOM      3  S   UNL d   1     -54.741-102.001 -38.632  0.00  0.00    -0.066 SA
ATOM      4  C   UNL d   1     -55.779-102.579 -39.247  0.00  0.00     0.088 A 
ATOM      5  C   UNL d   1     -55.032-102.249 -39.360  0.00  0.00     0.049 A 
ATOM      6  C   UNL d   1     -56.202-102.877 -39.900  0.00  0.00     0.020 A 
ATOM      7  C   UNL d   1     -54.711-102.218 -40.127  0.00  0.00     0.008 A 
ATOM      8  C   UNL d   1     -55.130-102.515 -40.780  0.00  0.00     0.001 A 
ATOM      9  C   UNL d   1     -55.878-102.845 -40.666  0.00  0.00     0.002 A 
ENDROOT
BRANCH   1  10
ATOM     10  C   UNL d   1     -55.219-102.014 -37.283  0.00  0.00     0.025 A 
ATOM     11  C   UNL d   1     -55.493-102.527 -36.667  0.00  0.00     0.023 A 
ATOM     12  C   UNL d   1     -55.384-102.349 -35.889  0.00  0.00     0.103 A 
ATOM     13  N   UNL d   1     -55.669-102.880 -35.325  0.00  0.00    -0.148 N 
ATOM     14  C   UNL d   1     -54.981-101.624 -35.685  0.00  0.00     0.021 A 
ATOM     15  C   UNL d   1     -54.712-101.121 -36.270  0.00  0.00     0.002 A 
ATOM     16  C   UNL d   1     -54.835-101.324 -37.055  0.00  0.00     0.002 A 
ENDBRANCH   1  10
TORSDOF 1
ENDMDL
