MODEL 1
REMARK VINA RESULT:      57.8      0.000      0.000
REMARK  6 active torsions:
REMARK  status: ('A' for Active; 'I' for Inactive)
REMARK    1  A    between atoms: C_10  and  C_2 
REMARK    2  A    between atoms: C_14  and  N_3 
REMARK    3  A    between atoms: C_15  and  C_4 
REMARK    4  A    between atoms: N_5  and  C_9 
REMARK       I    between atoms: C_7  and  N_8 
REMARK    5  A    between atoms: C_13  and  C_7 
REMARK    6  A    between atoms: N_8  and  C_10 
ROOT
ATOM      1  N   UNL d   1      13.871  11.780  -2.819  0.00  0.00    -0.165 NA
ATOM      2  C   UNL d   1      14.132  13.161  -2.533  0.00  0.00     0.071 A 
ATOM      3  N   UNL d   1      13.623  12.731  -3.812  0.00  0.00    -0.228 N 
ATOM      4  C   UNL d   1      14.125  12.384  -2.303  0.00  0.00     0.105 A 
ATOM      5  C   UNL d   1      13.878  13.335  -3.296  0.00  0.00     0.105 A 
ENDROOT
BRANCH   2   6
ATOM      6  C   UNL d   1      14.390  13.774  -2.011  0.00  0.00     0.168 C 
BRANCH   6   7
ATOM      7  N   UNL d   1      14.343  14.571  -2.226  0.00  0.00    -0.362 NA
ATOM      8  C   UNL d   1      14.294  15.361  -2.443  0.00  0.00     0.328 C 
ATOM      9  O   UNL d   1      13.853  15.590  -3.102  0.00  0.00    -0.251 OA
BRANCH   8  10
ATOM     10  C   UNL d   1      14.690  15.930  -1.997  0.00  0.00     0.070 A 
ATOM     11  C   UNL d   1      14.828  15.799  -1.192  0.00  0.00     0.008 A 
ATOM     12  C   UNL d   1      15.226  16.370  -0.739  0.00  0.00     0.024 A 
ATOM     13  C   UNL d   1      15.482  17.064  -1.092  0.00  0.00     0.127 A 
ATOM     14  C   UNL d   1      15.348  17.202  -1.896  0.00  0.00     0.024 A 
ATOM     15  C   UNL d   1      14.945  16.623  -2.351  0.00  0.00     0.008 A 
BRANCH  13  16
ATOM     16  N   UNL d   1      15.879  17.635  -0.645  0.00  0.00    -0.114 N 
ATOM     17  O   UNL d   1      15.439  18.188  -0.219  0.00  0.00    -0.532 OA
ATOM     18  O   UNL d   1      16.701  17.651  -0.624  0.00  0.00    -0.532 OA
ENDBRANCH  13  16
ENDBRANCH   8  10
ENDBRANCH   6   7
ENDBRANCH   2   6
BRANCH   4  19
ATOM     19  C   UNL d   1      14.382  12.203  -1.532  0.00  0.00     0.019 A 
ATOM     20  C   UNL d   1      13.835  12.271  -0.923  0.00  0.00     0.002 A 
ATOM     21  C   UNL d   1      14.082  12.093  -0.157  0.00  0.00     0.000 A 
ATOM     22  C   UNL d   1      14.882  11.847  -0.015  0.00  0.00     0.000 A 
ATOM     23  C   UNL d   1      15.413  11.784  -0.632  0.00  0.00     0.000 A 
ATOM     24  C   UNL d   1      15.179  11.957  -1.391  0.00  0.00     0.002 A 
ENDBRANCH   4  19
BRANCH   3  25
ATOM     25  C   UNL d   1      13.339  12.700  -4.593  0.00  0.00     0.083 A 
ATOM     26  C   UNL d   1      13.323  11.969  -5.016  0.00  0.00     0.019 A 
ATOM     27  C   UNL d   1      13.041  11.933  -5.791  0.00  0.00     0.002 A 
ATOM     28  C   UNL d   1      12.777  12.624  -6.145  0.00  0.00     0.000 A 
ATOM     29  C   UNL d   1      12.797  13.348  -5.715  0.00  0.00     0.002 A 
ATOM     30  C   UNL d   1      13.077  13.386  -4.941  0.00  0.00     0.019 A 
ENDBRANCH   3  25
TORSDOF 6
ENDMDL
