MODEL 1
REMARK VINA RESULT:      20.9      0.000      0.000
REMARK  5 active torsions:
REMARK  status: ('A' for Active; 'I' for Inactive)
REMARK    1  A    between atoms: N_2  and  S_1 
REMARK    2  A    between atoms: C_3  and  S_1 
REMARK    3  A    between atoms: C_8  and  N_2 
REMARK    4  A    between atoms: C_12  and  C_8 
REMARK    5  A    between atoms: O_13  and  C_9 
ROOT
ATOM      1  S   UNL d   1     -56.402 -98.926 -44.356  0.00  0.00     0.285 S 
ATOM      2  O   UNL d   1     -56.549 -98.962 -45.167  0.00  0.00    -0.198 OA
ATOM      3  O   UNL d   1     -56.253 -98.889 -43.536  0.00  0.00    -0.198 OA
ENDROOT
BRANCH   1   4
ATOM      4  N   UNL d   1     -55.591 -98.967 -44.501  0.00  0.00    -0.157 NA
BRANCH   4   5
ATOM      5  C   UNL d   1     -55.108 -99.425 -44.016  0.00  0.00     0.112 C 
BRANCH   5   6
ATOM      6  C   UNL d   1     -54.982-100.221 -44.192  0.00  0.00     0.020 A 
ATOM      7  C   UNL d   1     -54.838-100.451 -44.967  0.00  0.00     0.002 A 
ATOM      8  C   UNL d   1     -54.712-101.247 -45.142  0.00  0.00     0.000 A 
ATOM      9  C   UNL d   1     -54.730-101.809 -44.542  0.00  0.00     0.000 A 
ATOM     10  C   UNL d   1     -54.876-101.568 -43.763  0.00  0.00     0.000 A 
ATOM     11  C   UNL d   1     -55.002-100.771 -43.588  0.00  0.00     0.002 A 
ENDBRANCH   5   6
ENDBRANCH   4   5
ENDBRANCH   1   4
BRANCH   1  12
ATOM     12  C   UNL d   1     -57.213 -98.884 -44.211  0.00  0.00     0.105 A 
ATOM     13  C   UNL d   1     -57.491 -98.801 -43.441  0.00  0.00     0.015 A 
ATOM     14  C   UNL d   1     -58.306 -98.759 -43.295  0.00  0.00     0.025 A 
ATOM     15  C   UNL d   1     -58.839 -98.801 -43.921  0.00  0.00     0.094 A 
ATOM     16  C   UNL d   1     -58.564 -98.885 -44.699  0.00  0.00     0.025 A 
ATOM     17  C   UNL d   1     -57.748 -98.926 -44.845  0.00  0.00     0.015 A 
BRANCH  15  18
ATOM     18  O   UNL d   1     -59.650 -98.759 -43.776  0.00  0.00    -0.328 OA
ATOM     19  C   UNL d   1     -59.938 -98.868 -43.004  0.00  0.00     0.181 C 
ENDBRANCH  15  18
ENDBRANCH   1  12
TORSDOF 5
ENDMDL
