MODEL 1
REMARK VINA RESULT:      52.6      0.000      0.000
REMARK  3 active torsions:
REMARK  status: ('A' for Active; 'I' for Inactive)
REMARK    1  A    between atoms: C_2  and  C_1 
REMARK    2  A    between atoms: N_3  and  C_1 
REMARK    3  A    between atoms: C_13  and  N_3 
ROOT
ATOM      1  C   UNL d   1     -56.404 -99.958 -44.505  0.00  0.00     0.030 A 
ATOM      2  C   UNL d   1     -55.763-100.967 -43.710  0.00  0.00     0.119 A 
ATOM      3  C   UNL d   1     -56.334-100.752 -44.264  0.00  0.00     0.029 A 
ATOM      4  C   UNL d   1     -55.264-100.386 -43.397  0.00  0.00     0.119 A 
ATOM      5  O   UNL d   1     -55.558-101.720 -43.358  0.00  0.00    -0.300 OA
ATOM      6  O   UNL d   1     -54.744-100.789 -42.846  0.00  0.00    -0.300 OA
ATOM      7  C   UNL d   1     -54.944-101.563 -42.849  0.00  0.00     0.304 A 
ATOM      8  C   UNL d   1     -55.903 -99.386 -44.189  0.00  0.00     0.004 A 
ATOM      9  C   UNL d   1     -55.333 -99.600 -43.636  0.00  0.00     0.026 A 
ENDROOT
BRANCH   1  10
ATOM     10  C   UNL d   1     -56.974 -99.744 -45.058  0.00  0.00     0.136 C 
ATOM     11  S   UNL d   1     -57.182-100.269 -45.661  0.00  0.00    -0.057 SA
BRANCH  10  12
ATOM     12  N   UNL d   1     -57.339 -98.996 -45.008  0.00  0.00    -0.235 NA
BRANCH  12  13
ATOM     13  C   UNL d   1     -58.161 -98.943 -44.933  0.00  0.00     0.082 A 
ATOM     14  C   UNL d   1     -58.509 -99.004 -44.194  0.00  0.00     0.019 A 
ATOM     15  C   UNL d   1     -59.330 -98.951 -44.119  0.00  0.00     0.002 A 
ATOM     16  C   UNL d   1     -59.798 -98.836 -44.789  0.00  0.00     0.000 A 
ATOM     17  C   UNL d   1     -59.443 -98.775 -45.534  0.00  0.00     0.002 A 
ATOM     18  C   UNL d   1     -58.625 -98.828 -45.605  0.00  0.00     0.019 A 
ENDBRANCH  12  13
ENDBRANCH  10  12
ENDBRANCH   1  10
TORSDOF 3
ENDMDL
MODEL 2
REMARK VINA RESULT:      55.5      2.984      5.155
REMARK  3 active torsions:
REMARK  status: ('A' for Active; 'I' for Inactive)
REMARK    1  A    between atoms: C_2  and  C_1 
REMARK    2  A    between atoms: N_3  and  C_1 
REMARK    3  A    between atoms: C_13  and  N_3 
ROOT
ATOM      1  C   UNL d   1     -54.934-101.775 -42.338  0.00  0.00     0.030 A 
ATOM      2  C   UNL d   1     -55.257-100.725 -43.261  0.00  0.00     0.119 A 
ATOM      3  C   UNL d   1     -55.208-101.003 -42.487  0.00  0.00     0.029 A 
ATOM      4  C   UNL d   1     -55.032-101.219 -43.885  0.00  0.00     0.119 A 
ATOM      5  O   UNL d   1     -55.511 -99.975 -43.587  0.00  0.00    -0.300 OA
ATOM      6  O   UNL d   1     -55.149-100.767 -44.603  0.00  0.00    -0.300 OA
ATOM      7  C   UNL d   1     -55.429-100.048 -44.393  0.00  0.00     0.304 A 
ATOM      8  C   UNL d   1     -54.711-102.262 -42.964  0.00  0.00     0.004 A 
ATOM      9  C   UNL d   1     -54.760-101.984 -43.737  0.00  0.00     0.026 A 
ENDROOT
BRANCH   1  10
ATOM     10  C   UNL d   1     -54.884-102.053 -41.565  0.00  0.00     0.136 C 
ATOM     11  S   UNL d   1     -54.770-102.858 -41.421  0.00  0.00    -0.057 SA
BRANCH  10  12
ATOM     12  N   UNL d   1     -54.951-101.518 -40.928  0.00  0.00    -0.235 NA
BRANCH  12  13
ATOM     13  C   UNL d   1     -54.880-101.791 -40.151  0.00  0.00     0.082 A 
ATOM     14  C   UNL d   1     -54.790-101.257 -39.537  0.00  0.00     0.019 A 
ATOM     15  C   UNL d   1     -54.718-101.530 -38.759  0.00  0.00     0.002 A 
ATOM     16  C   UNL d   1     -54.738-102.340 -38.605  0.00  0.00     0.000 A 
ATOM     17  C   UNL d   1     -54.828-102.877 -39.228  0.00  0.00     0.002 A 
ATOM     18  C   UNL d   1     -54.899-102.602 -40.001  0.00  0.00     0.019 A 
ENDBRANCH  12  13
ENDBRANCH  10  12
ENDBRANCH   1  10
TORSDOF 3
ENDMDL
