MODEL 1
REMARK VINA RESULT:      -6.1      0.000      0.000
REMARK  4 active torsions:
REMARK  status: ('A' for Active; 'I' for Inactive)
REMARK    1  A    between atoms: C_7  and  C_1 
REMARK    2  A    between atoms: N_4  and  C_9 
REMARK    3  A    between atoms: O_17  and  C_7 
REMARK    4  A    between atoms: C_18  and  O_17 
ROOT
ATOM      1  C   UNL d   1     -41.620-122.603 -51.976  0.00  0.00     0.127 A 
ATOM      2  C   UNL d   1     -41.331-123.346 -52.090  0.00  0.00     0.305 A 
ATOM      3  C   UNL d   1     -41.828-122.131 -52.623  0.00  0.00     0.013 A 
ATOM      4  O   UNL d   1     -41.239-123.646 -52.856  0.00  0.00    -0.273 OA
ATOM      5  C   UNL d   1     -41.735-122.434 -53.365  0.00  0.00     0.025 A 
ATOM      6  C   UNL d   1     -41.445-123.177 -53.479  0.00  0.00     0.103 A 
ATOM      7  C   UNL d   1     -41.851-122.262 -54.774  0.00  0.00     0.127 A 
ATOM      8  C   UNL d   1     -41.943-121.962 -54.010  0.00  0.00     0.025 A 
ATOM      9  O   UNL d   1     -41.123-123.817 -51.446  0.00  0.00    -0.259 OA
ATOM     10  C   UNL d   1     -41.353-123.477 -54.243  0.00  0.00     0.026 A 
ATOM     11  C   UNL d   1     -41.562-123.006 -54.888  0.00  0.00     0.026 A 
ENDROOT
BRANCH   1  12
ATOM     12  C   UNL d   1     -41.712-122.303 -51.213  0.00  0.00     0.305 C 
ATOM     13  O   UNL d   1     -41.124-121.828 -50.875  0.00  0.00    -0.259 OA
BRANCH  12  14
ATOM     14  O   UNL d   1     -42.393-122.480 -50.791  0.00  0.00    -0.271 OA
BRANCH  14  15
ATOM     15  C   UNL d   1     -42.469-122.229 -50.021  0.00  0.00     0.126 C 
ATOM     16  C   UNL d   1     -42.962-122.622 -49.515  0.00  0.00     0.029 C 
ENDBRANCH  14  15
ENDBRANCH  12  14
ENDBRANCH   1  12
BRANCH   7  17
ATOM     17  N   UNL d   1     -42.049-121.817 -55.427  0.00  0.00    -0.114 N 
ATOM     18  O   UNL d   1     -42.760-121.951 -55.793  0.00  0.00    -0.532 OA
ATOM     19  O   UNL d   1     -41.531-121.258 -55.688  0.00  0.00    -0.532 OA
ENDBRANCH   7  17
TORSDOF 4
ENDMDL
MODEL 2
REMARK VINA RESULT:      -4.3      1.558      3.844
REMARK  4 active torsions:
REMARK  status: ('A' for Active; 'I' for Inactive)
REMARK    1  A    between atoms: C_7  and  C_1 
REMARK    2  A    between atoms: N_4  and  C_9 
REMARK    3  A    between atoms: O_17  and  C_7 
REMARK    4  A    between atoms: C_18  and  O_17 
ROOT
ATOM      1  C   UNL d   1     -41.632-122.694 -53.478  0.00  0.00     0.127 A 
ATOM      2  C   UNL d   1     -41.309-123.432 -53.470  0.00  0.00     0.305 A 
ATOM      3  C   UNL d   1     -41.819-122.312 -52.768  0.00  0.00     0.013 A 
ATOM      4  O   UNL d   1     -41.161-123.816 -52.752  0.00  0.00    -0.273 OA
ATOM      5  C   UNL d   1     -41.670-122.695 -52.074  0.00  0.00     0.025 A 
ATOM      6  C   UNL d   1     -41.347-123.434 -52.066  0.00  0.00     0.103 A 
ATOM      7  C   UNL d   1     -41.709-122.697 -50.651  0.00  0.00     0.127 A 
ATOM      8  C   UNL d   1     -41.857-122.313 -51.367  0.00  0.00     0.025 A 
ATOM      9  O   UNL d   1     -41.123-123.814 -54.176  0.00  0.00    -0.259 OA
ATOM     10  C   UNL d   1     -41.199-123.817 -51.350  0.00  0.00     0.026 A 
ATOM     11  C   UNL d   1     -41.386-123.435 -50.643  0.00  0.00     0.026 A 
ENDROOT
BRANCH   1  12
ATOM     12  C   UNL d   1     -41.781-122.310 -54.193  0.00  0.00     0.305 C 
ATOM     13  O   UNL d   1     -41.194-121.849 -54.551  0.00  0.00    -0.259 OA
BRANCH  12  14
ATOM     14  O   UNL d   1     -42.517-122.390 -54.546  0.00  0.00    -0.271 OA
BRANCH  14  15
ATOM     15  C   UNL d   1     -42.719-121.913 -55.173  0.00  0.00     0.126 C 
ATOM     16  C   UNL d   1     -42.995-122.241 -55.859  0.00  0.00     0.029 C 
ENDBRANCH  14  15
ENDBRANCH  12  14
ENDBRANCH   1  12
BRANCH   7  17
ATOM     17  N   UNL d   1     -41.884-122.341 -49.939  0.00  0.00    -0.114 N 
ATOM     18  O   UNL d   1     -41.276-122.081 -49.469  0.00  0.00    -0.532 OA
ATOM     19  O   UNL d   1     -42.656-122.260 -49.725  0.00  0.00    -0.532 OA
ENDBRANCH   7  17
TORSDOF 4
ENDMDL
MODEL 3
REMARK VINA RESULT:      -3.3      2.351      4.838
REMARK  4 active torsions:
REMARK  status: ('A' for Active; 'I' for Inactive)
REMARK    1  A    between atoms: C_7  and  C_1 
REMARK    2  A    between atoms: N_4  and  C_9 
REMARK    3  A    between atoms: O_17  and  C_7 
REMARK    4  A    between atoms: C_18  and  O_17 
ROOT
ATOM      1  C   UNL d   1     -42.111-122.340 -51.199  0.00  0.00     0.127 A 
ATOM      2  C   UNL d   1     -42.882-122.108 -51.155  0.00  0.00     0.305 A 
ATOM      3  C   UNL d   1     -41.732-122.657 -50.535  0.00  0.00     0.013 A 
ATOM      4  O   UNL d   1     -43.302-122.184 -50.447  0.00  0.00    -0.273 OA
ATOM      5  C   UNL d   1     -42.151-122.726 -49.850  0.00  0.00     0.025 A 
ATOM      6  C   UNL d   1     -42.922-122.494 -49.806  0.00  0.00     0.103 A 
ATOM      7  C   UNL d   1     -42.192-123.118 -48.481  0.00  0.00     0.127 A 
ATOM      8  C   UNL d   1     -41.772-123.042 -49.188  0.00  0.00     0.025 A 
ATOM      9  O   UNL d   1     -43.261-121.792 -51.816  0.00  0.00    -0.259 OA
ATOM     10  C   UNL d   1     -43.342-122.570 -49.099  0.00  0.00     0.026 A 
ATOM     11  C   UNL d   1     -42.962-122.886 -48.438  0.00  0.00     0.026 A 
ENDROOT
BRANCH   1  12
ATOM     12  C   UNL d   1     -41.691-122.265 -51.905  0.00  0.00     0.305 C 
ATOM     13  O   UNL d   1     -41.271-121.571 -52.071  0.00  0.00    -0.259 OA
BRANCH  12  14
ATOM     14  O   UNL d   1     -41.693-122.885 -52.442  0.00  0.00    -0.271 OA
BRANCH  14  15
ATOM     15  C   UNL d   1     -41.123-122.923 -53.020  0.00  0.00     0.126 C 
ATOM     16  C   UNL d   1     -41.127-123.530 -53.554  0.00  0.00     0.029 C 
ENDBRANCH  14  15
ENDBRANCH  12  14
ENDBRANCH   1  12
BRANCH   7  17
ATOM     17  N   UNL d   1     -41.840-123.427 -47.814  0.00  0.00    -0.114 N 
ATOM     18  O   UNL d   1     -41.123-123.798 -47.884  0.00  0.00    -0.532 OA
ATOM     19  O   UNL d   1     -42.217-123.353 -47.107  0.00  0.00    -0.532 OA
ENDBRANCH   7  17
TORSDOF 4
ENDMDL
