MODEL 1
REMARK VINA RESULT:     -10.4      0.000      0.000
REMARK  6 active torsions:
REMARK  status: ('A' for Active; 'I' for Inactive)
REMARK    1  A    between atoms: C_5  and  S_1 
REMARK    2  A    between atoms: N_6  and  S_1 
REMARK       I    between atoms: N_2  and  C_3 
REMARK    3  A    between atoms: C_3  and  C_14 
REMARK    4  A    between atoms: C_4  and  C_7 
REMARK    5  A    between atoms: C_23  and  N_6 
REMARK    6  A    between atoms: C_24  and  C_23 
ROOT
ATOM      1  C   UNL d   1      49.344  34.528  51.794  0.00  0.00     0.057 A 
ATOM      2  C   UNL d   1      50.023  34.654  51.342  0.00  0.00     0.005 A 
ATOM      3  C   UNL d   1      49.414  34.294  52.583  0.00  0.00     0.005 A 
ATOM      4  C   UNL d   1      50.834  34.315  52.463  0.00  0.00     0.020 A 
ATOM      5  C   UNL d   1      50.765  34.548  51.674  0.00  0.00     0.002 A 
ATOM      6  C   UNL d   1      50.160  34.187  52.917  0.00  0.00     0.002 A 
ENDROOT
BRANCH   4   7
ATOM      7  C   UNL d   1      51.580  34.208  52.797  0.00  0.00     0.112 C 
BRANCH   7   8
ATOM      8  N   UNL d   1      51.724  33.558  53.277  0.00  0.00    -0.157 NA
BRANCH   8   9
ATOM      9  S   UNL d   1      52.511  33.359  53.474  0.00  0.00     0.285 S 
ATOM     10  O   UNL d   1      52.320  32.549  53.385  0.00  0.00    -0.198 OA
ATOM     11  O   UNL d   1      52.694  34.157  53.560  0.00  0.00    -0.198 OA
BRANCH   9  12
ATOM     12  C   UNL d   1      53.285  33.152  53.667  0.00  0.00     0.105 A 
ATOM     13  C   UNL d   1      53.597  33.358  54.396  0.00  0.00     0.017 A 
ATOM     14  C   UNL d   1      54.372  33.151  54.590  0.00  0.00     0.072 A 
ATOM     15  C   UNL d   1      54.834  32.734  54.042  0.00  0.00     0.004 A 
ATOM     16  C   UNL d   1      54.521  32.528  53.311  0.00  0.00     0.001 A 
ATOM     17  C   UNL d   1      53.747  32.739  53.127  0.00  0.00     0.013 A 
BRANCH  14  18
ATOM     18  C   UNL d   1      54.689  33.355  55.320  0.00  0.00     0.419 C 
ATOM     19  F   UNL d   1      54.306  32.711  55.668  0.00  0.00    -0.166 F 
ATOM     20  F   UNL d   1      55.074  34.003  54.974  0.00  0.00    -0.166 F 
ATOM     21  F   UNL d   1      55.009  33.563  56.057  0.00  0.00    -0.166 F 
ENDBRANCH  14  18
ENDBRANCH   9  12
ENDBRANCH   8   9
ENDBRANCH   7   8
ENDBRANCH   4   7
BRANCH   1  22
ATOM     22  C   UNL d   1      48.586  34.635  51.455  0.00  0.00     0.265 C 
ATOM     23  N   UNL d   1      48.074  35.208  51.767  0.00  0.00    -0.268 N 
ATOM     24  C   UNL d   1      48.312  35.670  52.408  0.00  0.00     0.108 A 
ATOM     25  C   UNL d   1      47.328  35.313  51.431  0.00  0.00     0.108 A 
ATOM     26  C   UNL d   1      47.796  36.244  52.718  0.00  0.00     0.118 A 
ATOM     27  C   UNL d   1      48.034  36.709  53.362  0.00  0.00     0.028 C 
ATOM     28  O   UNL d   1      47.049  36.348  52.382  0.00  0.00    -0.304 OA
ATOM     29  C   UNL d   1      46.808  35.887  51.740  0.00  0.00     0.118 A 
ATOM     30  C   UNL d   1      46.058  35.996  51.406  0.00  0.00     0.028 C 
ATOM     31  O   UNL d   1      48.352  34.170  50.812  0.00  0.00    -0.267 OA
ENDBRANCH   1  22
TORSDOF 6
ENDMDL
MODEL 2
REMARK VINA RESULT:     -10.3      3.157      6.386
REMARK  6 active torsions:
REMARK  status: ('A' for Active; 'I' for Inactive)
REMARK    1  A    between atoms: C_5  and  S_1 
REMARK    2  A    between atoms: N_6  and  S_1 
REMARK       I    between atoms: N_2  and  C_3 
REMARK    3  A    between atoms: C_3  and  C_14 
REMARK    4  A    between atoms: C_4  and  C_7 
REMARK    5  A    between atoms: C_23  and  N_6 
REMARK    6  A    between atoms: C_24  and  C_23 
ROOT
ATOM      1  C   UNL d   1      51.780  33.526  52.922  0.00  0.00     0.057 A 
ATOM      2  C   UNL d   1      51.681  34.118  52.355  0.00  0.00     0.005 A 
ATOM      3  C   UNL d   1      51.136  33.283  53.378  0.00  0.00     0.005 A 
ATOM      4  C   UNL d   1      50.303  34.220  52.701  0.00  0.00     0.020 A 
ATOM      5  C   UNL d   1      50.946  34.464  52.245  0.00  0.00     0.002 A 
ATOM      6  C   UNL d   1      50.397  33.630  53.268  0.00  0.00     0.002 A 
ENDROOT
BRANCH   4   7
ATOM      7  C   UNL d   1      49.563  34.567  52.591  0.00  0.00     0.112 C 
BRANCH   7   8
ATOM      8  N   UNL d   1      49.398  35.296  52.931  0.00  0.00    -0.157 NA
BRANCH   8   9
ATOM      9  S   UNL d   1      48.618  35.593  52.907  0.00  0.00     0.285 S 
ATOM     10  O   UNL d   1      48.791  36.077  53.567  0.00  0.00    -0.198 OA
ATOM     11  O   UNL d   1      48.453  35.114  52.258  0.00  0.00    -0.198 OA
BRANCH   9  12
ATOM     12  C   UNL d   1      47.851  35.893  52.892  0.00  0.00     0.105 A 
ATOM     13  C   UNL d   1      47.355  35.791  53.537  0.00  0.00     0.017 A 
ATOM     14  C   UNL d   1      46.586  36.091  53.522  0.00  0.00     0.072 A 
ATOM     15  C   UNL d   1      46.318  36.496  52.850  0.00  0.00     0.004 A 
ATOM     16  C   UNL d   1      46.814  36.598  52.204  0.00  0.00     0.001 A 
ATOM     17  C   UNL d   1      47.580  36.295  52.228  0.00  0.00     0.013 A 
BRANCH  14  18
ATOM     18  C   UNL d   1      46.087  35.991  54.166  0.00  0.00     0.419 C 
ATOM     19  F   UNL d   1      46.440  36.637  54.543  0.00  0.00    -0.166 F 
ATOM     20  F   UNL d   1      45.730  35.342  53.792  0.00  0.00    -0.166 F 
ATOM     21  F   UNL d   1      45.582  35.889  54.817  0.00  0.00    -0.166 F 
ENDBRANCH  14  18
ENDBRANCH   9  12
ENDBRANCH   8   9
ENDBRANCH   7   8
ENDBRANCH   4   7
BRANCH   1  22
ATOM     22  C   UNL d   1      52.530  33.173  53.035  0.00  0.00     0.265 C 
ATOM     23  N   UNL d   1      53.065  33.505  53.575  0.00  0.00    -0.268 N 
ATOM     24  C   UNL d   1      52.857  34.182  53.999  0.00  0.00     0.108 A 
ATOM     25  C   UNL d   1      53.803  33.155  53.684  0.00  0.00     0.108 A 
ATOM     26  C   UNL d   1      53.395  34.513  54.539  0.00  0.00     0.118 A 
ATOM     27  C   UNL d   1      53.187  35.193  54.966  0.00  0.00     0.028 C 
ATOM     28  O   UNL d   1      54.134  34.162  54.649  0.00  0.00    -0.304 OA
ATOM     29  C   UNL d   1      54.346  33.484  54.226  0.00  0.00     0.118 A 
ATOM     30  C   UNL d   1      55.088  33.136  54.339  0.00  0.00     0.028 C 
ATOM     31  O   UNL d   1      52.735  32.493  52.608  0.00  0.00    -0.267 OA
ENDBRANCH   1  22
TORSDOF 6
ENDMDL
MODEL 3
REMARK VINA RESULT:      -9.8      0.868      1.313
REMARK  6 active torsions:
REMARK  status: ('A' for Active; 'I' for Inactive)
REMARK    1  A    between atoms: C_5  and  S_1 
REMARK    2  A    between atoms: N_6  and  S_1 
REMARK       I    between atoms: N_2  and  C_3 
REMARK    3  A    between atoms: C_3  and  C_14 
REMARK    4  A    between atoms: C_4  and  C_7 
REMARK    5  A    between atoms: C_23  and  N_6 
REMARK    6  A    between atoms: C_24  and  C_23 
ROOT
ATOM      1  C   UNL d   1      49.097  34.630  51.657  0.00  0.00     0.057 A 
ATOM      2  C   UNL d   1      49.169  34.244  52.383  0.00  0.00     0.005 A 
ATOM      3  C   UNL d   1      49.774  34.822  51.226  0.00  0.00     0.005 A 
ATOM      4  C   UNL d   1      50.587  34.244  52.244  0.00  0.00     0.020 A 
ATOM      5  C   UNL d   1      49.910  34.051  52.676  0.00  0.00     0.002 A 
ATOM      6  C   UNL d   1      50.519  34.629  51.519  0.00  0.00     0.002 A 
ENDROOT
BRANCH   4   7
ATOM      7  C   UNL d   1      51.332  34.051  52.537  0.00  0.00     0.112 C 
BRANCH   7   8
ATOM      8  N   UNL d   1      51.641  34.464  53.175  0.00  0.00    -0.157 NA
BRANCH   8   9
ATOM      9  S   UNL d   1      52.344  34.197  53.537  0.00  0.00     0.285 S 
ATOM     10  O   UNL d   1      51.890  33.706  54.040  0.00  0.00    -0.198 OA
ATOM     11  O   UNL d   1      52.787  34.681  53.040  0.00  0.00    -0.198 OA
BRANCH   9  12
ATOM     12  C   UNL d   1      53.033  33.926  53.900  0.00  0.00     0.105 A 
ATOM     13  C   UNL d   1      53.390  33.234  53.645  0.00  0.00     0.017 A 
ATOM     14  C   UNL d   1      54.080  32.963  54.008  0.00  0.00     0.072 A 
ATOM     15  C   UNL d   1      54.409  33.396  54.634  0.00  0.00     0.004 A 
ATOM     16  C   UNL d   1      54.052  34.089  54.890  0.00  0.00     0.001 A 
ATOM     17  C   UNL d   1      53.364  34.352  54.522  0.00  0.00     0.013 A 
BRANCH  14  18
ATOM     18  C   UNL d   1      54.440  32.270  53.755  0.00  0.00     0.419 C 
ATOM     19  F   UNL d   1      54.951  32.709  53.276  0.00  0.00    -0.166 F 
ATOM     20  F   UNL d   1      53.929  31.826  54.235  0.00  0.00    -0.166 F 
ATOM     21  F   UNL d   1      54.804  31.569  53.500  0.00  0.00    -0.166 F 
ENDBRANCH  14  18
ENDBRANCH   9  12
ENDBRANCH   8   9
ENDBRANCH   7   8
ENDBRANCH   4   7
BRANCH   1  22
ATOM     22  C   UNL d   1      48.340  34.826  51.358  0.00  0.00     0.265 C 
ATOM     23  N   UNL d   1      47.876  35.390  51.751  0.00  0.00    -0.268 N 
ATOM     24  C   UNL d   1      48.160  35.755  52.435  0.00  0.00     0.108 A 
ATOM     25  C   UNL d   1      47.131  35.582  51.455  0.00  0.00     0.108 A 
ATOM     26  C   UNL d   1      47.692  36.319  52.826  0.00  0.00     0.118 A 
ATOM     27  C   UNL d   1      47.976  36.687  53.513  0.00  0.00     0.028 C 
ATOM     28  O   UNL d   1      46.946  36.512  52.530  0.00  0.00    -0.304 OA
ATOM     29  C   UNL d   1      46.659  36.148  51.845  0.00  0.00     0.118 A 
ATOM     30  C   UNL d   1      45.910  36.344  51.551  0.00  0.00     0.028 C 
ATOM     31  O   UNL d   1      48.059  34.457  50.672  0.00  0.00    -0.267 OA
ENDBRANCH   1  22
TORSDOF 6
ENDMDL
