MODEL 1
REMARK VINA RESULT:      -8.0      0.000      0.000
REMARK  5 active torsions:
REMARK  status: ('A' for Active; 'I' for Inactive)
REMARK    1  A    between atoms: N_2  and  S_1 
REMARK    2  A    between atoms: C_3  and  S_1 
REMARK    3  A    between atoms: C_4  and  N_2 
REMARK    4  A    between atoms: C_5  and  C_4 
REMARK       I    between atoms: C_8  and  N_9 
REMARK    5  A    between atoms: N_9  and  C_14 
ROOT
ATOM      1  C   UNL d   1      53.094  31.821  53.163  0.00  0.00     0.105 A 
ATOM      2  C   UNL d   1      52.388  32.255  53.078  0.00  0.00     0.015 A 
ATOM      3  C   UNL d   1      53.796  32.208  53.347  0.00  0.00     0.015 A 
ATOM      4  C   UNL d   1      53.095  33.459  53.363  0.00  0.00     0.085 A 
ATOM      5  C   UNL d   1      53.794  33.029  53.446  0.00  0.00     0.020 A 
ATOM      6  C   UNL d   1      52.391  33.072  53.178  0.00  0.00     0.020 A 
ENDROOT
BRANCH   1   7
ATOM      7  S   UNL d   1      53.089  31.003  53.062  0.00  0.00     0.285 S 
ATOM      8  O   UNL d   1      52.950  30.680  52.316  0.00  0.00    -0.198 OA
ATOM      9  O   UNL d   1      53.243  31.112  53.866  0.00  0.00    -0.198 OA
BRANCH   7  10
ATOM     10  N   UNL d   1      53.224  30.500  53.706  0.00  0.00    -0.150 NA
BRANCH  10  11
ATOM     11  C   UNL d   1      53.128  29.687  53.627  0.00  0.00     0.182 C 
BRANCH  11  12
ATOM     12  C   UNL d   1      53.209  29.191  54.278  0.00  0.00     0.232 C 
ATOM     13  O   UNL d   1      52.565  29.071  54.779  0.00  0.00    -0.643 OA
ATOM     14  O   UNL d   1      53.926  28.815  54.430  0.00  0.00    -0.643 OA
ENDBRANCH  11  12
ENDBRANCH  10  11
ENDBRANCH   7  10
ENDBRANCH   1   7
BRANCH   4  15
ATOM     15  N   UNL d   1      53.100  34.280  53.464  0.00  0.00    -0.208 NA
ATOM     16  C   UNL d   1      53.044  34.601  54.220  0.00  0.00     0.279 C 
ATOM     17  O   UNL d   1      52.982  34.106  54.876  0.00  0.00    -0.265 OA
ATOM     18  C   UNL d   1      53.049  35.426  54.323  0.00  0.00     0.068 C 
ENDBRANCH   4  15
TORSDOF 5
ENDMDL
MODEL 2
REMARK VINA RESULT:      -7.8      1.577      4.319
REMARK  5 active torsions:
REMARK  status: ('A' for Active; 'I' for Inactive)
REMARK    1  A    between atoms: N_2  and  S_1 
REMARK    2  A    between atoms: C_3  and  S_1 
REMARK    3  A    between atoms: C_4  and  N_2 
REMARK    4  A    between atoms: C_5  and  C_4 
REMARK       I    between atoms: C_8  and  N_9 
REMARK    5  A    between atoms: N_9  and  C_14 
ROOT
ATOM      1  C   UNL d   1      53.985  33.072  54.369  0.00  0.00     0.105 A 
ATOM      2  C   UNL d   1      54.169  32.881  53.580  0.00  0.00     0.015 A 
ATOM      3  C   UNL d   1      53.718  32.487  54.883  0.00  0.00     0.015 A 
ATOM      4  C   UNL d   1      53.818  31.522  53.825  0.00  0.00     0.085 A 
ATOM      5  C   UNL d   1      53.636  31.711  54.608  0.00  0.00     0.020 A 
ATOM      6  C   UNL d   1      54.085  32.108  53.311  0.00  0.00     0.020 A 
ENDROOT
BRANCH   1   7
ATOM      7  S   UNL d   1      54.069  33.846  54.637  0.00  0.00     0.285 S 
ATOM      8  O   UNL d   1      54.689  34.042  55.145  0.00  0.00    -0.198 OA
ATOM      9  O   UNL d   1      53.401  33.867  54.151  0.00  0.00    -0.198 OA
BRANCH   7  10
ATOM     10  N   UNL d   1      53.535  34.433  54.400  0.00  0.00    -0.150 NA
BRANCH  10  11
ATOM     11  C   UNL d   1      53.405  35.093  54.873  0.00  0.00     0.182 C 
BRANCH  11  12
ATOM     12  C   UNL d   1      52.968  35.731  54.590  0.00  0.00     0.232 C 
ATOM     13  O   UNL d   1      53.330  36.468  54.515  0.00  0.00    -0.643 OA
ATOM     14  O   UNL d   1      52.177  35.636  54.383  0.00  0.00    -0.643 OA
ENDBRANCH  11  12
ENDBRANCH  10  11
ENDBRANCH   7  10
ENDBRANCH   1   7
BRANCH   4  15
ATOM     15  N   UNL d   1      53.733  30.744  53.557  0.00  0.00    -0.208 NA
ATOM     16  C   UNL d   1      53.035  30.511  53.188  0.00  0.00     0.279 C 
ATOM     17  O   UNL d   1      52.421  31.051  53.085  0.00  0.00    -0.265 OA
ATOM     18  C   UNL d   1      52.948  29.730  52.918  0.00  0.00     0.068 C 
ENDBRANCH   4  15
TORSDOF 5
ENDMDL
MODEL 3
REMARK VINA RESULT:      -7.7      2.443      3.324
REMARK  5 active torsions:
REMARK  status: ('A' for Active; 'I' for Inactive)
REMARK    1  A    between atoms: N_2  and  S_1 
REMARK    2  A    between atoms: C_3  and  S_1 
REMARK    3  A    between atoms: C_4  and  N_2 
REMARK    4  A    between atoms: C_5  and  C_4 
REMARK       I    between atoms: C_8  and  N_9 
REMARK    5  A    between atoms: N_9  and  C_14 
ROOT
ATOM      1  C   UNL d   1      52.482  33.561  53.358  0.00  0.00     0.105 A 
ATOM      2  C   UNL d   1      51.832  33.042  53.398  0.00  0.00     0.015 A 
ATOM      3  C   UNL d   1      52.369  34.346  53.142  0.00  0.00     0.015 A 
ATOM      4  C   UNL d   1      50.963  34.100  53.006  0.00  0.00     0.085 A 
ATOM      5  C   UNL d   1      51.607  34.614  52.966  0.00  0.00     0.020 A 
ATOM      6  C   UNL d   1      51.075  33.313  53.222  0.00  0.00     0.020 A 
ENDROOT
BRANCH   1   7
ATOM      7  S   UNL d   1      53.239  33.288  53.535  0.00  0.00     0.285 S 
ATOM      8  O   UNL d   1      53.661  32.853  52.976  0.00  0.00    -0.198 OA
ATOM      9  O   UNL d   1      53.000  33.690  54.215  0.00  0.00    -0.198 OA
BRANCH   7  10
ATOM     10  N   UNL d   1      53.581  33.447  54.272  0.00  0.00    -0.150 NA
BRANCH  10  11
ATOM     11  C   UNL d   1      54.350  33.203  54.436  0.00  0.00     0.182 C 
BRANCH  11  12
ATOM     12  C   UNL d   1      54.693  33.363  55.166  0.00  0.00     0.232 C 
ATOM     13  O   UNL d   1      54.508  32.887  55.814  0.00  0.00    -0.643 OA
ATOM     14  O   UNL d   1      55.216  33.993  55.252  0.00  0.00    -0.643 OA
ENDBRANCH  11  12
ENDBRANCH  10  11
ENDBRANCH   7  10
ENDBRANCH   1   7
BRANCH   4  15
ATOM     15  N   UNL d   1      50.203  34.376  52.828  0.00  0.00    -0.208 NA
ATOM     16  C   UNL d   1      49.955  34.422  52.044  0.00  0.00     0.279 C 
ATOM     17  O   UNL d   1      50.463  34.194  51.436  0.00  0.00    -0.265 OA
ATOM     18  C   UNL d   1      49.193  34.698  51.864  0.00  0.00     0.068 C 
ENDBRANCH   4  15
TORSDOF 5
ENDMDL
MODEL 4
REMARK VINA RESULT:      -7.4      1.616      4.065
REMARK  5 active torsions:
REMARK  status: ('A' for Active; 'I' for Inactive)
REMARK    1  A    between atoms: N_2  and  S_1 
REMARK    2  A    between atoms: C_3  and  S_1 
REMARK    3  A    between atoms: C_4  and  N_2 
REMARK    4  A    between atoms: C_5  and  C_4 
REMARK       I    between atoms: C_8  and  N_9 
REMARK    5  A    between atoms: N_9  and  C_14 
ROOT
ATOM      1  C   UNL d   1      53.048  32.106  53.253  0.00  0.00     0.105 A 
ATOM      2  C   UNL d   1      53.612  31.928  53.839  0.00  0.00     0.015 A 
ATOM      3  C   UNL d   1      52.692  31.500  52.826  0.00  0.00     0.015 A 
ATOM      4  C   UNL d   1      53.458  30.538  53.565  0.00  0.00     0.085 A 
ATOM      5  C   UNL d   1      52.899  30.715  52.984  0.00  0.00     0.020 A 
ATOM      6  C   UNL d   1      53.815  31.145  53.993  0.00  0.00     0.020 A 
ENDROOT
BRANCH   1   7
ATOM      7  S   UNL d   1      52.847  32.890  53.100  0.00  0.00     0.285 S 
ATOM      8  O   UNL d   1      53.426  33.477  53.123  0.00  0.00    -0.198 OA
ATOM      9  O   UNL d   1      52.136  32.476  53.028  0.00  0.00    -0.198 OA
BRANCH   7  10
ATOM     10  N   UNL d   1      52.064  33.096  52.924  0.00  0.00    -0.150 NA
BRANCH  10  11
ATOM     11  C   UNL d   1      51.846  33.886  52.856  0.00  0.00     0.182 C 
BRANCH  11  12
ATOM     12  C   UNL d   1      51.087  34.091  52.612  0.00  0.00     0.232 C 
ATOM     13  O   UNL d   1      50.949  34.256  51.815  0.00  0.00    -0.643 OA
ATOM     14  O   UNL d   1      50.470  34.132  53.155  0.00  0.00    -0.643 OA
ENDBRANCH  11  12
ENDBRANCH  10  11
ENDBRANCH   7  10
ENDBRANCH   1   7
BRANCH   4  15
ATOM     15  N   UNL d   1      53.660  29.750  53.718  0.00  0.00    -0.208 NA
ATOM     16  C   UNL d   1      53.281  29.339  54.321  0.00  0.00     0.279 C 
ATOM     17  O   UNL d   1      52.700  29.710  54.775  0.00  0.00    -0.265 OA
ATOM     18  C   UNL d   1      53.482  28.547  54.476  0.00  0.00     0.068 C 
ENDBRANCH   4  15
TORSDOF 5
ENDMDL
