MODEL 1
REMARK VINA RESULT:      32.0      0.000      0.000
REMARK  3 active torsions:
REMARK  status: ('A' for Active; 'I' for Inactive)
REMARK       I    between atoms: N_2  and  C_1 
REMARK       I    between atoms: N_5  and  C_1 
REMARK       I    between atoms: C_4  and  N_3 
REMARK    1  A    between atoms: O_14  and  C_4 
REMARK    2  A    between atoms: C_12  and  N_5 
REMARK    3  A    between atoms: C_20  and  O_14 
ROOT
ATOM      1  C   UNL d   1      15.743  12.218  -1.160  0.00  0.00     0.354 C 
ATOM      2  N   UNL d   1      15.160  12.290  -1.749  0.00  0.00    -0.253 N 
ATOM      3  N   UNL d   1      14.037  12.414  -2.920  0.00  0.00    -0.249 N 
ATOM      4  C   UNL d   1      13.456  12.474  -3.535  0.00  0.00     0.378 C 
ATOM      5  N   UNL d   1      15.630  12.602  -0.415  0.00  0.00    -0.192 NA
ATOM      6  O   UNL d   1      16.440  11.779  -1.274  0.00  0.00    -0.244 OA
ATOM      7  C   UNL d   1      14.466  12.731  -1.625  0.00  0.00     0.104 A 
ATOM      8  C   UNL d   1      15.281  11.916  -2.461  0.00  0.00     0.104 A 
ATOM      9  C   UNL d   1      14.704  11.982  -3.058  0.00  0.00     0.104 A 
ATOM     10  C   UNL d   1      13.913  12.783  -2.224  0.00  0.00     0.104 A 
ATOM     11  O   UNL d   1      12.770  12.900  -3.436  0.00  0.00    -0.237 OA
ENDROOT
BRANCH   5  12
ATOM     12  C   UNL d   1      14.967  13.027  -0.286  0.00  0.00     0.087 A 
ATOM     13  C   UNL d   1      14.978  13.847  -0.227  0.00  0.00     0.031 A 
ATOM     14  C   UNL d   1      14.304  14.259  -0.098  0.00  0.00     0.059 A 
ATOM     15 CL   UNL d   1      14.352  15.096  -0.043  0.00  0.00    -0.082 Cl
ATOM     16  C   UNL d   1      13.580  13.872  -0.020  0.00  0.00     0.011 A 
ATOM     17  C   UNL d   1      13.562  13.045  -0.079  0.00  0.00     0.002 A 
ATOM     18  C   UNL d   1      14.237  12.633  -0.208  0.00  0.00     0.019 A 
ENDBRANCH   5  12
BRANCH   4  19
ATOM     19  O   UNL d   1      13.591  12.089  -4.254  0.00  0.00    -0.257 OA
BRANCH  19  20
ATOM     20  C   UNL d   1      12.960  11.889  -4.733  0.00  0.00     0.128 C 
ATOM     21  C   UNL d   1      13.050  11.855  -5.552  0.00  0.00     0.029 C 
ENDBRANCH  19  20
ENDBRANCH   4  19
TORSDOF 3
ENDMDL
MODEL 2
REMARK VINA RESULT:      32.7      1.440      1.834
REMARK  3 active torsions:
REMARK  status: ('A' for Active; 'I' for Inactive)
REMARK       I    between atoms: N_2  and  C_1 
REMARK       I    between atoms: N_5  and  C_1 
REMARK       I    between atoms: C_4  and  N_3 
REMARK    1  A    between atoms: O_14  and  C_4 
REMARK    2  A    between atoms: C_12  and  N_5 
REMARK    3  A    between atoms: C_20  and  O_14 
ROOT
ATOM      1  C   UNL d   1      14.780  14.486  -1.381  0.00  0.00     0.354 C 
ATOM      2  N   UNL d   1      14.420  13.995  -1.947  0.00  0.00    -0.253 N 
ATOM      3  N   UNL d   1      13.715  13.057  -3.075  0.00  0.00    -0.249 N 
ATOM      4  C   UNL d   1      13.347  12.575  -3.667  0.00  0.00     0.378 C 
ATOM      5  N   UNL d   1      15.020  14.159  -0.640  0.00  0.00    -0.192 NA
ATOM      6  O   UNL d   1      14.914  15.296  -1.515  0.00  0.00    -0.244 OA
ATOM      7  C   UNL d   1      14.290  13.186  -1.805  0.00  0.00     0.104 A 
ATOM      8  C   UNL d   1      14.194  14.323  -2.657  0.00  0.00     0.104 A 
ATOM      9  C   UNL d   1      13.833  13.840  -3.231  0.00  0.00     0.104 A 
ATOM     10  C   UNL d   1      13.935  12.730  -2.381  0.00  0.00     0.104 A 
ATOM     11  O   UNL d   1      13.209  11.781  -3.549  0.00  0.00    -0.237 OA
ENDROOT
BRANCH   5  12
ATOM     12  C   UNL d   1      14.899  13.384  -0.493  0.00  0.00     0.087 A 
ATOM     13  C   UNL d   1      14.154  13.080  -0.327  0.00  0.00     0.031 A 
ATOM     14  C   UNL d   1      14.050  12.300  -0.181  0.00  0.00     0.059 A 
ATOM     15 CL   UNL d   1      13.274  12.025  -0.015  0.00  0.00    -0.082 Cl
ATOM     16  C   UNL d   1      14.690  11.779  -0.194  0.00  0.00     0.011 A 
ATOM     17  C   UNL d   1      15.445  12.079  -0.361  0.00  0.00     0.002 A 
ATOM     18  C   UNL d   1      15.548  12.860  -0.506  0.00  0.00     0.019 A 
ENDBRANCH   5  12
BRANCH   4  19
ATOM     19  O   UNL d   1      13.121  12.920  -4.384  0.00  0.00    -0.257 OA
BRANCH  19  20
ATOM     20  C   UNL d   1      12.932  12.446  -5.022  0.00  0.00     0.128 C 
ATOM     21  C   UNL d   1      13.441  12.391  -5.668  0.00  0.00     0.029 C 
ENDBRANCH  19  20
ENDBRANCH   4  19
TORSDOF 3
ENDMDL
MODEL 3
REMARK VINA RESULT:      35.0      1.038      1.286
REMARK  3 active torsions:
REMARK  status: ('A' for Active; 'I' for Inactive)
REMARK       I    between atoms: N_2  and  C_1 
REMARK       I    between atoms: N_5  and  C_1 
REMARK       I    between atoms: C_4  and  N_3 
REMARK    1  A    between atoms: O_14  and  C_4 
REMARK    2  A    between atoms: C_12  and  N_5 
REMARK    3  A    between atoms: C_20  and  O_14 
ROOT
ATOM      1  C   UNL d   1      14.880  12.569  -0.567  0.00  0.00     0.354 C 
ATOM      2  N   UNL d   1      14.588  12.772  -1.319  0.00  0.00    -0.253 N 
ATOM      3  N   UNL d   1      14.014  13.140  -2.797  0.00  0.00    -0.249 N 
ATOM      4  C   UNL d   1      13.715  13.324  -3.568  0.00  0.00     0.378 C 
ATOM      5  N   UNL d   1      15.074  13.182  -0.018  0.00  0.00    -0.192 NA
ATOM      6  O   UNL d   1      14.989  11.779  -0.330  0.00  0.00    -0.244 OA
ATOM      7  C   UNL d   1      14.481  13.565  -1.547  0.00  0.00     0.104 A 
ATOM      8  C   UNL d   1      14.404  12.173  -1.838  0.00  0.00     0.104 A 
ATOM      9  C   UNL d   1      14.111  12.365  -2.593  0.00  0.00     0.104 A 
ATOM     10  C   UNL d   1      14.192  13.732  -2.293  0.00  0.00     0.104 A 
ATOM     11  O   UNL d   1      13.603  14.091  -3.813  0.00  0.00    -0.237 OA
ENDROOT
BRANCH   5  12
ATOM     12  C   UNL d   1      14.976  13.945  -0.227  0.00  0.00     0.087 A 
ATOM     13  C   UNL d   1      15.598  14.409  -0.499  0.00  0.00     0.031 A 
ATOM     14  C   UNL d   1      15.482  15.174  -0.704  0.00  0.00     0.059 A 
ATOM     15 CL   UNL d   1      16.140  15.618  -0.978  0.00  0.00    -0.082 Cl
ATOM     16  C   UNL d   1      14.734  15.518  -0.649  0.00  0.00     0.011 A 
ATOM     17  C   UNL d   1      14.102  15.056  -0.375  0.00  0.00     0.002 A 
ATOM     18  C   UNL d   1      14.218  14.290  -0.170  0.00  0.00     0.019 A 
ENDBRANCH   5  12
BRANCH   4  19
ATOM     19  O   UNL d   1      13.532  12.706  -4.087  0.00  0.00    -0.257 OA
BRANCH  19  20
ATOM     20  C   UNL d   1      13.025  12.837  -4.713  0.00  0.00     0.128 C 
ATOM     21  C   UNL d   1      12.832  12.225  -5.232  0.00  0.00     0.029 C 
ENDBRANCH  19  20
ENDBRANCH   4  19
TORSDOF 3
ENDMDL
MODEL 4
REMARK VINA RESULT:      35.0      2.183      3.408
REMARK  3 active torsions:
REMARK  status: ('A' for Active; 'I' for Inactive)
REMARK       I    between atoms: N_2  and  C_1 
REMARK       I    between atoms: N_5  and  C_1 
REMARK       I    between atoms: C_4  and  N_3 
REMARK    1  A    between atoms: O_14  and  C_4 
REMARK    2  A    between atoms: C_12  and  N_5 
REMARK    3  A    between atoms: C_20  and  O_14 
ROOT
ATOM      1  C   UNL d   1      13.266  12.490  -3.612  0.00  0.00     0.354 C 
ATOM      2  N   UNL d   1      13.599  13.185  -3.299  0.00  0.00    -0.253 N 
ATOM      3  N   UNL d   1      14.243  14.559  -2.711  0.00  0.00    -0.249 N 
ATOM      4  C   UNL d   1      14.576  15.278  -2.411  0.00  0.00     0.378 C 
ATOM      5  N   UNL d   1      13.284  11.779  -3.156  0.00  0.00    -0.192 NA
ATOM      6  O   UNL d   1      12.911  12.466  -4.364  0.00  0.00    -0.244 OA
ATOM      7  C   UNL d   1      13.951  13.200  -2.545  0.00  0.00     0.104 A 
ATOM      8  C   UNL d   1      13.575  13.862  -3.748  0.00  0.00     0.104 A 
ATOM      9  C   UNL d   1      13.905  14.564  -3.444  0.00  0.00     0.104 A 
ATOM     10  C   UNL d   1      14.269  13.898  -2.266  0.00  0.00     0.104 A 
ATOM     11  O   UNL d   1      14.926  15.317  -1.677  0.00  0.00    -0.237 OA
ENDROOT
BRANCH   5  12
ATOM     12  C   UNL d   1      13.619  11.782  -2.432  0.00  0.00     0.087 A 
ATOM     13  C   UNL d   1      13.172  11.783  -1.742  0.00  0.00     0.031 A 
ATOM     14  C   UNL d   1      13.525  11.786  -1.023  0.00  0.00     0.059 A 
ATOM     15 CL   UNL d   1      13.036  11.786  -0.339  0.00  0.00    -0.082 Cl
ATOM     16  C   UNL d   1      14.346  11.789  -0.955  0.00  0.00     0.011 A 
ATOM     17  C   UNL d   1      14.803  11.788  -1.647  0.00  0.00     0.002 A 
ATOM     18  C   UNL d   1      14.451  11.785  -2.367  0.00  0.00     0.019 A 
ENDBRANCH   5  12
BRANCH   4  19
ATOM     19  O   UNL d   1      14.546  15.961  -2.878  0.00  0.00    -0.257 OA
BRANCH  19  20
ATOM     20  C   UNL d   1      14.912  16.645  -2.622  0.00  0.00     0.128 C 
ATOM     21  C   UNL d   1      15.061  17.262  -3.149  0.00  0.00     0.029 C 
ENDBRANCH  19  20
ENDBRANCH   4  19
TORSDOF 3
ENDMDL
