MODEL 1
REMARK VINA RESULT:      43.0      0.000      0.000
REMARK  11 active torsions:
REMARK  status: ('A' for Active; 'I' for Inactive)
REMARK    1  A    between atoms: S_2  and  N_15 
REMARK    2  A    between atoms: C_10  and  S_2 
REMARK    3  A    between atoms: C_14  and  C_4 
REMARK    4  A    between atoms: N_16  and  C_8 
REMARK    5  A    between atoms: C_19  and  C_14 
REMARK    6  A    between atoms: N_15  and  C_19 
REMARK    7  A    between atoms: C_24  and  N_16 
REMARK    8  A    between atoms: N_20  and  C_25 
REMARK    9  A    between atoms: C_26  and  N_20 
REMARK   10  A    between atoms: C_27  and  N_20 
REMARK   11  A    between atoms: C_25  and  C_24 
ROOT
ATOM      1  N   UNL d   1      13.415  13.355  -4.091  0.00  0.00    -0.190 N 
ATOM      2  C   UNL d   1      13.009  12.826  -4.576  0.00  0.00     0.187 A 
ATOM      3  C   UNL d   1      13.427  14.094  -4.472  0.00  0.00     0.188 A 
ATOM      4  N   UNL d   1      13.721  13.098  -3.371  0.00  0.00    -0.143 NA
ATOM      5  N   UNL d   1      12.770  13.243  -5.259  0.00  0.00    -0.127 NA
ATOM      6  N   UNL d   1      13.029  14.017  -5.186  0.00  0.00    -0.127 NA
ATOM      7  C   UNL d   1      13.621  12.313  -3.134  0.00  0.00     0.182 A 
ATOM      8  C   UNL d   1      12.909  12.041  -4.340  0.00  0.00     0.044 A 
ATOM      9  C   UNL d   1      13.215  11.785  -3.619  0.00  0.00     0.044 A 
ENDROOT
BRANCH   3  10
ATOM     10  C   UNL d   1      13.774  14.781  -4.186  0.00  0.00     0.062 C 
BRANCH  10  11
ATOM     11  C   UNL d   1      13.674  15.492  -4.585  0.00  0.00     0.115 C 
BRANCH  11  12
ATOM     12  N   UNL d   1      14.326  15.847  -4.945  0.00  0.00    -0.157 NA
BRANCH  12  13
ATOM     13  S   UNL d   1      14.285  16.625  -5.199  0.00  0.00     0.285 S 
ATOM     14  O   UNL d   1      14.914  16.826  -4.701  0.00  0.00    -0.198 OA
ATOM     15  O   UNL d   1      13.655  16.435  -5.701  0.00  0.00    -0.198 OA
BRANCH  13  16
ATOM     16  C   UNL d   1      14.249  17.408  -5.451  0.00  0.00     0.105 A 
ATOM     17  C   UNL d   1      13.828  17.607  -6.140  0.00  0.00     0.013 A 
ATOM     18  C   UNL d   1      13.794  18.383  -6.387  0.00  0.00     0.001 A 
ATOM     19  C   UNL d   1      14.178  18.974  -5.954  0.00  0.00     0.000 A 
ATOM     20  C   UNL d   1      14.592  18.789  -5.279  0.00  0.00     0.001 A 
ATOM     21  C   UNL d   1      14.137  19.765  -6.214  0.00  0.00     0.000 C 
ATOM     22  C   UNL d   1      14.635  18.011  -5.017  0.00  0.00     0.013 A 
ENDBRANCH  13  16
ENDBRANCH  12  13
ENDBRANCH  11  12
ENDBRANCH  10  11
ENDBRANCH   3  10
BRANCH   7  23
ATOM     23  N   UNL d   1      13.925  12.045  -2.410  0.00  0.00    -0.222 NA
BRANCH  23  24
ATOM     24  C   UNL d   1      14.155  12.611  -1.832  0.00  0.00     0.120 C 
BRANCH  24  25
ATOM     25  C   UNL d   1      14.174  12.396  -1.041  0.00  0.00     0.101 C 
BRANCH  25  26
ATOM     26  N   UNL d   1      14.607  12.847  -0.500  0.00  0.00    -0.301 N 
BRANCH  26  27
ATOM     27  C   UNL d   1      15.178  12.497  -0.015  0.00  0.00     0.080 C 
ATOM     28  C   UNL d   1      15.533  11.780  -0.250  0.00  0.00     0.021 C 
ENDBRANCH  26  27
BRANCH  26  29
ATOM     29  C   UNL d   1      14.469  13.668  -0.440  0.00  0.00     0.080 C 
ATOM     30  C   UNL d   1      15.049  14.152  -0.095  0.00  0.00     0.021 C 
ENDBRANCH  26  29
ENDBRANCH  25  26
ENDBRANCH  24  25
ENDBRANCH  23  24
ENDBRANCH   7  23
TORSDOF 11
ENDMDL
MODEL 2
REMARK VINA RESULT:      44.5      2.318      5.270
REMARK  11 active torsions:
REMARK  status: ('A' for Active; 'I' for Inactive)
REMARK    1  A    between atoms: S_2  and  N_15 
REMARK    2  A    between atoms: C_10  and  S_2 
REMARK    3  A    between atoms: C_14  and  C_4 
REMARK    4  A    between atoms: N_16  and  C_8 
REMARK    5  A    between atoms: C_19  and  C_14 
REMARK    6  A    between atoms: N_15  and  C_19 
REMARK    7  A    between atoms: C_24  and  N_16 
REMARK    8  A    between atoms: N_20  and  C_25 
REMARK    9  A    between atoms: C_26  and  N_20 
REMARK   10  A    between atoms: C_27  and  N_20 
REMARK   11  A    between atoms: C_25  and  C_24 
ROOT
ATOM      1  N   UNL d   1      14.503  15.890  -3.220  0.00  0.00    -0.190 N 
ATOM      2  C   UNL d   1      14.787  16.299  -3.876  0.00  0.00     0.187 A 
ATOM      3  C   UNL d   1      14.902  16.174  -2.548  0.00  0.00     0.188 A 
ATOM      4  N   UNL d   1      13.921  15.314  -3.315  0.00  0.00    -0.143 NA
ATOM      5  N   UNL d   1      15.364  16.838  -3.606  0.00  0.00    -0.127 NA
ATOM      6  N   UNL d   1      15.428  16.755  -2.794  0.00  0.00    -0.127 NA
ATOM      7  C   UNL d   1      13.623  15.148  -4.068  0.00  0.00     0.182 A 
ATOM      8  C   UNL d   1      14.489  16.133  -4.628  0.00  0.00     0.044 A 
ATOM      9  C   UNL d   1      13.908  15.557  -4.723  0.00  0.00     0.044 A 
ENDROOT
BRANCH   3  10
ATOM     10  C   UNL d   1      14.792  15.921  -1.775  0.00  0.00     0.062 C 
BRANCH  10  11
ATOM     11  C   UNL d   1      15.285  16.191  -1.177  0.00  0.00     0.115 C 
BRANCH  11  12
ATOM     12  N   UNL d   1      15.233  15.850  -0.427  0.00  0.00    -0.157 NA
BRANCH  12  13
ATOM     13  S   UNL d   1      15.126  15.041  -0.347  0.00  0.00     0.285 S 
ATOM     14  O   UNL d   1      15.936  14.943  -0.209  0.00  0.00    -0.198 OA
ATOM     15  O   UNL d   1      14.314  15.129  -0.483  0.00  0.00    -0.198 OA
BRANCH  13  16
ATOM     16  C   UNL d   1      15.024  14.228  -0.265  0.00  0.00     0.105 A 
ATOM     17  C   UNL d   1      14.267  13.913  -0.126  0.00  0.00     0.013 A 
ATOM     18  C   UNL d   1      14.170  13.108  -0.046  0.00  0.00     0.001 A 
ATOM     19  C   UNL d   1      14.822  12.603  -0.102  0.00  0.00     0.000 A 
ATOM     20  C   UNL d   1      15.566  12.901  -0.237  0.00  0.00     0.001 A 
ATOM     21  C   UNL d   1      14.713  11.780  -0.018  0.00  0.00     0.000 C 
ATOM     22  C   UNL d   1      15.681  13.712  -0.320  0.00  0.00     0.013 A 
ENDBRANCH  13  16
ENDBRANCH  12  13
ENDBRANCH  11  12
ENDBRANCH  10  11
ENDBRANCH   3  10
BRANCH   7  23
ATOM     23  N   UNL d   1      13.037  14.570  -4.174  0.00  0.00    -0.222 NA
BRANCH  23  24
ATOM     24  C   UNL d   1      13.189  13.785  -3.912  0.00  0.00     0.120 C 
BRANCH  24  25
ATOM     25  C   UNL d   1      12.785  13.159  -4.256  0.00  0.00     0.101 C 
BRANCH  25  26
ATOM     26  N   UNL d   1      13.204  12.544  -4.615  0.00  0.00    -0.301 N 
BRANCH  26  27
ATOM     27  C   UNL d   1      13.364  11.843  -4.205  0.00  0.00     0.080 C 
ATOM     28  C   UNL d   1      13.272  11.822  -3.377  0.00  0.00     0.021 C 
ENDBRANCH  26  27
BRANCH  26  29
ATOM     29  C   UNL d   1      13.472  12.626  -5.401  0.00  0.00     0.080 C 
ATOM     30  C   UNL d   1      14.124  12.180  -5.655  0.00  0.00     0.021 C 
ENDBRANCH  26  29
ENDBRANCH  25  26
ENDBRANCH  24  25
ENDBRANCH  23  24
ENDBRANCH   7  23
TORSDOF 11
ENDMDL
MODEL 3
REMARK VINA RESULT:      44.7      2.330      4.924
REMARK  11 active torsions:
REMARK  status: ('A' for Active; 'I' for Inactive)
REMARK    1  A    between atoms: S_2  and  N_15 
REMARK    2  A    between atoms: C_10  and  S_2 
REMARK    3  A    between atoms: C_14  and  C_4 
REMARK    4  A    between atoms: N_16  and  C_8 
REMARK    5  A    between atoms: C_19  and  C_14 
REMARK    6  A    between atoms: N_15  and  C_19 
REMARK    7  A    between atoms: C_24  and  N_16 
REMARK    8  A    between atoms: N_20  and  C_25 
REMARK    9  A    between atoms: C_26  and  N_20 
REMARK   10  A    between atoms: C_27  and  N_20 
REMARK   11  A    between atoms: C_25  and  C_24 
ROOT
ATOM      1  N   UNL d   1      13.308  13.120  -3.752  0.00  0.00    -0.190 N 
ATOM      2  C   UNL d   1      13.049  12.876  -4.495  0.00  0.00     0.187 A 
ATOM      3  C   UNL d   1      13.306  12.457  -3.250  0.00  0.00     0.188 A 
ATOM      4  N   UNL d   1      13.513  13.908  -3.627  0.00  0.00    -0.143 NA
ATOM      5  N   UNL d   1      12.885  12.058  -4.449  0.00  0.00    -0.127 NA
ATOM      6  N   UNL d   1      13.045  11.811  -3.685  0.00  0.00    -0.127 NA
ATOM      7  C   UNL d   1      13.458  14.453  -4.246  0.00  0.00     0.182 A 
ATOM      8  C   UNL d   1      12.993  13.421  -5.113  0.00  0.00     0.044 A 
ATOM      9  C   UNL d   1      13.198  14.208  -4.988  0.00  0.00     0.044 A 
ENDROOT
BRANCH   3  10
ATOM     10  C   UNL d   1      13.524  12.448  -2.458  0.00  0.00     0.062 C 
BRANCH  10  11
ATOM     11  C   UNL d   1      13.925  11.802  -2.147  0.00  0.00     0.115 C 
BRANCH  11  12
ATOM     12  N   UNL d   1      14.181  11.826  -1.363  0.00  0.00    -0.157 NA
BRANCH  12  13
ATOM     13  S   UNL d   1      14.647  12.446  -1.099  0.00  0.00     0.285 S 
ATOM     14  O   UNL d   1      13.977  12.825  -0.794  0.00  0.00    -0.198 OA
ATOM     15  O   UNL d   1      15.323  12.075  -1.399  0.00  0.00    -0.198 OA
BRANCH  13  16
ATOM     16  C   UNL d   1      15.110  13.072  -0.831  0.00  0.00     0.105 A 
ATOM     17  C   UNL d   1      15.934  13.056  -0.934  0.00  0.00     0.013 A 
ATOM     18  C   UNL d   1      16.390  13.677  -0.668  0.00  0.00     0.001 A 
ATOM     19  C   UNL d   1      16.034  14.323  -0.295  0.00  0.00     0.000 A 
ATOM     20  C   UNL d   1      15.228  14.348  -0.189  0.00  0.00     0.001 A 
ATOM     21  C   UNL d   1      16.509  14.955  -0.025  0.00  0.00     0.000 C 
ATOM     22  C   UNL d   1      14.755  13.729  -0.452  0.00  0.00     0.013 A 
ENDBRANCH  13  16
ENDBRANCH  12  13
ENDBRANCH  11  12
ENDBRANCH  10  11
ENDBRANCH   3  10
BRANCH   7  23
ATOM     23  N   UNL d   1      13.662  15.249  -4.130  0.00  0.00    -0.222 NA
BRANCH  23  24
ATOM     24  C   UNL d   1      14.337  15.432  -3.664  0.00  0.00     0.120 C 
BRANCH  24  25
ATOM     25  C   UNL d   1      14.345  16.119  -3.216  0.00  0.00     0.101 C 
BRANCH  25  26
ATOM     26  N   UNL d   1      15.036  16.570  -3.164  0.00  0.00    -0.301 N 
BRANCH  26  27
ATOM     27  C   UNL d   1      15.221  16.985  -2.473  0.00  0.00     0.080 C 
ATOM     28  C   UNL d   1      14.736  16.900  -1.800  0.00  0.00     0.021 C 
ENDBRANCH  26  27
BRANCH  26  29
ATOM     29  C   UNL d   1      15.556  16.609  -3.814  0.00  0.00     0.080 C 
ATOM     30  C   UNL d   1      15.306  16.987  -4.511  0.00  0.00     0.021 C 
ENDBRANCH  26  29
ENDBRANCH  25  26
ENDBRANCH  24  25
ENDBRANCH  23  24
ENDBRANCH   7  23
TORSDOF 11
ENDMDL
