MODEL 1
REMARK VINA RESULT:      44.8      0.000      0.000
REMARK  5 active torsions:
REMARK  status: ('A' for Active; 'I' for Inactive)
REMARK    1  A    between atoms: C_3  and  C_1 
REMARK       I    between atoms: N_5  and  C_1 
REMARK    2  A    between atoms: C_2  and  C_4 
REMARK    3  A    between atoms: C_4  and  C_3 
REMARK    4  A    between atoms: C_7  and  N_5 
REMARK    5  A    between atoms: O_14  and  C_13 
ROOT
ATOM      1  C   UNL d   1      59.288  49.253  50.016  0.00  0.00     0.279 C 
ATOM      2  N   UNL d   1      59.710  49.493  50.680  0.00  0.00    -0.208 NA
ATOM      3  O   UNL d   1      59.506  48.571  49.611  0.00  0.00    -0.265 OA
ENDROOT
BRANCH   1   4
ATOM      4  C   UNL d   1      58.646  49.692  49.753  0.00  0.00     0.065 C 
BRANCH   4   5
ATOM      5  C   UNL d   1      57.910  49.326  49.643  0.00  0.00     0.030 C 
BRANCH   5   6
ATOM      6  C   UNL d   1      57.307  49.451  50.191  0.00  0.00     0.100 A 
ATOM      7  O   UNL d   1      57.330  49.651  51.005  0.00  0.00    -0.305 OA
ATOM      8  C   UNL d   1      56.542  49.702  51.267  0.00  0.00     0.123 A 
ATOM      9  C   UNL d   1      56.042  49.536  50.630  0.00  0.00     0.029 A 
ATOM     10  C   UNL d   1      56.516  49.380  49.961  0.00  0.00     0.027 A 
ENDBRANCH   5   6
ENDBRANCH   4   5
ENDBRANCH   1   4
BRANCH   2  11
ATOM     11  C   UNL d   1      60.354  49.048  50.939  0.00  0.00     0.087 A 
ATOM     12  C   UNL d   1      60.271  48.246  51.052  0.00  0.00     0.043 A 
ATOM     13  C   UNL d   1      60.911  47.801  51.310  0.00  0.00     0.096 A 
ATOM     14  C   UNL d   1      61.638  48.162  51.456  0.00  0.00     0.024 A 
ATOM     15  C   UNL d   1      61.716  48.981  51.339  0.00  0.00     0.004 A 
ATOM     16  C   UNL d   1      61.070  49.422  51.080  0.00  0.00     0.019 A 
BRANCH  13  17
ATOM     17  O   UNL d   1      60.830  46.986  51.426  0.00  0.00    -0.328 OA
ATOM     18  C   UNL d   1      61.365  46.578  51.897  0.00  0.00     0.181 C 
ENDBRANCH  13  17
ENDBRANCH   2  11
TORSDOF 5
ENDMDL
