MODEL 1
REMARK VINA RESULT:      -7.3      0.000      0.000
REMARK  7 active torsions:
REMARK  status: ('A' for Active; 'I' for Inactive)
REMARK    1  A    between atoms: C_12  and  N_3 
REMARK    2  A    between atoms: C_10  and  C_4 
REMARK    3  A    between atoms: C_15  and  C_12 
REMARK    4  A    between atoms: N_14  and  C_21 
REMARK    5  A    between atoms: C_22  and  N_14 
REMARK    6  A    between atoms: C_21  and  C_15 
REMARK    7  A    between atoms: C_20  and  C_22 
ROOT
ATOM      1  C   UNL d   1     -48.671  13.835  22.781  0.00  0.00     0.137 A 
ATOM      2  N   UNL d   1     -49.415  14.052  22.465  0.00  0.00    -0.259 N 
ATOM      3  N   UNL d   1     -48.583  13.106  23.167  0.00  0.00    -0.287 N 
ATOM      4  C   UNL d   1     -48.026  14.348  22.708  0.00  0.00     0.054 A 
ATOM      5  C   UNL d   1     -49.515  14.782  22.075  0.00  0.00     0.266 A 
ATOM      6  C   UNL d   1     -49.968  12.801  22.929  0.00  0.00     0.084 A 
ATOM      7  C   UNL d   1     -49.228  12.593  23.240  0.00  0.00     0.082 A 
ATOM      8  C   UNL d   1     -48.115  15.083  22.319  0.00  0.00     0.009 A 
ATOM      9  C   UNL d   1     -48.860  15.300  22.002  0.00  0.00     0.061 A 
ATOM     10  O   UNL d   1     -50.248  14.996  21.763  0.00  0.00    -0.267 OA
ATOM     11  C   UNL d   1     -50.611  12.291  23.002  0.00  0.00     0.019 A 
ATOM     12  C   UNL d   1     -47.473  15.592  22.247  0.00  0.00     0.000 C 
ATOM     13  C   UNL d   1     -49.141  11.862  23.627  0.00  0.00     0.019 A 
ATOM     14  C   UNL d   1     -50.521  11.568  23.385  0.00  0.00     0.002 A 
ATOM     15  C   UNL d   1     -49.784  11.354  23.698  0.00  0.00     0.002 A 
ENDROOT
BRANCH   3  16
ATOM     16  C   UNL d   1     -47.848  12.899  23.476  0.00  0.00     0.126 C 
BRANCH  16  17
ATOM     17  C   UNL d   1     -47.419  12.287  23.129  0.00  0.00     0.232 C 
ATOM     18  O   UNL d   1     -47.444  12.166  22.313  0.00  0.00    -0.283 OA
BRANCH  17  19
ATOM     19  C   UNL d   1     -46.959  11.787  23.598  0.00  0.00     0.142 C 
BRANCH  19  20
ATOM     20  N   UNL d   1     -46.265  11.459  23.291  0.00  0.00    -0.239 NA
BRANCH  20  21
ATOM     21  C   UNL d   1     -45.880  10.856  23.698  0.00  0.00     0.099 C 
BRANCH  21  22
ATOM     22  C   UNL d   1     -45.091  10.688  23.533  0.00  0.00     0.019 A 
ATOM     23  C   UNL d   1     -44.784   9.935  23.673  0.00  0.00     0.002 A 
ATOM     24  C   UNL d   1     -43.996   9.771  23.507  0.00  0.00     0.000 A 
ATOM     25  C   UNL d   1     -43.507  10.365  23.197  0.00  0.00     0.000 A 
ATOM     26  C   UNL d   1     -43.818  11.117  23.058  0.00  0.00     0.000 A 
ATOM     27  C   UNL d   1     -44.604  11.278  23.224  0.00  0.00     0.002 A 
ENDBRANCH  21  22
ENDBRANCH  20  21
ENDBRANCH  19  20
ENDBRANCH  17  19
ENDBRANCH  16  17
ENDBRANCH   3  16
BRANCH   4  28
ATOM     28  C   UNL d   1     -47.293  14.135  23.019  0.00  0.00     0.125 C 
ATOM     29  N   UNL d   1     -46.634  14.625  22.896  0.00  0.00    -0.146 N 
ENDBRANCH   4  28
TORSDOF 7
ENDMDL
MODEL 2
REMARK VINA RESULT:      -6.8      0.646      2.495
REMARK  7 active torsions:
REMARK  status: ('A' for Active; 'I' for Inactive)
REMARK    1  A    between atoms: C_12  and  N_3 
REMARK    2  A    between atoms: C_10  and  C_4 
REMARK    3  A    between atoms: C_15  and  C_12 
REMARK    4  A    between atoms: N_14  and  C_21 
REMARK    5  A    between atoms: C_22  and  N_14 
REMARK    6  A    between atoms: C_21  and  C_15 
REMARK    7  A    between atoms: C_20  and  C_22 
ROOT
ATOM      1  C   UNL d   1     -49.329  13.122  23.049  0.00  0.00     0.137 A 
ATOM      2  N   UNL d   1     -49.715  13.747  22.648  0.00  0.00    -0.259 N 
ATOM      3  N   UNL d   1     -48.514  13.167  23.197  0.00  0.00    -0.287 N 
ATOM      4  C   UNL d   1     -49.761  12.461  23.298  0.00  0.00     0.054 A 
ATOM      5  C   UNL d   1     -50.534  13.712  22.495  0.00  0.00     0.266 A 
ATOM      6  C   UNL d   1     -48.457  14.451  22.550  0.00  0.00     0.084 A 
ATOM      7  C   UNL d   1     -48.082  13.828  22.948  0.00  0.00     0.082 A 
ATOM      8  C   UNL d   1     -50.583  12.417  23.149  0.00  0.00     0.009 A 
ATOM      9  C   UNL d   1     -50.970  13.042  22.748  0.00  0.00     0.061 A 
ATOM     10  O   UNL d   1     -50.914  14.328  22.100  0.00  0.00    -0.267 OA
ATOM     11  C   UNL d   1     -48.028  15.109  22.302  0.00  0.00     0.019 A 
ATOM     12  C   UNL d   1     -51.011  11.759  23.397  0.00  0.00     0.000 C 
ATOM     13  C   UNL d   1     -47.265  13.874  23.095  0.00  0.00     0.019 A 
ATOM     14  C   UNL d   1     -47.220  15.151  22.450  0.00  0.00     0.002 A 
ATOM     15  C   UNL d   1     -46.837  14.532  22.847  0.00  0.00     0.002 A 
ENDROOT
BRANCH   3  16
ATOM     16  C   UNL d   1     -48.140  12.548  23.592  0.00  0.00     0.126 C 
BRANCH  16  17
ATOM     17  C   UNL d   1     -47.541  12.128  23.214  0.00  0.00     0.232 C 
ATOM     18  O   UNL d   1     -47.566  12.001  22.399  0.00  0.00    -0.283 OA
BRANCH  17  19
ATOM     19  C   UNL d   1     -46.908  11.828  23.650  0.00  0.00     0.142 C 
BRANCH  19  20
ATOM     20  N   UNL d   1     -46.301  11.417  23.266  0.00  0.00    -0.239 NA
BRANCH  20  21
ATOM     21  C   UNL d   1     -45.856  10.862  23.678  0.00  0.00     0.099 C 
BRANCH  21  22
ATOM     22  C   UNL d   1     -45.058  10.761  23.500  0.00  0.00     0.019 A 
ATOM     23  C   UNL d   1     -44.632  11.363  23.130  0.00  0.00     0.002 A 
ATOM     24  C   UNL d   1     -43.836  11.259  22.954  0.00  0.00     0.000 A 
ATOM     25  C   UNL d   1     -43.459  10.546  23.148  0.00  0.00     0.000 A 
ATOM     26  C   UNL d   1     -43.889   9.946  23.518  0.00  0.00     0.000 A 
ATOM     27  C   UNL d   1     -44.683  10.053  23.693  0.00  0.00     0.002 A 
ENDBRANCH  21  22
ENDBRANCH  20  21
ENDBRANCH  19  20
ENDBRANCH  17  19
ENDBRANCH  16  17
ENDBRANCH   3  16
BRANCH   4  28
ATOM     28  C   UNL d   1     -49.381  11.846  23.693  0.00  0.00     0.125 C 
ATOM     29  N   UNL d   1     -49.719  11.087  23.698  0.00  0.00    -0.146 N 
ENDBRANCH   4  28
TORSDOF 7
ENDMDL
MODEL 3
REMARK VINA RESULT:      -4.8      1.687      3.131
REMARK  7 active torsions:
REMARK  status: ('A' for Active; 'I' for Inactive)
REMARK    1  A    between atoms: C_12  and  N_3 
REMARK    2  A    between atoms: C_10  and  C_4 
REMARK    3  A    between atoms: C_15  and  C_12 
REMARK    4  A    between atoms: N_14  and  C_21 
REMARK    5  A    between atoms: C_22  and  N_14 
REMARK    6  A    between atoms: C_21  and  C_15 
REMARK    7  A    between atoms: C_20  and  C_22 
ROOT
ATOM      1  C   UNL d   1     -48.279  12.792  23.096  0.00  0.00     0.137 A 
ATOM      2  N   UNL d   1     -49.093  12.908  22.941  0.00  0.00    -0.259 N 
ATOM      3  N   UNL d   1     -47.746  13.421  22.997  0.00  0.00    -0.287 N 
ATOM      4  C   UNL d   1     -48.007  12.052  23.348  0.00  0.00     0.054 A 
ATOM      5  C   UNL d   1     -49.637  12.283  23.038  0.00  0.00     0.266 A 
ATOM      6  C   UNL d   1     -48.823  14.283  22.590  0.00  0.00     0.084 A 
ATOM      7  C   UNL d   1     -48.018  14.161  22.745  0.00  0.00     0.082 A 
ATOM      8  C   UNL d   1     -48.545  11.419  23.448  0.00  0.00     0.009 A 
ATOM      9  C   UNL d   1     -49.360  11.535  23.293  0.00  0.00     0.061 A 
ATOM     10  O   UNL d   1     -50.440  12.397  22.885  0.00  0.00    -0.267 OA
ATOM     11  C   UNL d   1     -49.095  15.019  22.340  0.00  0.00     0.019 A 
ATOM     12  C   UNL d   1     -48.273  10.684  23.698  0.00  0.00     0.000 C 
ATOM     13  C   UNL d   1     -47.485  14.791  22.645  0.00  0.00     0.019 A 
ATOM     14  C   UNL d   1     -48.564  15.640  22.242  0.00  0.00     0.002 A 
ATOM     15  C   UNL d   1     -47.758  15.526  22.395  0.00  0.00     0.002 A 
ENDROOT
BRANCH   3  16
ATOM     16  C   UNL d   1     -46.946  13.300  23.151  0.00  0.00     0.126 C 
BRANCH  16  17
ATOM     17  C   UNL d   1     -46.419  13.217  22.523  0.00  0.00     0.232 C 
ATOM     18  O   UNL d   1     -46.689  12.998  21.774  0.00  0.00    -0.283 OA
BRANCH  17  19
ATOM     19  C   UNL d   1     -45.614  13.354  22.638  0.00  0.00     0.142 C 
BRANCH  19  20
ATOM     20  N   UNL d   1     -45.087  13.266  22.006  0.00  0.00    -0.239 NA
BRANCH  20  21
ATOM     21  C   UNL d   1     -44.435  12.771  22.080  0.00  0.00     0.099 C 
BRANCH  21  22
ATOM     22  C   UNL d   1     -43.727  12.964  21.706  0.00  0.00     0.019 A 
ATOM     23  C   UNL d   1     -43.621  13.709  21.368  0.00  0.00     0.002 A 
ATOM     24  C   UNL d   1     -42.914  13.899  20.995  0.00  0.00     0.000 A 
ATOM     25  C   UNL d   1     -42.303  13.338  20.959  0.00  0.00     0.000 A 
ATOM     26  C   UNL d   1     -42.413  12.594  21.298  0.00  0.00     0.000 A 
ATOM     27  C   UNL d   1     -43.120  12.408  21.669  0.00  0.00     0.002 A 
ENDBRANCH  21  22
ENDBRANCH  20  21
ENDBRANCH  19  20
ENDBRANCH  17  19
ENDBRANCH  16  17
ENDBRANCH   3  16
BRANCH   4  28
ATOM     28  C   UNL d   1     -47.205  11.938  23.500  0.00  0.00     0.125 C 
ATOM     29  N   UNL d   1     -46.921  11.176  23.667  0.00  0.00    -0.146 N 
ENDBRANCH   4  28
TORSDOF 7
ENDMDL
