MODEL 1
REMARK VINA RESULT:      58.7      0.000      0.000
REMARK  4 active torsions:
REMARK  status: ('A' for Active; 'I' for Inactive)
REMARK    1  A    between atoms: C_12  and  N_1 
REMARK    2  A    between atoms: N_2  and  C_11 
REMARK    3  A    between atoms: C_11  and  C_15 
REMARK    4  A    between atoms: C_15  and  C_12 
ROOT
ATOM      1  N   UNL d   1     -50.312  26.531  33.312  0.00  0.00    -0.303 N 
ATOM      2  C   UNL d   1     -51.058  26.913  33.309  0.00  0.00     0.064 A 
ATOM      3  C   UNL d   1     -51.647  26.314  33.310  0.00  0.00     0.018 A 
ATOM      4  C   UNL d   1     -51.261  25.577  33.314  0.00  0.00     0.018 A 
ATOM      5  C   UNL d   1     -50.445  25.710  33.315  0.00  0.00     0.064 A 
ATOM      6  C   UNL d   1     -49.923  25.071  33.319  0.00  0.00     0.018 A 
ATOM      7  C   UNL d   1     -51.555  24.806  33.316  0.00  0.00     0.002 A 
ATOM      8  C   UNL d   1     -50.216  24.300  33.321  0.00  0.00     0.002 A 
ATOM      9  C   UNL d   1     -51.033  24.168  33.319  0.00  0.00     0.000 A 
ATOM     10  C   UNL d   1     -51.191  27.729  33.306  0.00  0.00     0.019 C 
ATOM     11  C   UNL d   1     -52.458  26.437  33.307  0.00  0.00     0.002 C 
ATOM     12  C   UNL d   1     -51.326  23.397  33.322  0.00  0.00     0.000 C 
ENDROOT
BRANCH   1  13
ATOM     13  C   UNL d   1     -49.579  26.916  33.313  0.00  0.00     0.124 C 
BRANCH  13  14
ATOM     14  C   UNL d   1     -49.254  27.170  34.030  0.00  0.00     0.232 C 
ATOM     15  O   UNL d   1     -48.756  26.669  34.462  0.00  0.00    -0.283 OA
BRANCH  14  16
ATOM     16  C   UNL d   1     -49.427  27.921  34.314  0.00  0.00     0.144 C 
BRANCH  16  17
ATOM     17  N   UNL d   1     -48.843  28.369  34.695  0.00  0.00    -0.225 N 
ATOM     18  N   UNL d   1     -48.296  28.862  34.326  0.00  0.00    -0.165 NA
ATOM     19  C   UNL d   1     -47.817  29.202  34.911  0.00  0.00     0.109 A 
ATOM     20  C   UNL d   1     -47.198  29.730  34.783  0.00  0.00     0.023 C 
ATOM     21  C   UNL d   1     -48.075  28.912  35.644  0.00  0.00     0.072 A 
ATOM     22  C   UNL d   1     -48.705  28.400  35.514  0.00  0.00     0.091 A 
ATOM     23 BR   UNL d   1     -47.753  29.105  36.379  0.00  0.00    -0.046 Br
ATOM     24  C   UNL d   1     -49.127  27.990  36.092  0.00  0.00     0.021 C 
ENDBRANCH  16  17
ENDBRANCH  14  16
ENDBRANCH  13  14
ENDBRANCH   1  13
TORSDOF 4
ENDMDL
MODEL 2
REMARK VINA RESULT:      60.0      1.013      1.942
REMARK  4 active torsions:
REMARK  status: ('A' for Active; 'I' for Inactive)
REMARK    1  A    between atoms: C_12  and  N_1 
REMARK    2  A    between atoms: N_2  and  C_11 
REMARK    3  A    between atoms: C_11  and  C_15 
REMARK    4  A    between atoms: C_15  and  C_12 
ROOT
ATOM      1  N   UNL d   1     -50.935  25.611  33.308  0.00  0.00    -0.303 N 
ATOM      2  C   UNL d   1     -50.297  25.066  33.308  0.00  0.00     0.064 A 
ATOM      3  C   UNL d   1     -50.628  24.294  33.309  0.00  0.00     0.018 A 
ATOM      4  C   UNL d   1     -51.456  24.371  33.309  0.00  0.00     0.018 A 
ATOM      5  C   UNL d   1     -51.643  25.176  33.309  0.00  0.00     0.064 A 
ATOM      6  C   UNL d   1     -52.432  25.417  33.310  0.00  0.00     0.018 A 
ATOM      7  C   UNL d   1     -52.058  23.807  33.310  0.00  0.00     0.002 A 
ATOM      8  C   UNL d   1     -53.034  24.853  33.311  0.00  0.00     0.002 A 
ATOM      9  C   UNL d   1     -52.847  24.047  33.311  0.00  0.00     0.000 A 
ATOM     10  C   UNL d   1     -49.492  25.253  33.307  0.00  0.00     0.019 C 
ATOM     11  C   UNL d   1     -50.206  23.590  33.309  0.00  0.00     0.002 C 
ATOM     12  C   UNL d   1     -53.448  23.483  33.312  0.00  0.00     0.000 C 
ENDROOT
BRANCH   1  13
ATOM     13  C   UNL d   1     -50.856  26.436  33.307  0.00  0.00     0.124 C 
BRANCH  13  14
ATOM     14  C   UNL d   1     -50.160  26.778  33.595  0.00  0.00     0.232 C 
ATOM     15  O   UNL d   1     -49.515  26.300  33.799  0.00  0.00    -0.283 OA
BRANCH  14  16
ATOM     16  C   UNL d   1     -50.109  27.593  33.678  0.00  0.00     0.144 C 
BRANCH  16  17
ATOM     17  N   UNL d   1     -49.563  27.927  34.205  0.00  0.00    -0.225 N 
ATOM     18  N   UNL d   1     -49.278  27.573  34.893  0.00  0.00    -0.165 NA
ATOM     19  C   UNL d   1     -48.745  28.097  35.251  0.00  0.00     0.109 A 
ATOM     20  C   UNL d   1     -48.332  27.963  35.951  0.00  0.00     0.023 C 
ATOM     21  C   UNL d   1     -48.704  28.777  34.778  0.00  0.00     0.072 A 
ATOM     22  C   UNL d   1     -49.206  28.675  34.134  0.00  0.00     0.091 A 
ATOM     23 BR   UNL d   1     -48.240  29.442  34.926  0.00  0.00    -0.046 Br
ATOM     24  C   UNL d   1     -49.335  29.216  33.525  0.00  0.00     0.021 C 
ENDBRANCH  16  17
ENDBRANCH  14  16
ENDBRANCH  13  14
ENDBRANCH   1  13
TORSDOF 4
ENDMDL
