MODEL 1
REMARK VINA RESULT:      -0.0      0.000      0.000
REMARK  4 active torsions:
REMARK  status: ('A' for Active; 'I' for Inactive)
REMARK    1  A    between atoms: S_5  and  C_2 
REMARK    2  A    between atoms: C_16  and  S_5 
REMARK    3  A    between atoms: N_11  and  C_8 
REMARK    4  A    between atoms: C_12  and  N_11 
ROOT
ATOM      1  C   UNL d   1      58.756  -0.252  30.535  0.00  0.00     0.197 A 
ATOM      2  C   UNL d   1      58.403   0.019  31.235  0.00  0.00     0.227 A 
ATOM      3  N   UNL d   1      59.467   0.157  30.435  0.00  0.00    -0.192 N 
ATOM      4  N   UNL d   1      58.524  -0.815  29.978  0.00  0.00    -0.206 NA
ATOM      5  N   UNL d   1      58.896   0.594  31.566  0.00  0.00    -0.115 NA
ATOM      6  N   UNL d   1      59.557   0.682  31.072  0.00  0.00    -0.058 NA
ATOM      7  C   UNL d   1      59.002  -0.971  29.319  0.00  0.00     0.166 A 
ATOM      8  C   UNL d   1      59.711  -0.559  29.225  0.00  0.00     0.054 A 
ATOM      9  C   UNL d   1      59.950   0.005  29.778  0.00  0.00     0.089 A 
ATOM     10  C   UNL d   1      60.194  -0.712  28.566  0.00  0.00     0.005 A 
ATOM     11  C   UNL d   1      60.658   0.414  29.680  0.00  0.00     0.019 A 
ATOM     12  C   UNL d   1      60.901  -0.303  28.470  0.00  0.00     0.000 A 
ATOM     13  C   UNL d   1      61.133   0.260  29.027  0.00  0.00     0.002 A 
ENDROOT
BRANCH   2  14
ATOM     14  S   UNL d   1      57.684  -0.242  31.545  0.00  0.00     0.231 S 
ATOM     15  O   UNL d   1      57.271   0.063  30.903  0.00  0.00    -0.215 OA
ATOM     16  O   UNL d   1      58.101  -0.546  32.187  0.00  0.00    -0.215 OA
BRANCH  14  17
ATOM     17  C   UNL d   1      56.992  -0.518  31.887  0.00  0.00     0.090 A 
ATOM     18  C   UNL d   1      56.835  -1.329  31.894  0.00  0.00     0.011 A 
ATOM     19  C   UNL d   1      56.146  -1.609  32.234  0.00  0.00     0.001 A 
ATOM     20  C   UNL d   1      55.605  -1.083  32.571  0.00  0.00     0.000 A 
ATOM     21  C   UNL d   1      55.765  -0.271  32.563  0.00  0.00     0.001 A 
ATOM     22  C   UNL d   1      56.454   0.005  32.223  0.00  0.00     0.011 A 
ENDBRANCH  14  17
ENDBRANCH   2  14
BRANCH   7  23
ATOM     23  N   UNL d   1      58.770  -1.534  28.762  0.00  0.00    -0.227 NA
BRANCH  23  24
ATOM     24  C   UNL d   1      58.959  -2.326  28.874  0.00  0.00     0.083 A 
ATOM     25  C   UNL d   1      58.397  -2.912  28.721  0.00  0.00     0.018 A 
ATOM     26  C   UNL d   1      58.587  -3.705  28.833  0.00  0.00     0.002 A 
ATOM     27  C   UNL d   1      57.643  -2.699  28.455  0.00  0.00     0.002 C 
ATOM     28  C   UNL d   1      58.025  -4.290  28.680  0.00  0.00     0.000 C 
ATOM     29  C   UNL d   1      59.343  -3.919  29.099  0.00  0.00     0.000 A 
ATOM     30  C   UNL d   1      59.903  -3.326  29.251  0.00  0.00     0.002 A 
ATOM     31  C   UNL d   1      59.710  -2.536  29.138  0.00  0.00     0.019 A 
ENDBRANCH  23  24
ENDBRANCH   7  23
TORSDOF 4
ENDMDL
MODEL 2
REMARK VINA RESULT:       1.5      7.769      9.000
REMARK  4 active torsions:
REMARK  status: ('A' for Active; 'I' for Inactive)
REMARK    1  A    between atoms: S_5  and  C_2 
REMARK    2  A    between atoms: C_16  and  S_5 
REMARK    3  A    between atoms: N_11  and  C_8 
REMARK    4  A    between atoms: C_12  and  N_11 
ROOT
ATOM      1  C   UNL d   1      57.931  -9.694  31.256  0.00  0.00     0.197 A 
ATOM      2  C   UNL d   1      58.055  -9.650  32.075  0.00  0.00     0.227 A 
ATOM      3  N   UNL d   1      57.115  -9.696  31.124  0.00  0.00    -0.192 N 
ATOM      4  N   UNL d   1      58.452  -9.733  30.617  0.00  0.00    -0.206 NA
ATOM      5  N   UNL d   1      57.317  -9.624  32.446  0.00  0.00    -0.115 NA
ATOM      6  N   UNL d   1      56.732  -9.653  31.859  0.00  0.00    -0.058 NA
ATOM      7  C   UNL d   1      58.158  -9.774  29.842  0.00  0.00     0.166 A 
ATOM      8  C   UNL d   1      57.343  -9.775  29.717  0.00  0.00     0.054 A 
ATOM      9  C   UNL d   1      56.816  -9.737  30.351  0.00  0.00     0.089 A 
ATOM     10  C   UNL d   1      57.044  -9.816  28.943  0.00  0.00     0.005 A 
ATOM     11  C   UNL d   1      56.003  -9.739  30.221  0.00  0.00     0.019 A 
ATOM     12  C   UNL d   1      56.231  -9.818  28.814  0.00  0.00     0.000 A 
ATOM     13  C   UNL d   1      55.711  -9.779  29.453  0.00  0.00     0.002 A 
ENDROOT
BRANCH   2  14
ATOM     14  S   UNL d   1      58.790  -9.634  32.451  0.00  0.00     0.231 S 
ATOM     15  O   UNL d   1      59.179  -9.818  31.750  0.00  0.00    -0.215 OA
ATOM     16  O   UNL d   1      58.398  -9.450  33.152  0.00  0.00    -0.215 OA
BRANCH  14  17
ATOM     17  C   UNL d   1      59.499  -9.608  32.862  0.00  0.00     0.090 A 
ATOM     18  C   UNL d   1      59.496  -9.681  33.686  0.00  0.00     0.011 A 
ATOM     19  C   UNL d   1      60.200  -9.656  34.100  0.00  0.00     0.001 A 
ATOM     20  C   UNL d   1      60.916  -9.559  33.698  0.00  0.00     0.000 A 
ATOM     21  C   UNL d   1      60.916  -9.486  32.874  0.00  0.00     0.001 A 
ATOM     22  C   UNL d   1      60.211  -9.511  32.463  0.00  0.00     0.011 A 
ENDBRANCH  14  17
ENDBRANCH   2  14
BRANCH   7  23
ATOM     23  N   UNL d   1      58.679  -9.813  29.203  0.00  0.00    -0.227 NA
BRANCH  23  24
ATOM     24  C   UNL d   1      59.081  -9.139  28.958  0.00  0.00     0.083 A 
ATOM     25  C   UNL d   1      59.906  -9.136  28.931  0.00  0.00     0.018 A 
ATOM     26  C   UNL d   1      60.309  -8.461  28.686  0.00  0.00     0.002 A 
ATOM     27  C   UNL d   1      60.328  -9.812  29.152  0.00  0.00     0.002 C 
ATOM     28  C   UNL d   1      61.133  -8.458  28.659  0.00  0.00     0.000 C 
ATOM     29  C   UNL d   1      59.887  -7.781  28.464  0.00  0.00     0.000 A 
ATOM     30  C   UNL d   1      59.058  -7.792  28.493  0.00  0.00     0.002 A 
ATOM     31  C   UNL d   1      58.659  -8.466  28.739  0.00  0.00     0.019 A 
ENDBRANCH  23  24
ENDBRANCH   7  23
TORSDOF 4
ENDMDL
MODEL 3
REMARK VINA RESULT:       2.2      1.721      3.893
REMARK  4 active torsions:
REMARK  status: ('A' for Active; 'I' for Inactive)
REMARK    1  A    between atoms: S_5  and  C_2 
REMARK    2  A    between atoms: C_16  and  S_5 
REMARK    3  A    between atoms: N_11  and  C_8 
REMARK    4  A    between atoms: C_12  and  N_11 
ROOT
ATOM      1  C   UNL d   1      59.621  -2.100  29.089  0.00  0.00     0.197 A 
ATOM      2  C   UNL d   1      59.769  -2.884  28.863  0.00  0.00     0.227 A 
ATOM      3  N   UNL d   1      60.348  -1.709  29.137  0.00  0.00    -0.192 N 
ATOM      4  N   UNL d   1      58.924  -1.693  29.257  0.00  0.00    -0.206 NA
ATOM      5  N   UNL d   1      60.585  -2.976  28.771  0.00  0.00    -0.115 NA
ATOM      6  N   UNL d   1      60.947  -2.249  28.940  0.00  0.00    -0.058 NA
ATOM      7  C   UNL d   1      58.950  -0.893  29.474  0.00  0.00     0.166 A 
ATOM      8  C   UNL d   1      59.679  -0.508  29.520  0.00  0.00     0.054 A 
ATOM      9  C   UNL d   1      60.380  -0.909  29.353  0.00  0.00     0.089 A 
ATOM     10  C   UNL d   1      59.710   0.293  29.736  0.00  0.00     0.005 A 
ATOM     11  C   UNL d   1      61.105  -0.522  29.400  0.00  0.00     0.019 A 
ATOM     12  C   UNL d   1      60.436   0.679  29.783  0.00  0.00     0.000 A 
ATOM     13  C   UNL d   1      61.133   0.272  29.615  0.00  0.00     0.002 A 
ENDROOT
BRANCH   2  14
ATOM     14  S   UNL d   1      59.197  -3.469  28.749  0.00  0.00     0.231 S 
ATOM     15  O   UNL d   1      58.659  -2.919  28.460  0.00  0.00    -0.215 OA
ATOM     16  O   UNL d   1      59.739  -4.018  29.039  0.00  0.00    -0.215 OA
BRANCH  14  17
ATOM     17  C   UNL d   1      58.659  -4.079  28.652  0.00  0.00     0.090 A 
ATOM     18  C   UNL d   1      57.857  -3.904  28.553  0.00  0.00     0.011 A 
ATOM     19  C   UNL d   1      57.315  -4.508  28.455  0.00  0.00     0.001 A 
ATOM     20  C   UNL d   1      57.567  -5.296  28.455  0.00  0.00     0.000 A 
ATOM     21  C   UNL d   1      58.370  -5.468  28.555  0.00  0.00     0.001 A 
ATOM     22  C   UNL d   1      58.908  -4.862  28.652  0.00  0.00     0.011 A 
ENDBRANCH  14  17
ENDBRANCH   2  14
BRANCH   7  23
ATOM     23  N   UNL d   1      58.252  -0.485  29.642  0.00  0.00    -0.227 NA
BRANCH  23  24
ATOM     24  C   UNL d   1      57.833  -0.653  30.329  0.00  0.00     0.083 A 
ATOM     25  C   UNL d   1      57.359  -0.073  30.677  0.00  0.00     0.018 A 
ATOM     26  C   UNL d   1      56.939  -0.242  31.365  0.00  0.00     0.002 A 
ATOM     27  C   UNL d   1      57.307   0.677  30.333  0.00  0.00     0.002 C 
ATOM     28  C   UNL d   1      56.465   0.338  31.712  0.00  0.00     0.000 C 
ATOM     29  C   UNL d   1      56.990  -0.994  31.711  0.00  0.00     0.000 A 
ATOM     30  C   UNL d   1      57.468  -1.572  31.356  0.00  0.00     0.002 A 
ATOM     31  C   UNL d   1      57.886  -1.401  30.671  0.00  0.00     0.019 A 
ENDBRANCH  23  24
ENDBRANCH   7  23
TORSDOF 4
ENDMDL
