MODEL 1
REMARK VINA RESULT:      -2.4      0.000      0.000
REMARK  1 active torsions:
REMARK  status: ('A' for Active; 'I' for Inactive)
REMARK    1  A    between atoms: O_8  and  C_4 
ROOT
ATOM      1  C   UNL d   1      32.226  21.696 -21.180  0.00  0.00     0.065 A 
ATOM      2  C   UNL d   1      32.768  21.143 -20.889  0.00  0.00     0.186 A 
ATOM      3  N   UNL d   1      33.237  21.330 -20.236  0.00  0.00    -0.224 NA
ATOM      4  C   UNL d   1      32.156  22.433 -20.817  0.00  0.00     0.099 A 
ATOM      5  N   UNL d   1      32.840  20.409 -21.248  0.00  0.00    -0.127 N 
ATOM      6  C   UNL d   1      33.166  22.066 -19.876  0.00  0.00     0.103 A 
ATOM      7  C   UNL d   1      32.624  22.618 -20.167  0.00  0.00     0.045 A 
ENDROOT
BRANCH   4   8
ATOM      8  O   UNL d   1      31.619  22.981 -21.105  0.00  0.00    -0.328 OA
ATOM      9  C   UNL d   1      31.884  23.700 -21.401  0.00  0.00     0.181 C 
ENDBRANCH   4   8
TORSDOF 1
ENDMDL
MODEL 2
REMARK VINA RESULT:      -2.1      1.544      1.968
REMARK  1 active torsions:
REMARK  status: ('A' for Active; 'I' for Inactive)
REMARK    1  A    between atoms: O_8  and  C_4 
ROOT
ATOM      1  C   UNL d   1      32.695  22.334 -21.775  0.00  0.00     0.065 A 
ATOM      2  C   UNL d   1      32.194  22.274 -21.120  0.00  0.00     0.186 A 
ATOM      3  N   UNL d   1      31.739  22.922 -20.889  0.00  0.00    -0.224 NA
ATOM      4  C   UNL d   1      32.739  23.042 -22.196  0.00  0.00     0.099 A 
ATOM      5  N   UNL d   1      32.148  21.570 -20.700  0.00  0.00    -0.127 N 
ATOM      6  C   UNL d   1      31.784  23.626 -21.310  0.00  0.00     0.103 A 
ATOM      7  C   UNL d   1      32.286  23.686 -21.965  0.00  0.00     0.045 A 
ENDROOT
BRANCH   4   8
ATOM      8  O   UNL d   1      33.236  23.101 -22.844  0.00  0.00    -0.328 OA
ATOM      9  C   UNL d   1      32.990  23.507 -23.515  0.00  0.00     0.181 C 
ENDBRANCH   4   8
TORSDOF 1
ENDMDL
MODEL 3
REMARK VINA RESULT:      -2.0      7.139      7.467
REMARK  1 active torsions:
REMARK  status: ('A' for Active; 'I' for Inactive)
REMARK    1  A    between atoms: O_8  and  C_4 
ROOT
ATOM      1  C   UNL d   1      29.651  16.801 -24.323  0.00  0.00     0.065 A 
ATOM      2  C   UNL d   1      28.919  17.185 -24.288  0.00  0.00     0.186 A 
ATOM      3  N   UNL d   1      28.314  16.876 -23.819  0.00  0.00    -0.224 NA
ATOM      4  C   UNL d   1      29.774  16.110 -23.890  0.00  0.00     0.099 A 
ATOM      5  N   UNL d   1      28.793  17.873 -24.718  0.00  0.00    -0.127 N 
ATOM      6  C   UNL d   1      28.439  16.187 -23.389  0.00  0.00     0.103 A 
ATOM      7  C   UNL d   1      29.171  15.804 -23.424  0.00  0.00     0.045 A 
ENDROOT
BRANCH   4   8
ATOM      8  O   UNL d   1      30.498  15.730 -23.925  0.00  0.00    -0.328 OA
ATOM      9  C   UNL d   1      30.852  15.453 -23.237  0.00  0.00     0.181 C 
ENDBRANCH   4   8
TORSDOF 1
ENDMDL
MODEL 4
REMARK VINA RESULT:      -2.0      6.918      7.216
REMARK  1 active torsions:
REMARK  status: ('A' for Active; 'I' for Inactive)
REMARK    1  A    between atoms: O_8  and  C_4 
ROOT
ATOM      1  C   UNL d   1      30.111  16.261 -23.972  0.00  0.00     0.065 A 
ATOM      2  C   UNL d   1      30.298  15.743 -23.355  0.00  0.00     0.186 A 
ATOM      3  N   UNL d   1      29.701  15.453 -22.865  0.00  0.00    -0.224 NA
ATOM      4  C   UNL d   1      29.327  16.485 -24.097  0.00  0.00     0.099 A 
ATOM      5  N   UNL d   1      31.077  15.517 -23.228  0.00  0.00    -0.127 N 
ATOM      6  C   UNL d   1      28.921  15.678 -22.992  0.00  0.00     0.103 A 
ATOM      7  C   UNL d   1      28.734  16.196 -23.609  0.00  0.00     0.045 A 
ENDROOT
BRANCH   4   8
ATOM      8  O   UNL d   1      29.142  16.998 -24.708  0.00  0.00    -0.328 OA
ATOM      9  C   UNL d   1      28.826  17.738 -24.543  0.00  0.00     0.181 C 
ENDBRANCH   4   8
TORSDOF 1
ENDMDL
MODEL 5
REMARK VINA RESULT:      -1.8      6.507      6.974
REMARK  1 active torsions:
REMARK  status: ('A' for Active; 'I' for Inactive)
REMARK    1  A    between atoms: O_8  and  C_4 
ROOT
ATOM      1  C   UNL d   1      30.098  16.956 -24.329  0.00  0.00     0.065 A 
ATOM      2  C   UNL d   1      30.910  16.946 -24.174  0.00  0.00     0.186 A 
ATOM      3  N   UNL d   1      31.229  16.366 -23.682  0.00  0.00    -0.224 NA
ATOM      4  C   UNL d   1      29.609  16.385 -23.990  0.00  0.00     0.099 A 
ATOM      5  N   UNL d   1      31.400  17.513 -24.510  0.00  0.00    -0.127 N 
ATOM      6  C   UNL d   1      30.740  15.798 -23.346  0.00  0.00     0.103 A 
ATOM      7  C   UNL d   1      29.927  15.808 -23.500  0.00  0.00     0.045 A 
ENDROOT
BRANCH   4   8
ATOM      8  O   UNL d   1      28.804  16.394 -24.143  0.00  0.00    -0.328 OA
ATOM      9  C   UNL d   1      28.266  16.350 -23.523  0.00  0.00     0.181 C 
ENDBRANCH   4   8
TORSDOF 1
ENDMDL
MODEL 6
REMARK VINA RESULT:      -1.8      5.210      6.038
REMARK  1 active torsions:
REMARK  status: ('A' for Active; 'I' for Inactive)
REMARK    1  A    between atoms: O_8  and  C_4 
ROOT
ATOM      1  C   UNL d   1      31.235  17.706 -24.387  0.00  0.00     0.065 A 
ATOM      2  C   UNL d   1      30.646  17.126 -24.421  0.00  0.00     0.186 A 
ATOM      3  N   UNL d   1      30.738  16.422 -24.002  0.00  0.00    -0.224 NA
ATOM      4  C   UNL d   1      31.912  17.579 -23.934  0.00  0.00     0.099 A 
ATOM      5  N   UNL d   1      29.971  17.250 -24.872  0.00  0.00    -0.127 N 
ATOM      6  C   UNL d   1      31.413  16.297 -23.551  0.00  0.00     0.103 A 
ATOM      7  C   UNL d   1      32.002  16.877 -23.517  0.00  0.00     0.045 A 
ENDROOT
BRANCH   4   8
ATOM      8  O   UNL d   1      32.495  18.153 -23.900  0.00  0.00    -0.328 OA
ATOM      9  C   UNL d   1      32.805  18.384 -23.175  0.00  0.00     0.181 C 
ENDBRANCH   4   8
TORSDOF 1
ENDMDL
MODEL 7
REMARK VINA RESULT:      -1.7      2.112      2.973
REMARK  1 active torsions:
REMARK  status: ('A' for Active; 'I' for Inactive)
REMARK    1  A    between atoms: O_8  and  C_4 
ROOT
ATOM      1  C   UNL d   1      32.753  20.386 -21.376  0.00  0.00     0.065 A 
ATOM      2  C   UNL d   1      32.787  21.209 -21.308  0.00  0.00     0.186 A 
ATOM      3  N   UNL d   1      33.032  21.666 -21.950  0.00  0.00    -0.224 NA
ATOM      4  C   UNL d   1      32.964  20.023 -22.086  0.00  0.00     0.099 A 
ATOM      5  N   UNL d   1      32.578  21.573 -20.602  0.00  0.00    -0.127 N 
ATOM      6  C   UNL d   1      33.241  21.302 -22.656  0.00  0.00     0.103 A 
ATOM      7  C   UNL d   1      33.207  20.479 -22.725  0.00  0.00     0.045 A 
ENDROOT
BRANCH   4   8
ATOM      8  O   UNL d   1      32.930  19.208 -22.154  0.00  0.00    -0.328 OA
ATOM      9  C   UNL d   1      33.240  18.836 -22.818  0.00  0.00     0.181 C 
ENDBRANCH   4   8
TORSDOF 1
ENDMDL
MODEL 8
REMARK VINA RESULT:      -1.4      1.366      1.768
REMARK  1 active torsions:
REMARK  status: ('A' for Active; 'I' for Inactive)
REMARK    1  A    between atoms: O_8  and  C_4 
ROOT
ATOM      1  C   UNL d   1      32.567  22.384 -21.264  0.00  0.00     0.065 A 
ATOM      2  C   UNL d   1      32.489  21.705 -20.799  0.00  0.00     0.186 A 
ATOM      3  N   UNL d   1      32.780  20.983 -21.073  0.00  0.00    -0.224 NA
ATOM      4  C   UNL d   1      32.935  22.338 -22.001  0.00  0.00     0.099 A 
ATOM      5  N   UNL d   1      32.123  21.747 -20.066  0.00  0.00    -0.127 N 
ATOM      6  C   UNL d   1      33.146  20.940 -21.807  0.00  0.00     0.103 A 
ATOM      7  C   UNL d   1      33.224  21.619 -22.272  0.00  0.00     0.045 A 
ENDROOT
BRANCH   4   8
ATOM      8  O   UNL d   1      33.012  23.011 -22.461  0.00  0.00    -0.328 OA
ATOM      9  C   UNL d   1      33.240  22.948 -23.248  0.00  0.00     0.181 C 
ENDBRANCH   4   8
TORSDOF 1
ENDMDL
MODEL 9
REMARK VINA RESULT:      -1.3      4.160      4.975
REMARK  1 active torsions:
REMARK  status: ('A' for Active; 'I' for Inactive)
REMARK    1  A    between atoms: O_8  and  C_4 
ROOT
ATOM      1  C   UNL d   1      32.870  18.414 -23.396  0.00  0.00     0.065 A 
ATOM      2  C   UNL d   1      33.051  19.150 -23.066  0.00  0.00     0.186 A 
ATOM      3  N   UNL d   1      33.237  19.787 -23.557  0.00  0.00    -0.224 NA
ATOM      4  C   UNL d   1      32.874  18.318 -24.215  0.00  0.00     0.099 A 
ATOM      5  N   UNL d   1      33.048  19.249 -22.251  0.00  0.00    -0.127 N 
ATOM      6  C   UNL d   1      33.241  19.689 -24.373  0.00  0.00     0.103 A 
ATOM      7  C   UNL d   1      33.059  18.952 -24.703  0.00  0.00     0.045 A 
ENDROOT
BRANCH   4   8
ATOM      8  O   UNL d   1      32.694  17.589 -24.541  0.00  0.00    -0.328 OA
ATOM      9  C   UNL d   1      31.938  17.441 -24.827  0.00  0.00     0.181 C 
ENDBRANCH   4   8
TORSDOF 1
ENDMDL
