MODEL 1
REMARK VINA RESULT:      -6.9      0.000      0.000
REMARK  10 active torsions:
REMARK  status: ('A' for Active; 'I' for Inactive)
REMARK    1  A    between atoms: C_5  and  C_1 
REMARK    2  A    between atoms: N_6  and  C_2 
REMARK    3  A    between atoms: C_7  and  C_5 
REMARK    4  A    between atoms: C_8  and  C_5 
REMARK    5  A    between atoms: O_18  and  C_7 
REMARK    6  A    between atoms: C_22  and  O_18 
REMARK    7  A    between atoms: C_23  and  C_22 
REMARK    8  A    between atoms: C_26  and  C_23 
REMARK    9  A    between atoms: C_24  and  C_25 
REMARK   10  A    between atoms: C_25  and  C_26 
ROOT
ATOM      1  C   UNL d   1      52.265  33.097  53.054  0.00  0.00     0.122 A 
ATOM      2  C   UNL d   1      52.865  33.248  53.604  0.00  0.00     0.166 A 
ATOM      3  N   UNL d   1      53.341  32.626  53.857  0.00  0.00    -0.225 NA
ATOM      4  N   UNL d   1      52.145  32.331  52.761  0.00  0.00    -0.241 NA
ATOM      5  C   UNL d   1      53.228  31.866  53.573  0.00  0.00     0.101 A 
ATOM      6  C   UNL d   1      52.626  31.717  53.021  0.00  0.00     0.099 A 
ATOM      7  C   UNL d   1      52.510  30.956  52.734  0.00  0.00     0.021 A 
ATOM      8  C   UNL d   1      53.711  31.243  53.832  0.00  0.00     0.021 A 
ATOM      9  C   UNL d   1      53.591  30.478  53.540  0.00  0.00     0.002 A 
ATOM     10  C   UNL d   1      52.993  30.335  52.993  0.00  0.00     0.002 A 
ENDROOT
BRANCH   1  11
ATOM     11  C   UNL d   1      51.773  33.717  52.786  0.00  0.00     0.105 C 
BRANCH  11  12
ATOM     12  C   UNL d   1      50.994  33.779  53.045  0.00  0.00     0.303 C 
ATOM     13  O   UNL d   1      50.633  33.135  53.418  0.00  0.00    -0.259 OA
BRANCH  12  14
ATOM     14  O   UNL d   1      50.578  34.479  52.932  0.00  0.00    -0.271 OA
BRANCH  14  15
ATOM     15  C   UNL d   1      49.754  34.482  53.040  0.00  0.00     0.126 C 
BRANCH  15  16
ATOM     16  C   UNL d   1      49.371  35.187  53.216  0.00  0.00     0.027 C 
BRANCH  16  17
ATOM     17  C   UNL d   1      48.631  35.342  52.891  0.00  0.00     0.002 C 
BRANCH  17  18
ATOM     18  C   UNL d   1      48.171  35.950  53.198  0.00  0.00     0.000 C 
BRANCH  18  19
ATOM     19  C   UNL d   1      47.570  36.284  52.741  0.00  0.00     0.000 C 
ATOM     20  C   UNL d   1      46.942  36.656  53.111  0.00  0.00     0.000 C 
ENDBRANCH  18  19
ENDBRANCH  17  18
ENDBRANCH  16  17
ENDBRANCH  15  16
ENDBRANCH  14  15
ENDBRANCH  12  14
ENDBRANCH  11  12
BRANCH  11  21
ATOM     21  C   UNL d   1      52.077  34.284  52.246  0.00  0.00     0.129 C 
ATOM     22  N   UNL d   1      51.810  34.318  51.332  0.00  0.00    -0.146 N 
ENDBRANCH  11  21
ENDBRANCH   1  11
BRANCH   2  23
ATOM     23  N   UNL d   1      52.979  34.014  53.891  0.00  0.00    -0.285 N 
ATOM     24  C   UNL d   1      52.692  34.216  54.643  0.00  0.00     0.101 A 
ATOM     25  C   UNL d   1      52.800  34.975  54.939  0.00  0.00     0.100 A 
ATOM     26  N   UNL d   1      53.199  35.540  54.481  0.00  0.00    -0.299 N 
ATOM     27  C   UNL d   1      53.486  35.337  53.729  0.00  0.00     0.100 A 
ATOM     28  C   UNL d   1      53.314  36.315  54.775  0.00  0.00     0.100 C 
ATOM     29  C   UNL d   1      53.375  34.570  53.433  0.00  0.00     0.101 A 
ENDBRANCH   2  23
TORSDOF 10
ENDMDL
MODEL 2
REMARK VINA RESULT:      -6.2      1.342      1.696
REMARK  10 active torsions:
REMARK  status: ('A' for Active; 'I' for Inactive)
REMARK    1  A    between atoms: C_5  and  C_1 
REMARK    2  A    between atoms: N_6  and  C_2 
REMARK    3  A    between atoms: C_7  and  C_5 
REMARK    4  A    between atoms: C_8  and  C_5 
REMARK    5  A    between atoms: O_18  and  C_7 
REMARK    6  A    between atoms: C_22  and  O_18 
REMARK    7  A    between atoms: C_23  and  C_22 
REMARK    8  A    between atoms: C_26  and  C_23 
REMARK    9  A    between atoms: C_24  and  C_25 
REMARK   10  A    between atoms: C_25  and  C_26 
ROOT
ATOM      1  C   UNL d   1      53.074  32.305  53.435  0.00  0.00     0.122 A 
ATOM      2  C   UNL d   1      53.695  32.070  53.930  0.00  0.00     0.166 A 
ATOM      3  N   UNL d   1      53.843  31.266  54.031  0.00  0.00    -0.225 NA
ATOM      4  N   UNL d   1      52.608  31.741  53.047  0.00  0.00    -0.241 NA
ATOM      5  C   UNL d   1      53.386  30.702  53.651  0.00  0.00     0.101 A 
ATOM      6  C   UNL d   1      52.764  30.941  53.155  0.00  0.00     0.099 A 
ATOM      7  C   UNL d   1      52.304  30.378  52.772  0.00  0.00     0.021 A 
ATOM      8  C   UNL d   1      53.540  29.894  53.757  0.00  0.00     0.021 A 
ATOM      9  C   UNL d   1      53.073  29.330  53.369  0.00  0.00     0.002 A 
ATOM     10  C   UNL d   1      52.458  29.571  52.878  0.00  0.00     0.002 A 
ENDROOT
BRANCH   1  11
ATOM     11  C   UNL d   1      52.911  33.117  53.321  0.00  0.00     0.105 C 
BRANCH  11  12
ATOM     12  C   UNL d   1      52.188  33.437  53.549  0.00  0.00     0.303 C 
ATOM     13  O   UNL d   1      52.056  33.630  54.343  0.00  0.00    -0.259 OA
BRANCH  12  14
ATOM     14  O   UNL d   1      51.599  33.564  52.988  0.00  0.00    -0.271 OA
BRANCH  14  15
ATOM     15  C   UNL d   1      50.925  34.001  53.201  0.00  0.00     0.126 C 
BRANCH  15  16
ATOM     16  C   UNL d   1      50.318  34.100  52.656  0.00  0.00     0.027 C 
BRANCH  16  17
ATOM     17  C   UNL d   1      49.757  34.690  52.773  0.00  0.00     0.002 C 
BRANCH  17  18
ATOM     18  C   UNL d   1      49.170  34.811  52.211  0.00  0.00     0.000 C 
BRANCH  18  19
ATOM     19  C   UNL d   1      48.523  35.292  52.385  0.00  0.00     0.000 C 
ATOM     20  C   UNL d   1      47.988  35.479  51.795  0.00  0.00     0.000 C 
ENDBRANCH  18  19
ENDBRANCH  17  18
ENDBRANCH  16  17
ENDBRANCH  15  16
ENDBRANCH  14  15
ENDBRANCH  12  14
ENDBRANCH  11  12
BRANCH  11  21
ATOM     21  C   UNL d   1      53.491  33.611  52.970  0.00  0.00     0.129 C 
ATOM     22  N   UNL d   1      53.302  34.180  52.230  0.00  0.00    -0.146 N 
ENDBRANCH  11  21
ENDBRANCH   1  11
BRANCH   2  23
ATOM     23  N   UNL d   1      54.155  32.638  54.313  0.00  0.00    -0.285 N 
ATOM     24  C   UNL d   1      53.960  32.870  55.086  0.00  0.00     0.101 A 
ATOM     25  C   UNL d   1      54.411  33.434  55.478  0.00  0.00     0.100 A 
ATOM     26  N   UNL d   1      55.066  33.771  55.095  0.00  0.00    -0.299 N 
ATOM     27  C   UNL d   1      55.262  33.538  54.323  0.00  0.00     0.100 A 
ATOM     28  C   UNL d   1      55.531  34.345  55.487  0.00  0.00     0.100 C 
ATOM     29  C   UNL d   1      54.803  32.969  53.931  0.00  0.00     0.101 A 
ENDBRANCH   2  23
TORSDOF 10
ENDMDL
MODEL 3
REMARK VINA RESULT:      -5.1      1.517      4.752
REMARK  10 active torsions:
REMARK  status: ('A' for Active; 'I' for Inactive)
REMARK    1  A    between atoms: C_5  and  C_1 
REMARK    2  A    between atoms: N_6  and  C_2 
REMARK    3  A    between atoms: C_7  and  C_5 
REMARK    4  A    between atoms: C_8  and  C_5 
REMARK    5  A    between atoms: O_18  and  C_7 
REMARK    6  A    between atoms: C_22  and  O_18 
REMARK    7  A    between atoms: C_23  and  C_22 
REMARK    8  A    between atoms: C_26  and  C_23 
REMARK    9  A    between atoms: C_24  and  C_25 
REMARK   10  A    between atoms: C_25  and  C_26 
ROOT
ATOM      1  C   UNL d   1      52.080  33.541  53.490  0.00  0.00     0.122 A 
ATOM      2  C   UNL d   1      51.801  34.274  53.228  0.00  0.00     0.166 A 
ATOM      3  N   UNL d   1      52.134  34.963  53.536  0.00  0.00    -0.225 NA
ATOM      4  N   UNL d   1      52.685  33.497  54.055  0.00  0.00    -0.241 NA
ATOM      5  C   UNL d   1      52.733  34.928  54.094  0.00  0.00     0.101 A 
ATOM      6  C   UNL d   1      53.011  34.190  54.356  0.00  0.00     0.099 A 
ATOM      7  C   UNL d   1      53.611  34.152  54.915  0.00  0.00     0.021 A 
ATOM      8  C   UNL d   1      53.063  35.624  54.400  0.00  0.00     0.021 A 
ATOM      9  C   UNL d   1      53.668  35.580  54.965  0.00  0.00     0.002 A 
ATOM     10  C   UNL d   1      53.941  34.847  55.221  0.00  0.00     0.002 A 
ENDROOT
BRANCH   1  11
ATOM     11  C   UNL d   1      51.754  32.833  53.188  0.00  0.00     0.105 C 
BRANCH  11  12
ATOM     12  C   UNL d   1      52.230  32.274  52.818  0.00  0.00     0.303 C 
ATOM     13  O   UNL d   1      52.645  32.476  52.132  0.00  0.00    -0.259 OA
BRANCH  12  14
ATOM     14  O   UNL d   1      52.293  31.515  53.132  0.00  0.00    -0.271 OA
BRANCH  14  15
ATOM     15  C   UNL d   1      52.893  31.011  52.855  0.00  0.00     0.126 C 
BRANCH  15  16
ATOM     16  C   UNL d   1      52.871  30.213  53.046  0.00  0.00     0.027 C 
BRANCH  16  17
ATOM     17  C   UNL d   1      53.373  29.919  53.628  0.00  0.00     0.002 C 
BRANCH  17  18
ATOM     18  C   UNL d   1      53.194  29.208  53.999  0.00  0.00     0.000 C 
BRANCH  18  19
ATOM     19  C   UNL d   1      53.683  28.919  54.598  0.00  0.00     0.000 C 
ATOM     20  C   UNL d   1      53.351  28.534  55.239  0.00  0.00     0.000 C 
ENDBRANCH  18  19
ENDBRANCH  17  18
ENDBRANCH  16  17
ENDBRANCH  15  16
ENDBRANCH  14  15
ENDBRANCH  12  14
ENDBRANCH  11  12
BRANCH  11  21
ATOM     21  C   UNL d   1      50.929  32.692  53.263  0.00  0.00     0.129 C 
ATOM     22  N   UNL d   1      50.578  31.905  53.670  0.00  0.00    -0.146 N 
ENDBRANCH  11  21
ENDBRANCH   1  11
BRANCH   2  23
ATOM     23  N   UNL d   1      51.198  34.310  52.665  0.00  0.00    -0.285 N 
ATOM     24  C   UNL d   1      50.410  34.376  52.915  0.00  0.00     0.101 A 
ATOM     25  C   UNL d   1      49.801  34.413  52.364  0.00  0.00     0.100 A 
ATOM     26  N   UNL d   1      49.980  34.383  51.554  0.00  0.00    -0.299 N 
ATOM     27  C   UNL d   1      50.769  34.317  51.305  0.00  0.00     0.100 A 
ATOM     28  C   UNL d   1      49.366  34.420  50.987  0.00  0.00     0.100 C 
ATOM     29  C   UNL d   1      51.380  34.280  51.864  0.00  0.00     0.101 A 
ENDBRANCH   2  23
TORSDOF 10
ENDMDL
MODEL 4
REMARK VINA RESULT:      -4.1      1.660      4.658
REMARK  10 active torsions:
REMARK  status: ('A' for Active; 'I' for Inactive)
REMARK    1  A    between atoms: C_5  and  C_1 
REMARK    2  A    between atoms: N_6  and  C_2 
REMARK    3  A    between atoms: C_7  and  C_5 
REMARK    4  A    between atoms: C_8  and  C_5 
REMARK    5  A    between atoms: O_18  and  C_7 
REMARK    6  A    between atoms: C_22  and  O_18 
REMARK    7  A    between atoms: C_23  and  C_22 
REMARK    8  A    between atoms: C_26  and  C_23 
REMARK    9  A    between atoms: C_24  and  C_25 
REMARK   10  A    between atoms: C_25  and  C_26 
ROOT
ATOM      1  C   UNL d   1      52.659  33.180  53.152  0.00  0.00     0.122 A 
ATOM      2  C   UNL d   1      52.645  33.684  53.807  0.00  0.00     0.166 A 
ATOM      3  N   UNL d   1      52.012  34.205  53.897  0.00  0.00    -0.225 NA
ATOM      4  N   UNL d   1      52.048  33.196  52.593  0.00  0.00    -0.241 NA
ATOM      5  C   UNL d   1      51.403  34.227  53.349  0.00  0.00     0.101 A 
ATOM      6  C   UNL d   1      51.421  33.719  52.692  0.00  0.00     0.099 A 
ATOM      7  C   UNL d   1      50.812  33.738  52.141  0.00  0.00     0.021 A 
ATOM      8  C   UNL d   1      50.770  34.753  53.445  0.00  0.00     0.021 A 
ATOM      9  C   UNL d   1      50.158  34.769  52.887  0.00  0.00     0.002 A 
ATOM     10  C   UNL d   1      50.179  34.264  52.237  0.00  0.00     0.002 A 
ENDROOT
BRANCH   1  11
ATOM     11  C   UNL d   1      53.293  32.646  53.046  0.00  0.00     0.105 C 
BRANCH  11  12
ATOM     12  C   UNL d   1      53.153  31.852  52.881  0.00  0.00     0.303 C 
ATOM     13  O   UNL d   1      52.828  31.634  52.152  0.00  0.00    -0.259 OA
BRANCH  12  14
ATOM     14  O   UNL d   1      53.335  31.277  53.442  0.00  0.00    -0.271 OA
BRANCH  14  15
ATOM     15  C   UNL d   1      53.124  30.487  53.295  0.00  0.00     0.126 C 
BRANCH  15  16
ATOM     16  C   UNL d   1      53.547  29.882  53.654  0.00  0.00     0.027 C 
BRANCH  16  17
ATOM     17  C   UNL d   1      53.171  29.381  54.188  0.00  0.00     0.002 C 
BRANCH  17  18
ATOM     18  C   UNL d   1      53.614  28.845  54.625  0.00  0.00     0.000 C 
BRANCH  18  19
ATOM     19  C   UNL d   1      53.249  28.378  55.200  0.00  0.00     0.000 C 
ATOM     20  C   UNL d   1      53.320  28.582  55.989  0.00  0.00     0.000 C 
ENDBRANCH  18  19
ENDBRANCH  17  18
ENDBRANCH  16  17
ENDBRANCH  15  16
ENDBRANCH  14  15
ENDBRANCH  12  14
ENDBRANCH  11  12
BRANCH  11  21
ATOM     21  C   UNL d   1      54.084  32.923  53.107  0.00  0.00     0.129 C 
ATOM     22  N   UNL d   1      54.755  32.707  52.467  0.00  0.00    -0.146 N 
ENDBRANCH  11  21
ENDBRANCH   1  11
BRANCH   2  23
ATOM     23  N   UNL d   1      53.257  33.663  54.360  0.00  0.00    -0.285 N 
ATOM     24  C   UNL d   1      53.885  34.202  54.296  0.00  0.00     0.101 A 
ATOM     25  C   UNL d   1      54.501  34.190  54.840  0.00  0.00     0.100 A 
ATOM     26  N   UNL d   1      54.491  33.634  55.456  0.00  0.00    -0.299 N 
ATOM     27  C   UNL d   1      53.863  33.095  55.520  0.00  0.00     0.100 A 
ATOM     28  C   UNL d   1      55.114  33.615  56.015  0.00  0.00     0.100 C 
ATOM     29  C   UNL d   1      53.244  33.110  54.968  0.00  0.00     0.101 A 
ENDBRANCH   2  23
TORSDOF 10
ENDMDL
MODEL 5
REMARK VINA RESULT:      -4.1      1.444      3.251
REMARK  10 active torsions:
REMARK  status: ('A' for Active; 'I' for Inactive)
REMARK    1  A    between atoms: C_5  and  C_1 
REMARK    2  A    between atoms: N_6  and  C_2 
REMARK    3  A    between atoms: C_7  and  C_5 
REMARK    4  A    between atoms: C_8  and  C_5 
REMARK    5  A    between atoms: O_18  and  C_7 
REMARK    6  A    between atoms: C_22  and  O_18 
REMARK    7  A    between atoms: C_23  and  C_22 
REMARK    8  A    between atoms: C_26  and  C_23 
REMARK    9  A    between atoms: C_24  and  C_25 
REMARK   10  A    between atoms: C_25  and  C_26 
ROOT
ATOM      1  C   UNL d   1      52.855  32.923  53.788  0.00  0.00     0.122 A 
ATOM      2  C   UNL d   1      53.409  32.313  53.859  0.00  0.00     0.166 A 
ATOM      3  N   UNL d   1      54.112  32.456  54.265  0.00  0.00    -0.225 NA
ATOM      4  N   UNL d   1      53.003  33.668  54.119  0.00  0.00    -0.241 NA
ATOM      5  C   UNL d   1      54.266  33.190  54.595  0.00  0.00     0.101 A 
ATOM      6  C   UNL d   1      53.707  33.801  54.521  0.00  0.00     0.099 A 
ATOM      7  C   UNL d   1      53.858  34.538  54.851  0.00  0.00     0.021 A 
ATOM      8  C   UNL d   1      54.975  33.328  55.001  0.00  0.00     0.021 A 
ATOM      9  C   UNL d   1      55.123  34.073  55.332  0.00  0.00     0.002 A 
ATOM     10  C   UNL d   1      54.567  34.676  55.257  0.00  0.00     0.002 A 
ENDROOT
BRANCH   1  11
ATOM     11  C   UNL d   1      52.137  32.794  53.380  0.00  0.00     0.105 C 
BRANCH  11  12
ATOM     12  C   UNL d   1      51.930  33.260  52.734  0.00  0.00     0.303 C 
ATOM     13  O   UNL d   1      52.409  33.265  52.060  0.00  0.00    -0.259 OA
BRANCH  12  14
ATOM     14  O   UNL d   1      51.247  33.719  52.761  0.00  0.00    -0.271 OA
BRANCH  14  15
ATOM     15  C   UNL d   1      50.958  34.055  52.058  0.00  0.00     0.126 C 
BRANCH  15  16
ATOM     16  C   UNL d   1      50.271  34.505  52.077  0.00  0.00     0.027 C 
BRANCH  16  17
ATOM     17  C   UNL d   1      49.729  34.448  51.460  0.00  0.00     0.002 C 
BRANCH  17  18
ATOM     18  C   UNL d   1      48.995  34.811  51.529  0.00  0.00     0.000 C 
BRANCH  18  19
ATOM     19  C   UNL d   1      48.444  34.749  50.917  0.00  0.00     0.000 C 
ATOM     20  C   UNL d   1      47.718  35.118  50.990  0.00  0.00     0.000 C 
ENDBRANCH  18  19
ENDBRANCH  17  18
ENDBRANCH  16  17
ENDBRANCH  15  16
ENDBRANCH  14  15
ENDBRANCH  12  14
ENDBRANCH  11  12
BRANCH  11  21
ATOM     21  C   UNL d   1      51.621  32.181  53.632  0.00  0.00     0.129 C 
ATOM     22  N   UNL d   1      50.718  32.344  53.890  0.00  0.00    -0.146 N 
ENDBRANCH  11  21
ENDBRANCH   1  11
BRANCH   2  23
ATOM     23  N   UNL d   1      53.255  31.573  53.527  0.00  0.00    -0.285 N 
ATOM     24  C   UNL d   1      52.976  30.958  54.010  0.00  0.00     0.101 A 
ATOM     25  C   UNL d   1      52.819  30.217  53.690  0.00  0.00     0.100 A 
ATOM     26  N   UNL d   1      52.942  30.087  52.880  0.00  0.00    -0.299 N 
ATOM     27  C   UNL d   1      53.220  30.702  52.397  0.00  0.00     0.100 A 
ATOM     28  C   UNL d   1      52.784  29.336  52.547  0.00  0.00     0.100 C 
ATOM     29  C   UNL d   1      53.377  31.448  52.724  0.00  0.00     0.101 A 
ENDBRANCH   2  23
TORSDOF 10
ENDMDL
