MODEL 1
REMARK VINA RESULT:      24.4      0.000      0.000
REMARK  4 active torsions:
REMARK  status: ('A' for Active; 'I' for Inactive)
REMARK    1  A    between atoms: N_2  and  S_1 
REMARK    2  A    between atoms: C_3  and  S_1 
REMARK    3  A    between atoms: O_16  and  C_8 
REMARK    4  A    between atoms: O_17  and  C_11 
ROOT
ATOM      1  S   UNL d   1      45.579 -16.388  43.723  0.00  0.00     0.271 S 
ATOM      2  O   UNL d   1      45.358 -16.124  42.976  0.00  0.00    -0.200 OA
ATOM      3  O   UNL d   1      45.803 -16.653  44.479  0.00  0.00    -0.200 OA
ENDROOT
BRANCH   1   4
ATOM      4  N   UNL d   1      45.468 -15.629  44.028  0.00  0.00    -0.229 N 
ATOM      5  C   UNL d   1      46.090 -15.087  44.017  0.00  0.00     0.092 A 
ATOM      6  C   UNL d   1      45.978 -14.328  44.322  0.00  0.00     0.018 A 
ATOM      7  C   UNL d   1      46.600 -13.785  44.310  0.00  0.00     0.002 A 
ATOM      8  C   UNL d   1      45.246 -14.112  44.638  0.00  0.00     0.003 A 
ATOM      9  C   UNL d   1      46.488 -13.027  44.615  0.00  0.00     0.000 A 
ATOM     10  C   UNL d   1      45.756 -12.811  44.931  0.00  0.00     0.000 A 
ATOM     11  C   UNL d   1      45.134 -13.353  44.943  0.00  0.00     0.000 A 
ATOM     12  C   UNL d   1      44.624 -14.654  44.649  0.00  0.00     0.020 A 
ATOM     13  C   UNL d   1      44.736 -15.413  44.344  0.00  0.00     0.092 A 
ENDBRANCH   1   4
BRANCH   1  14
ATOM     14  C   UNL d   1      45.693 -17.145  43.427  0.00  0.00     0.106 A 
ATOM     15  C   UNL d   1      45.779 -17.779  43.950  0.00  0.00     0.039 A 
ATOM     16  C   UNL d   1      45.893 -18.539  43.656  0.00  0.00     0.117 A 
ATOM     17  C   UNL d   1      45.921 -18.672  42.845  0.00  0.00     0.116 A 
ATOM     18  C   UNL d   1      45.835 -18.037  42.321  0.00  0.00     0.027 A 
ATOM     19  C   UNL d   1      45.722 -17.280  42.618  0.00  0.00     0.015 A 
BRANCH  16  20
ATOM     20  O   UNL d   1      45.979 -19.173  44.179  0.00  0.00    -0.326 OA
ATOM     21  C   UNL d   1      46.450 -19.090  44.856  0.00  0.00     0.181 C 
ENDBRANCH  16  20
BRANCH  17  22
ATOM     22  O   UNL d   1      46.036 -19.438  42.550  0.00  0.00    -0.326 OA
ATOM     23  C   UNL d   1      46.646 -19.907  42.847  0.00  0.00     0.181 C 
ENDBRANCH  17  22
ENDBRANCH   1  14
TORSDOF 4
ENDMDL
