MODEL 1
REMARK VINA RESULT:      -1.7      0.000      0.000
REMARK  4 active torsions:
REMARK  status: ('A' for Active; 'I' for Inactive)
REMARK    1  A    between atoms: C_7  and  C_1 
REMARK    2  A    between atoms: N_5  and  C_3 
REMARK       I    between atoms: C_8  and  N_5 
REMARK    3  A    between atoms: C_9  and  C_8 
REMARK    4  A    between atoms: O_21  and  C_15 
ROOT
ATOM      1  C   UNL d   1      32.765  18.107 -23.590  0.00  0.00     0.137 A 
ATOM      2  S   UNL d   1      32.731  18.581 -22.918  0.00  0.00    -0.026 SA
ATOM      3  C   UNL d   1      32.969  19.340 -23.118  0.00  0.00     0.219 A 
ATOM      4  N   UNL d   1      33.030  18.585 -24.223  0.00  0.00    -0.139 NA
ATOM      5  N   UNL d   1      33.156  19.345 -23.931  0.00  0.00    -0.121 NA
ENDROOT
BRANCH   3   6
ATOM      6  N   UNL d   1      33.016  19.986 -22.610  0.00  0.00    -0.181 NA
ATOM      7  C   UNL d   1      32.486  20.606 -22.464  0.00  0.00     0.281 C 
ATOM      8  O   UNL d   1      31.775  20.637 -22.864  0.00  0.00    -0.265 OA
BRANCH   7   9
ATOM      9  C   UNL d   1      32.686  21.188 -21.913  0.00  0.00     0.060 A 
ATOM     10  C   UNL d   1      32.637  21.012 -21.108  0.00  0.00     0.031 A 
ATOM     11  C   UNL d   1      32.833  21.582 -20.557  0.00  0.00     0.119 A 
ATOM     12  O   UNL d   1      32.841  21.574 -19.735  0.00  0.00    -0.300 OA
ATOM     13  C   UNL d   1      33.079  22.329 -20.802  0.00  0.00     0.119 A 
ATOM     14  C   UNL d   1      33.091  22.318 -19.467  0.00  0.00     0.304 A 
ATOM     15  O   UNL d   1      33.239  22.786 -20.133  0.00  0.00    -0.300 OA
ATOM     16  C   UNL d   1      33.128  22.505 -21.607  0.00  0.00     0.026 A 
ATOM     17  C   UNL d   1      32.932  21.934 -22.162  0.00  0.00     0.007 A 
ENDBRANCH   7   9
ENDBRANCH   3   6
BRANCH   1  18
ATOM     18  C   UNL d   1      32.573  17.304 -23.637  0.00  0.00     0.048 A 
ATOM     19  C   UNL d   1      31.876  17.054 -24.016  0.00  0.00     0.096 A 
ATOM     20  C   UNL d   1      31.688  16.264 -24.062  0.00  0.00     0.024 A 
ATOM     21  C   UNL d   1      32.197  15.702 -23.727  0.00  0.00     0.002 A 
ATOM     22  C   UNL d   1      32.884  15.934 -23.352  0.00  0.00     0.000 A 
ATOM     23  C   UNL d   1      33.070  16.741 -23.309  0.00  0.00     0.004 A 
BRANCH  19  24
ATOM     24  O   UNL d   1      31.380  17.616 -24.345  0.00  0.00    -0.328 OA
ATOM     25  C   UNL d   1      30.706  17.378 -24.758  0.00  0.00     0.181 C 
ENDBRANCH  19  24
ENDBRANCH   1  18
TORSDOF 4
ENDMDL
MODEL 2
REMARK VINA RESULT:      -0.8      1.116      5.407
REMARK  4 active torsions:
REMARK  status: ('A' for Active; 'I' for Inactive)
REMARK    1  A    between atoms: C_7  and  C_1 
REMARK    2  A    between atoms: N_5  and  C_3 
REMARK       I    between atoms: C_8  and  N_5 
REMARK    3  A    between atoms: C_9  and  C_8 
REMARK    4  A    between atoms: O_21  and  C_15 
ROOT
ATOM      1  C   UNL d   1      32.763  21.342 -22.163  0.00  0.00     0.137 A 
ATOM      2  S   UNL d   1      32.635  20.535 -22.061  0.00  0.00    -0.026 SA
ATOM      3  C   UNL d   1      32.924  20.138 -22.718  0.00  0.00     0.219 A 
ATOM      4  N   UNL d   1      33.140  21.447 -22.902  0.00  0.00    -0.139 NA
ATOM      5  N   UNL d   1      33.239  20.704 -23.244  0.00  0.00    -0.121 NA
ENDROOT
BRANCH   3   6
ATOM      6  N   UNL d   1      32.907  19.324 -22.842  0.00  0.00    -0.181 NA
ATOM      7  C   UNL d   1      32.448  18.858 -23.350  0.00  0.00     0.281 C 
ATOM      8  O   UNL d   1      31.897  19.209 -23.838  0.00  0.00    -0.265 OA
BRANCH   7   9
ATOM      9  C   UNL d   1      32.555  18.039 -23.355  0.00  0.00     0.060 A 
ATOM     10  C   UNL d   1      32.159  17.585 -23.919  0.00  0.00     0.031 A 
ATOM     11  C   UNL d   1      32.260  16.775 -23.931  0.00  0.00     0.119 A 
ATOM     12  O   UNL d   1      31.948  16.187 -24.414  0.00  0.00    -0.300 OA
ATOM     13  C   UNL d   1      32.754  16.410 -23.381  0.00  0.00     0.119 A 
ATOM     14  C   UNL d   1      32.249  15.455 -24.165  0.00  0.00     0.304 A 
ATOM     15  O   UNL d   1      32.750  15.597 -23.523  0.00  0.00    -0.300 OA
ATOM     16  C   UNL d   1      33.150  16.864 -22.816  0.00  0.00     0.026 A 
ATOM     17  C   UNL d   1      33.050  17.678 -22.804  0.00  0.00     0.007 A 
ENDBRANCH   7   9
ENDBRANCH   3   6
BRANCH   1  18
ATOM     18  C   UNL d   1      32.557  21.944 -21.634  0.00  0.00     0.048 A 
ATOM     19  C   UNL d   1      32.676  21.851 -20.816  0.00  0.00     0.096 A 
ATOM     20  C   UNL d   1      32.473  22.443 -20.296  0.00  0.00     0.024 A 
ATOM     21  C   UNL d   1      32.146  23.147 -20.586  0.00  0.00     0.002 A 
ATOM     22  C   UNL d   1      32.024  23.251 -21.387  0.00  0.00     0.000 A 
ATOM     23  C   UNL d   1      32.233  22.643 -21.911  0.00  0.00     0.004 A 
BRANCH  19  24
ATOM     24  O   UNL d   1      33.000  21.152 -20.539  0.00  0.00    -0.328 OA
ATOM     25  C   UNL d   1      33.223  21.089 -19.747  0.00  0.00     0.181 C 
ENDBRANCH  19  24
ENDBRANCH   1  18
TORSDOF 4
ENDMDL
