MODEL 1
REMARK VINA RESULT:      -8.5      0.000      0.000
REMARK  3 active torsions:
REMARK  status: ('A' for Active; 'I' for Inactive)
REMARK    1  A    between atoms: S_2  and  C_1 
REMARK    2  A    between atoms: N_8  and  S_2 
REMARK    3  A    between atoms: C_12  and  N_9 
ROOT
ATOM      1  N   UNL d   1      51.101  34.151  53.004  0.00  0.00    -0.226 N 
ATOM      2  N   UNL d   1      52.551  33.622  53.571  0.00  0.00    -0.299 N 
ATOM      3  C   UNL d   1      51.764  34.622  52.941  0.00  0.00     0.111 A 
ATOM      4  C   UNL d   1      51.169  33.405  53.358  0.00  0.00     0.111 A 
ATOM      5  C   UNL d   1      52.483  34.369  53.217  0.00  0.00     0.100 A 
ATOM      6  C   UNL d   1      51.896  33.140  53.642  0.00  0.00     0.100 A 
ENDROOT
BRANCH   1   7
ATOM      7  S   UNL d   1      50.371  34.420  52.718  0.00  0.00     0.278 S 
ATOM      8  O   UNL d   1      50.776  34.847  52.140  0.00  0.00    -0.199 OA
ATOM      9  O   UNL d   1      49.975  33.985  53.304  0.00  0.00    -0.199 OA
BRANCH   7  10
ATOM     10  C   UNL d   1      49.650  34.694  52.424  0.00  0.00     0.178 A 
ATOM     11  C   UNL d   1      49.203  35.227  52.875  0.00  0.00     0.282 A 
ATOM     12  N   UNL d   1      48.486  35.499  52.581  0.00  0.00    -0.224 N 
ATOM     13  O   UNL d   1      49.473  35.476  53.599  0.00  0.00    -0.266 OA
ATOM     14  C   UNL d   1      48.045  36.031  53.036  0.00  0.00     0.107 C 
ATOM     15  C   UNL d   1      48.212  35.246  51.846  0.00  0.00     0.342 A 
ATOM     16  N   UNL d   1      48.654  34.720  51.403  0.00  0.00    -0.255 N 
ATOM     17  O   UNL d   1      47.490  35.519  51.549  0.00  0.00    -0.245 OA
ATOM     18  C   UNL d   1      49.375  34.441  51.689  0.00  0.00     0.102 A 
ATOM     19  C   UNL d   1      48.381  34.468  50.672  0.00  0.00     0.104 C 
ENDBRANCH   7  10
ENDBRANCH   1   7
BRANCH   2  20
ATOM     20  C   UNL d   1      53.287  33.359  53.857  0.00  0.00     0.092 A 
ATOM     21  C   UNL d   1      53.735  32.826  53.406  0.00  0.00     0.156 A 
ATOM     22  F   UNL d   1      53.458  32.558  52.686  0.00  0.00    -0.203 F 
ATOM     23  C   UNL d   1      54.465  32.567  53.692  0.00  0.00     0.031 A 
ATOM     24  C   UNL d   1      54.743  32.838  54.419  0.00  0.00     0.002 A 
ATOM     25  C   UNL d   1      54.296  33.371  54.870  0.00  0.00     0.002 A 
ATOM     26  C   UNL d   1      53.566  33.630  54.583  0.00  0.00     0.020 A 
ENDBRANCH   2  20
TORSDOF 3
ENDMDL
MODEL 2
REMARK VINA RESULT:      -8.2      1.903      5.211
REMARK  3 active torsions:
REMARK  status: ('A' for Active; 'I' for Inactive)
REMARK    1  A    between atoms: S_2  and  C_1 
REMARK    2  A    between atoms: N_8  and  S_2 
REMARK    3  A    between atoms: C_12  and  N_9 
ROOT
ATOM      1  N   UNL d   1      51.291  33.941  52.837  0.00  0.00    -0.226 N 
ATOM      2  N   UNL d   1      49.894  34.442  52.127  0.00  0.00    -0.299 N 
ATOM      3  C   UNL d   1      50.581  33.880  53.236  0.00  0.00     0.111 A 
ATOM      4  C   UNL d   1      51.296  34.259  52.072  0.00  0.00     0.111 A 
ATOM      5  C   UNL d   1      49.889  34.124  52.894  0.00  0.00     0.100 A 
ATOM      6  C   UNL d   1      50.595  34.510  51.716  0.00  0.00     0.100 A 
ENDROOT
BRANCH   1   7
ATOM      7  S   UNL d   1      51.993  33.688  53.196  0.00  0.00     0.278 S 
ATOM      8  O   UNL d   1      52.399  34.262  52.765  0.00  0.00    -0.199 OA
ATOM      9  O   UNL d   1      51.573  33.114  53.625  0.00  0.00    -0.199 OA
BRANCH   7  10
ATOM     10  C   UNL d   1      52.700  33.445  53.548  0.00  0.00     0.178 A 
ATOM     11  C   UNL d   1      53.079  32.763  53.267  0.00  0.00     0.282 A 
ATOM     12  N   UNL d   1      53.781  32.523  53.619  0.00  0.00    -0.224 N 
ATOM     13  O   UNL d   1      52.759  32.341  52.653  0.00  0.00    -0.266 OA
ATOM     14  C   UNL d   1      54.156  31.842  53.335  0.00  0.00     0.107 C 
ATOM     15  C   UNL d   1      54.106  32.952  54.242  0.00  0.00     0.342 A 
ATOM     16  N   UNL d   1      53.731  33.624  54.518  0.00  0.00    -0.255 N 
ATOM     17  O   UNL d   1      54.814  32.711  54.597  0.00  0.00    -0.245 OA
ATOM     18  C   UNL d   1      53.025  33.874  54.172  0.00  0.00     0.102 A 
ATOM     19  C   UNL d   1      54.054  34.051  55.138  0.00  0.00     0.104 C 
ENDBRANCH   7  10
ENDBRANCH   1   7
BRANCH   2  20
ATOM     20  C   UNL d   1      49.184  34.694  51.773  0.00  0.00     0.092 A 
ATOM     21  C   UNL d   1      48.692  35.226  52.176  0.00  0.00     0.156 A 
ATOM     22  F   UNL d   1      48.898  35.504  52.915  0.00  0.00    -0.203 F 
ATOM     23  C   UNL d   1      47.988  35.474  51.821  0.00  0.00     0.031 A 
ATOM     24  C   UNL d   1      47.780  35.193  51.075  0.00  0.00     0.002 A 
ATOM     25  C   UNL d   1      48.272  34.661  50.672  0.00  0.00     0.002 A 
ATOM     26  C   UNL d   1      48.976  34.414  51.027  0.00  0.00     0.020 A 
ENDBRANCH   2  20
TORSDOF 3
ENDMDL
