MODEL 1
REMARK VINA RESULT:      77.9      0.000      0.000
REMARK  4 active torsions:
REMARK  status: ('A' for Active; 'I' for Inactive)
REMARK    1  A    between atoms: C_7  and  C_1 
REMARK    2  A    between atoms: C_12  and  C_6 
REMARK       I    between atoms: N_11  and  C_7 
REMARK    3  A    between atoms: C_20  and  N_11 
REMARK       I    between atoms: C_13  and  N_14 
REMARK    4  A    between atoms: N_14  and  C_21 
ROOT
ATOM      1  C   UNL d   1      44.314 -13.212  38.720  0.00  0.00     0.108 A 
ATOM      2  C   UNL d   1      44.654 -14.069  37.916  0.00  0.00     0.044 A 
ATOM      3  C   UNL d   1      44.091 -13.756  38.297  0.00  0.00     0.116 A 
ATOM      4  C   UNL d   1      45.293 -13.698  38.108  0.00  0.00     0.112 A 
ATOM      5  S   UNL d   1      45.087 -13.158  38.612  0.00  0.00    -0.061 SA
ATOM      6  C   UNL d   1      44.684 -14.655  37.406  0.00  0.00     0.005 A 
ATOM      7  N   UNL d   1      45.983 -13.900  37.796  0.00  0.00    -0.239 NA
ATOM      8  C   UNL d   1      45.364 -14.864  37.092  0.00  0.00     0.018 A 
ATOM      9  C   UNL d   1      46.002 -14.493  37.284  0.00  0.00     0.082 A 
ATOM     10  N   UNL d   1      43.189 -13.987  38.278  0.00  0.00    -0.147 N 
ATOM     11  C   UNL d   1      45.549 -15.469  36.535  0.00  0.00     0.002 A 
ATOM     12  C   UNL d   1      46.643 -14.785  36.905  0.00  0.00     0.019 A 
ATOM     13  C   UNL d   1      46.344 -15.428  36.412  0.00  0.00     0.002 A 
ENDROOT
BRANCH   1  14
ATOM     14  C   UNL d   1      43.783 -12.617  39.337  0.00  0.00     0.287 C 
ATOM     15  N   UNL d   1      43.732 -12.213  40.238  0.00  0.00    -0.208 NA
ATOM     16  O   UNL d   1      43.040 -12.330  38.875  0.00  0.00    -0.265 OA
BRANCH  15  17
ATOM     17  C   UNL d   1      44.333 -12.367  40.804  0.00  0.00     0.085 A 
ATOM     18  C   UNL d   1      44.141 -12.821  41.470  0.00  0.00     0.021 A 
ATOM     19  C   UNL d   1      44.730 -12.985  42.047  0.00  0.00     0.021 A 
ATOM     20  C   UNL d   1      45.505 -12.695  41.955  0.00  0.00     0.085 A 
ATOM     21  C   UNL d   1      45.688 -12.244  41.288  0.00  0.00     0.021 A 
ATOM     22  C   UNL d   1      45.105 -12.080  40.715  0.00  0.00     0.021 A 
BRANCH  20  23
ATOM     23  N   UNL d   1      46.194 -12.904  42.661  0.00  0.00    -0.208 NA
ATOM     24  C   UNL d   1      45.721 -13.256  43.707  0.00  0.00     0.279 C 
ATOM     25  O   UNL d   1      46.478 -13.496  44.511  0.00  0.00    -0.265 OA
ATOM     26  C   UNL d   1      44.426 -13.425  44.118  0.00  0.00     0.068 C 
ENDBRANCH  20  23
ENDBRANCH  15  17
ENDBRANCH   1  14
BRANCH   6  27
ATOM     27  C   UNL d   1      44.001 -15.052  37.201  0.00  0.00     0.000 A 
ATOM     28  C   UNL d   1      43.584 -14.816  36.536  0.00  0.00     0.000 A 
ATOM     29  C   UNL d   1      42.901 -15.213  36.331  0.00  0.00     0.000 A 
ATOM     30  C   UNL d   1      42.615 -15.844  36.769  0.00  0.00     0.000 A 
ATOM     31  C   UNL d   1      43.026 -16.079  37.428  0.00  0.00     0.000 A 
ATOM     32  C   UNL d   1      41.612 -16.454  36.499  0.00  0.00     0.000 C 
ATOM     33  C   UNL d   1      43.723 -15.692  37.658  0.00  0.00     0.000 A 
ENDBRANCH   6  27
TORSDOF 4
ENDMDL
MODEL 2
REMARK VINA RESULT:      80.2      3.385      4.033
REMARK  4 active torsions:
REMARK  status: ('A' for Active; 'I' for Inactive)
REMARK    1  A    between atoms: C_7  and  C_1 
REMARK    2  A    between atoms: C_12  and  C_6 
REMARK       I    between atoms: N_11  and  C_7 
REMARK    3  A    between atoms: C_20  and  N_11 
REMARK       I    between atoms: C_13  and  N_14 
REMARK    4  A    between atoms: N_14  and  C_21 
ROOT
ATOM      1  C   UNL d   1      45.591 -17.231  38.157  0.00  0.00     0.108 A 
ATOM      2  C   UNL d   1      45.391 -16.105  37.723  0.00  0.00     0.044 A 
ATOM      3  C   UNL d   1      45.098 -16.773  37.889  0.00  0.00     0.116 A 
ATOM      4  C   UNL d   1      46.134 -16.132  37.897  0.00  0.00     0.112 A 
ATOM      5  S   UNL d   1      46.267 -16.836  38.170  0.00  0.00    -0.061 SA
ATOM      6  C   UNL d   1      45.085 -15.453  37.429  0.00  0.00     0.005 A 
ATOM      7  N   UNL d   1      46.595 -15.509  37.784  0.00  0.00    -0.239 NA
ATOM      8  C   UNL d   1      45.534 -14.830  37.313  0.00  0.00     0.018 A 
ATOM      9  C   UNL d   1      46.276 -14.857  37.487  0.00  0.00     0.082 A 
ATOM     10  N   UNL d   1      44.216 -17.052  37.789  0.00  0.00    -0.147 N 
ATOM     11  C   UNL d   1      45.347 -14.067  37.007  0.00  0.00     0.002 A 
ATOM     12  C   UNL d   1      46.646 -14.165  37.330  0.00  0.00     0.019 A 
ATOM     13  C   UNL d   1      46.033 -13.645  37.013  0.00  0.00     0.002 A 
ENDROOT
BRANCH   1  14
ATOM     14  C   UNL d   1      45.485 -18.185  38.463  0.00  0.00     0.287 C 
ATOM     15  N   UNL d   1      45.518 -18.804  39.234  0.00  0.00    -0.208 NA
ATOM     16  O   UNL d   1      45.266 -18.692  37.726  0.00  0.00    -0.265 OA
BRANCH  15  17
ATOM     17  C   UNL d   1      45.705 -18.514  40.000  0.00  0.00     0.085 A 
ATOM     18  C   UNL d   1      46.384 -18.805  40.376  0.00  0.00     0.021 A 
ATOM     19  C   UNL d   1      46.588 -18.527  41.143  0.00  0.00     0.021 A 
ATOM     20  C   UNL d   1      46.113 -17.962  41.527  0.00  0.00     0.085 A 
ATOM     21  C   UNL d   1      45.439 -17.677  41.145  0.00  0.00     0.021 A 
ATOM     22  C   UNL d   1      45.236 -17.952  40.385  0.00  0.00     0.021 A 
BRANCH  20  23
ATOM     23  N   UNL d   1      46.377 -17.643  42.447  0.00  0.00    -0.208 NA
ATOM     24  C   UNL d   1      46.338 -18.503  43.285  0.00  0.00     0.279 C 
ATOM     25  O   UNL d   1      46.631 -18.165  44.322  0.00  0.00    -0.265 OA
ATOM     26  C   UNL d   1      46.003 -19.829  43.224  0.00  0.00     0.068 C 
ENDBRANCH  20  23
ENDBRANCH  15  17
ENDBRANCH   1  14
BRANCH   6  27
ATOM     27  C   UNL d   1      44.291 -15.424  37.242  0.00  0.00     0.000 A 
ATOM     28  C   UNL d   1      44.025 -15.794  36.561  0.00  0.00     0.000 A 
ATOM     29  C   UNL d   1      43.231 -15.765  36.375  0.00  0.00     0.000 A 
ATOM     30  C   UNL d   1      42.686 -15.376  36.848  0.00  0.00     0.000 A 
ATOM     31  C   UNL d   1      42.947 -15.010  37.523  0.00  0.00     0.000 A 
ATOM     32  C   UNL d   1      41.507 -15.312  36.607  0.00  0.00     0.000 C 
ATOM     33  C   UNL d   1      43.749 -15.025  37.735  0.00  0.00     0.000 A 
ENDBRANCH   6  27
TORSDOF 4
ENDMDL
