MODEL 1
REMARK VINA RESULT:      -7.5      0.000      0.000
REMARK  2 active torsions:
REMARK  status: ('A' for Active; 'I' for Inactive)
REMARK    1  A    between atoms: C_6  and  C_1 
REMARK    2  A    between atoms: C_7  and  C_5 
ROOT
ATOM      1  C   UNL d   1     -46.491  12.360  23.333  0.00  0.00     0.169 A 
ATOM      2  C   UNL d   1     -47.218  12.280  23.149  0.00  0.00     0.048 A 
ATOM      3  N   UNL d   1     -46.623  13.666  23.284  0.00  0.00    -0.148 NA
ATOM      4  N   UNL d   1     -46.188  13.052  23.402  0.00  0.00    -0.142 NA
ATOM      5  C   UNL d   1     -47.350  13.585  23.100  0.00  0.00     0.105 A 
ENDROOT
BRANCH   5   6
ATOM      6  C   UNL d   1     -47.971  14.099  22.936  0.00  0.00     0.020 A 
ATOM      7  C   UNL d   1     -48.747  13.894  23.136  0.00  0.00     0.004 A 
ATOM      8  C   UNL d   1     -49.371  14.412  22.970  0.00  0.00     0.030 A 
ATOM      9  C   UNL d   1     -49.220  15.138  22.603  0.00  0.00     0.140 A 
ATOM     10  C   UNL d   1     -48.435  15.342  22.401  0.00  0.00     0.030 A 
ATOM     11  F   UNL d   1     -49.832  15.651  22.437  0.00  0.00    -0.204 F 
ATOM     12  C   UNL d   1     -47.818  14.821  22.570  0.00  0.00     0.004 A 
ENDBRANCH   5   6
BRANCH   1  13
ATOM     13  C   UNL d   1     -46.056  11.747  23.452  0.00  0.00     0.231 C 
ATOM     14  O   UNL d   1     -45.314  11.778  23.324  0.00  0.00    -0.643 OA
ATOM     15  O   UNL d   1     -46.376  11.105  23.698  0.00  0.00    -0.643 OA
ENDBRANCH   1  13
TORSDOF 2
ENDMDL
MODEL 2
REMARK VINA RESULT:      -7.4      1.906      2.458
REMARK  2 active torsions:
REMARK  status: ('A' for Active; 'I' for Inactive)
REMARK    1  A    between atoms: C_6  and  C_1 
REMARK    2  A    between atoms: C_7  and  C_5 
ROOT
ATOM      1  C   UNL d   1     -46.229  13.104  22.811  0.00  0.00     0.169 A 
ATOM      2  C   UNL d   1     -46.864  13.238  22.428  0.00  0.00     0.048 A 
ATOM      3  N   UNL d   1     -46.909  12.413  23.697  0.00  0.00    -0.148 NA
ATOM      4  N   UNL d   1     -46.245  12.692  23.448  0.00  0.00    -0.142 NA
ATOM      5  C   UNL d   1     -47.544  12.547  23.314  0.00  0.00     0.105 A 
ENDROOT
BRANCH   5   6
ATOM      6  C   UNL d   1     -48.336  12.345  23.408  0.00  0.00     0.020 A 
ATOM      7  C   UNL d   1     -48.927  12.916  23.309  0.00  0.00     0.004 A 
ATOM      8  C   UNL d   1     -49.724  12.712  23.403  0.00  0.00     0.030 A 
ATOM      9  C   UNL d   1     -49.932  11.935  23.598  0.00  0.00     0.140 A 
ATOM     10  C   UNL d   1     -49.332  11.361  23.697  0.00  0.00     0.030 A 
ATOM     11  F   UNL d   1     -50.716  11.729  23.692  0.00  0.00    -0.204 F 
ATOM     12  C   UNL d   1     -48.541  11.571  23.601  0.00  0.00     0.004 A 
ENDBRANCH   5   6
BRANCH   1  13
ATOM     13  C   UNL d   1     -45.566  13.383  22.562  0.00  0.00     0.231 C 
ATOM     14  O   UNL d   1     -45.053  12.923  22.254  0.00  0.00    -0.643 OA
ATOM     15  O   UNL d   1     -45.426  14.125  22.626  0.00  0.00    -0.643 OA
ENDBRANCH   1  13
TORSDOF 2
ENDMDL
MODEL 3
REMARK VINA RESULT:      -7.4      2.871      3.832
REMARK  2 active torsions:
REMARK  status: ('A' for Active; 'I' for Inactive)
REMARK    1  A    between atoms: C_6  and  C_1 
REMARK    2  A    between atoms: C_7  and  C_5 
ROOT
ATOM      1  C   UNL d   1     -49.261  15.113  22.920  0.00  0.00     0.169 A 
ATOM      2  C   UNL d   1     -49.197  14.457  23.285  0.00  0.00     0.048 A 
ATOM      3  N   UNL d   1     -48.038  14.979  22.463  0.00  0.00    -0.148 NA
ATOM      4  N   UNL d   1     -48.684  15.380  22.506  0.00  0.00    -0.142 NA
ATOM      5  C   UNL d   1     -47.973  14.323  22.828  0.00  0.00     0.105 A 
ENDROOT
BRANCH   5   6
ATOM      6  C   UNL d   1     -47.383  13.756  22.910  0.00  0.00     0.020 A 
ATOM      7  C   UNL d   1     -47.574  12.985  23.146  0.00  0.00     0.004 A 
ATOM      8  C   UNL d   1     -46.980  12.415  23.228  0.00  0.00     0.030 A 
ATOM      9  C   UNL d   1     -46.191  12.614  23.074  0.00  0.00     0.140 A 
ATOM     10  C   UNL d   1     -46.002  13.393  22.836  0.00  0.00     0.030 A 
ATOM     11  F   UNL d   1     -45.602  12.055  23.154  0.00  0.00    -0.204 F 
ATOM     12  C   UNL d   1     -46.599  13.955  22.756  0.00  0.00     0.004 A 
ENDBRANCH   5   6
BRANCH   1  13
ATOM     13  C   UNL d   1     -49.907  15.514  22.963  0.00  0.00     0.231 C 
ATOM     14  O   UNL d   1     -50.398  15.505  22.391  0.00  0.00    -0.643 OA
ATOM     15  O   UNL d   1     -50.052  15.921  23.585  0.00  0.00    -0.643 OA
ENDBRANCH   1  13
TORSDOF 2
ENDMDL
MODEL 4
REMARK VINA RESULT:      -7.1      2.544      3.314
REMARK  2 active torsions:
REMARK  status: ('A' for Active; 'I' for Inactive)
REMARK    1  A    between atoms: C_6  and  C_1 
REMARK    2  A    between atoms: C_7  and  C_5 
ROOT
ATOM      1  C   UNL d   1     -49.623  11.978  23.302  0.00  0.00     0.169 A 
ATOM      2  C   UNL d   1     -49.443  12.711  23.316  0.00  0.00     0.048 A 
ATOM      3  N   UNL d   1     -48.377  11.679  23.016  0.00  0.00    -0.148 NA
ATOM      4  N   UNL d   1     -49.092  11.457  23.152  0.00  0.00    -0.142 NA
ATOM      5  C   UNL d   1     -48.197  12.411  23.029  0.00  0.00     0.105 A 
ENDROOT
BRANCH   5   6
ATOM      6  C   UNL d   1     -47.509  12.846  22.913  0.00  0.00     0.020 A 
ATOM      7  C   UNL d   1     -47.550  13.641  22.686  0.00  0.00     0.004 A 
ATOM      8  C   UNL d   1     -46.857  14.078  22.569  0.00  0.00     0.030 A 
ATOM      9  C   UNL d   1     -46.119  13.720  22.680  0.00  0.00     0.140 A 
ATOM     10  C   UNL d   1     -46.080  12.917  22.911  0.00  0.00     0.030 A 
ATOM     11  F   UNL d   1     -45.432  14.147  22.567  0.00  0.00    -0.204 F 
ATOM     12  C   UNL d   1     -46.775  12.488  23.025  0.00  0.00     0.004 A 
ENDBRANCH   5   6
BRANCH   1  13
ATOM     13  C   UNL d   1     -50.338  11.757  23.439  0.00  0.00     0.231 C 
ATOM     14  O   UNL d   1     -50.477  11.061  23.696  0.00  0.00    -0.643 OA
ATOM     15  O   UNL d   1     -50.908  12.240  23.315  0.00  0.00    -0.643 OA
ENDBRANCH   1  13
TORSDOF 2
ENDMDL
