MODEL 1
REMARK VINA RESULT:      -7.4      0.000      0.000
REMARK  6 active torsions:
REMARK  status: ('A' for Active; 'I' for Inactive)
REMARK    1  A    between atoms: S_7  and  C_1 
REMARK       I    between atoms: C_6  and  N_9 
REMARK    2  A    between atoms: C_13  and  C_6 
REMARK    3  A    between atoms: C_15  and  S_7 
REMARK    4  A    between atoms: N_9  and  C_16 
REMARK    5  A    between atoms: O_14  and  C_13 
REMARK    6  A    between atoms: C_16  and  C_15 
ROOT
ATOM      1  C   UNL d   1      52.932  32.925  53.446  0.00  0.00     0.049 A 
ATOM      2  N   UNL d   1      53.611  31.887  53.938  0.00  0.00    -0.245 NA
ATOM      3  C   UNL d   1      53.040  32.108  53.391  0.00  0.00     0.087 A 
ATOM      4  C   UNL d   1      53.434  33.214  54.025  0.00  0.00     0.025 A 
ATOM      5  C   UNL d   1      53.859  32.570  54.335  0.00  0.00     0.082 A 
ATOM      6  C   UNL d   1      52.641  31.606  52.873  0.00  0.00     0.021 C 
ATOM      7  C   UNL d   1      53.567  33.968  54.317  0.00  0.00     0.002 A 
ATOM      8  C   UNL d   1      54.412  32.688  54.934  0.00  0.00     0.019 A 
ATOM      9  C   UNL d   1      54.120  34.086  54.917  0.00  0.00     0.000 A 
ATOM     10  C   UNL d   1      54.539  33.450  55.221  0.00  0.00     0.002 A 
ENDROOT
BRANCH   1  11
ATOM     11  S   UNL d   1      52.408  33.377  52.994  0.00  0.00    -0.083 SA
BRANCH  11  12
ATOM     12  C   UNL d   1      51.625  33.481  53.258  0.00  0.00     0.056 C 
BRANCH  12  13
ATOM     13  C   UNL d   1      51.089  33.897  52.787  0.00  0.00     0.109 C 
BRANCH  13  14
ATOM     14  N   UNL d   1      50.515  34.352  53.144  0.00  0.00    -0.204 NA
ATOM     15  C   UNL d   1      49.880  34.629  52.701  0.00  0.00     0.304 C 
ATOM     16  O   UNL d   1      49.823  34.447  51.897  0.00  0.00    -0.263 OA
BRANCH  15  17
ATOM     17  C   UNL d   1      49.293  35.096  53.068  0.00  0.00     0.179 C 
BRANCH  17  18
ATOM     18  O   UNL d   1      48.685  35.415  52.607  0.00  0.00    -0.322 OA
ATOM     19  C   UNL d   1      48.130  35.927  52.949  0.00  0.00     0.182 C 
ENDBRANCH  17  18
ENDBRANCH  15  17
ENDBRANCH  13  14
ENDBRANCH  12  13
ENDBRANCH  11  12
ENDBRANCH   1  11
TORSDOF 6
ENDMDL
MODEL 2
REMARK VINA RESULT:      -7.4      2.641      4.435
REMARK  6 active torsions:
REMARK  status: ('A' for Active; 'I' for Inactive)
REMARK    1  A    between atoms: S_7  and  C_1 
REMARK       I    between atoms: C_6  and  N_9 
REMARK    2  A    between atoms: C_13  and  C_6 
REMARK    3  A    between atoms: C_15  and  S_7 
REMARK    4  A    between atoms: N_9  and  C_16 
REMARK    5  A    between atoms: O_14  and  C_13 
REMARK    6  A    between atoms: C_16  and  C_15 
ROOT
ATOM      1  C   UNL d   1      53.865  33.539  54.132  0.00  0.00     0.049 A 
ATOM      2  N   UNL d   1      53.962  34.535  55.014  0.00  0.00    -0.245 NA
ATOM      3  C   UNL d   1      54.278  33.810  54.794  0.00  0.00     0.087 A 
ATOM      4  C   UNL d   1      53.294  34.093  53.939  0.00  0.00     0.025 A 
ATOM      5  C   UNL d   1      53.351  34.715  54.487  0.00  0.00     0.082 A 
ATOM      6  C   UNL d   1      54.900  33.416  55.166  0.00  0.00     0.021 C 
ATOM      7  C   UNL d   1      52.729  34.122  53.346  0.00  0.00     0.002 A 
ATOM      8  C   UNL d   1      52.841  35.362  54.435  0.00  0.00     0.019 A 
ATOM      9  C   UNL d   1      52.220  34.769  53.294  0.00  0.00     0.000 A 
ATOM     10  C   UNL d   1      52.277  35.382  53.835  0.00  0.00     0.002 A 
ENDROOT
BRANCH   1  11
ATOM     11  S   UNL d   1      54.003  32.830  53.731  0.00  0.00    -0.083 SA
BRANCH  11  12
ATOM     12  C   UNL d   1      53.736  32.114  54.061  0.00  0.00     0.056 C 
BRANCH  12  13
ATOM     13  C   UNL d   1      53.586  31.468  53.567  0.00  0.00     0.109 C 
BRANCH  13  14
ATOM     14  N   UNL d   1      53.743  30.715  53.838  0.00  0.00    -0.204 NA
ATOM     15  C   UNL d   1      53.274  30.088  53.590  0.00  0.00     0.304 C 
ATOM     16  O   UNL d   1      52.645  30.218  53.069  0.00  0.00    -0.263 OA
BRANCH  15  17
ATOM     17  C   UNL d   1      53.435  29.317  53.867  0.00  0.00     0.179 C 
BRANCH  17  18
ATOM     18  O   UNL d   1      53.005  29.020  54.507  0.00  0.00    -0.322 OA
ATOM     19  C   UNL d   1      53.346  28.458  55.013  0.00  0.00     0.182 C 
ENDBRANCH  17  18
ENDBRANCH  15  17
ENDBRANCH  13  14
ENDBRANCH  12  13
ENDBRANCH  11  12
ENDBRANCH   1  11
TORSDOF 6
ENDMDL
MODEL 3
REMARK VINA RESULT:      -7.3      0.848      1.940
REMARK  6 active torsions:
REMARK  status: ('A' for Active; 'I' for Inactive)
REMARK    1  A    between atoms: S_7  and  C_1 
REMARK       I    between atoms: C_6  and  N_9 
REMARK    2  A    between atoms: C_13  and  C_6 
REMARK    3  A    between atoms: C_15  and  S_7 
REMARK    4  A    between atoms: N_9  and  C_16 
REMARK    5  A    between atoms: O_14  and  C_13 
REMARK    6  A    between atoms: C_16  and  C_15 
ROOT
ATOM      1  C   UNL d   1      53.137  32.373  53.310  0.00  0.00     0.049 A 
ATOM      2  N   UNL d   1      54.057  31.879  54.139  0.00  0.00    -0.245 NA
ATOM      3  C   UNL d   1      53.733  32.573  53.844  0.00  0.00     0.087 A 
ATOM      4  C   UNL d   1      53.088  31.556  53.271  0.00  0.00     0.025 A 
ATOM      5  C   UNL d   1      53.660  31.244  53.787  0.00  0.00     0.082 A 
ATOM      6  C   UNL d   1      53.960  33.340  54.044  0.00  0.00     0.021 C 
ATOM      7  C   UNL d   1      52.607  31.050  52.842  0.00  0.00     0.002 A 
ATOM      8  C   UNL d   1      53.745  30.428  53.868  0.00  0.00     0.019 A 
ATOM      9  C   UNL d   1      52.692  30.234  52.923  0.00  0.00     0.000 A 
ATOM     10  C   UNL d   1      53.257  29.928  53.432  0.00  0.00     0.002 A 
ENDROOT
BRANCH   1  11
ATOM     11  S   UNL d   1      52.667  32.904  52.885  0.00  0.00    -0.083 SA
BRANCH  11  12
ATOM     12  C   UNL d   1      52.040  33.294  53.270  0.00  0.00     0.056 C 
BRANCH  12  13
ATOM     13  C   UNL d   1      51.492  33.722  52.824  0.00  0.00     0.109 C 
BRANCH  13  14
ATOM     14  N   UNL d   1      50.904  34.138  53.207  0.00  0.00    -0.204 NA
ATOM     15  C   UNL d   1      50.280  34.452  52.774  0.00  0.00     0.304 C 
ATOM     16  O   UNL d   1      50.247  34.348  51.955  0.00  0.00    -0.263 OA
BRANCH  15  17
ATOM     17  C   UNL d   1      49.679  34.878  53.167  0.00  0.00     0.179 C 
BRANCH  17  18
ATOM     18  O   UNL d   1      49.074  35.225  52.723  0.00  0.00    -0.322 OA
ATOM     19  C   UNL d   1      48.497  35.688  53.097  0.00  0.00     0.182 C 
ENDBRANCH  17  18
ENDBRANCH  15  17
ENDBRANCH  13  14
ENDBRANCH  12  13
ENDBRANCH  11  12
ENDBRANCH   1  11
TORSDOF 6
ENDMDL
MODEL 4
REMARK VINA RESULT:      -7.1      0.968      1.684
REMARK  6 active torsions:
REMARK  status: ('A' for Active; 'I' for Inactive)
REMARK    1  A    between atoms: S_7  and  C_1 
REMARK       I    between atoms: C_6  and  N_9 
REMARK    2  A    between atoms: C_13  and  C_6 
REMARK    3  A    between atoms: C_15  and  S_7 
REMARK    4  A    between atoms: N_9  and  C_16 
REMARK    5  A    between atoms: O_14  and  C_13 
REMARK    6  A    between atoms: C_16  and  C_15 
ROOT
ATOM      1  C   UNL d   1      52.497  33.649  53.198  0.00  0.00     0.049 A 
ATOM      2  N   UNL d   1      53.516  33.669  54.059  0.00  0.00    -0.245 NA
ATOM      3  C   UNL d   1      52.951  34.135  53.687  0.00  0.00     0.087 A 
ATOM      4  C   UNL d   1      52.776  32.882  53.264  0.00  0.00     0.025 A 
ATOM      5  C   UNL d   1      53.411  32.890  53.800  0.00  0.00     0.082 A 
ATOM      6  C   UNL d   1      52.851  34.948  53.781  0.00  0.00     0.021 C 
ATOM      7  C   UNL d   1      52.546  32.177  52.915  0.00  0.00     0.002 A 
ATOM      8  C   UNL d   1      53.810  32.191  53.981  0.00  0.00     0.019 A 
ATOM      9  C   UNL d   1      52.945  31.478  53.097  0.00  0.00     0.000 A 
ATOM     10  C   UNL d   1      53.571  31.488  53.626  0.00  0.00     0.002 A 
ENDROOT
BRANCH   1  11
ATOM     11  S   UNL d   1      51.867  33.892  52.722  0.00  0.00    -0.083 SA
BRANCH  11  12
ATOM     12  C   UNL d   1      51.140  34.094  53.076  0.00  0.00     0.056 C 
BRANCH  12  13
ATOM     13  C   UNL d   1      50.486  34.257  52.599  0.00  0.00     0.109 C 
BRANCH  13  14
ATOM     14  N   UNL d   1      49.876  34.706  52.899  0.00  0.00    -0.204 NA
ATOM     15  C   UNL d   1      49.217  34.862  52.433  0.00  0.00     0.304 C 
ATOM     16  O   UNL d   1      49.172  34.566  51.662  0.00  0.00    -0.263 OA
BRANCH  15  17
ATOM     17  C   UNL d   1      48.592  35.323  52.741  0.00  0.00     0.179 C 
BRANCH  17  18
ATOM     18  O   UNL d   1      48.105  35.741  52.221  0.00  0.00    -0.322 OA
ATOM     19  C   UNL d   1      47.435  36.138  52.507  0.00  0.00     0.182 C 
ENDBRANCH  17  18
ENDBRANCH  15  17
ENDBRANCH  13  14
ENDBRANCH  12  13
ENDBRANCH  11  12
ENDBRANCH   1  11
TORSDOF 6
ENDMDL
MODEL 5
REMARK VINA RESULT:      -5.1      2.783      3.786
REMARK  6 active torsions:
REMARK  status: ('A' for Active; 'I' for Inactive)
REMARK    1  A    between atoms: S_7  and  C_1 
REMARK       I    between atoms: C_6  and  N_9 
REMARK    2  A    between atoms: C_13  and  C_6 
REMARK    3  A    between atoms: C_15  and  S_7 
REMARK    4  A    between atoms: N_9  and  C_16 
REMARK    5  A    between atoms: O_14  and  C_13 
REMARK    6  A    between atoms: C_16  and  C_15 
ROOT
ATOM      1  C   UNL d   1      53.324  31.079  53.564  0.00  0.00     0.049 A 
ATOM      2  N   UNL d   1      52.498  30.338  52.823  0.00  0.00    -0.245 NA
ATOM      3  C   UNL d   1      52.812  31.091  52.916  0.00  0.00     0.087 A 
ATOM      4  C   UNL d   1      53.329  30.321  53.875  0.00  0.00     0.025 A 
ATOM      5  C   UNL d   1      52.815  29.856  53.416  0.00  0.00     0.082 A 
ATOM      6  C   UNL d   1      52.649  31.748  52.446  0.00  0.00     0.021 C 
ATOM      7  C   UNL d   1      53.726  29.986  54.509  0.00  0.00     0.002 A 
ATOM      8  C   UNL d   1      52.704  29.060  53.598  0.00  0.00     0.019 A 
ATOM      9  C   UNL d   1      53.614  29.189  54.690  0.00  0.00     0.000 A 
ATOM     10  C   UNL d   1      53.107  28.732  54.237  0.00  0.00     0.002 A 
ENDROOT
BRANCH   1  11
ATOM     11  S   UNL d   1      53.758  31.720  53.851  0.00  0.00    -0.083 SA
BRANCH  11  12
ATOM     12  C   UNL d   1      53.385  32.278  54.345  0.00  0.00     0.056 C 
BRANCH  12  13
ATOM     13  C   UNL d   1      53.795  32.959  54.573  0.00  0.00     0.109 C 
BRANCH  13  14
ATOM     14  N   UNL d   1      53.378  33.641  54.731  0.00  0.00    -0.204 NA
ATOM     15  C   UNL d   1      53.777  34.310  54.994  0.00  0.00     0.304 C 
ATOM     16  O   UNL d   1      54.597  34.293  55.097  0.00  0.00    -0.263 OA
BRANCH  15  17
ATOM     17  C   UNL d   1      53.349  35.009  55.156  0.00  0.00     0.179 C 
BRANCH  17  18
ATOM     18  O   UNL d   1      53.421  35.654  54.644  0.00  0.00    -0.322 OA
ATOM     19  C   UNL d   1      52.948  36.326  54.753  0.00  0.00     0.182 C 
ENDBRANCH  17  18
ENDBRANCH  15  17
ENDBRANCH  13  14
ENDBRANCH  12  13
ENDBRANCH  11  12
ENDBRANCH   1  11
TORSDOF 6
ENDMDL
MODEL 6
REMARK VINA RESULT:      -4.7      2.061      5.691
REMARK  6 active torsions:
REMARK  status: ('A' for Active; 'I' for Inactive)
REMARK    1  A    between atoms: S_7  and  C_1 
REMARK       I    between atoms: C_6  and  N_9 
REMARK    2  A    between atoms: C_13  and  C_6 
REMARK    3  A    between atoms: C_15  and  S_7 
REMARK    4  A    between atoms: N_9  and  C_16 
REMARK    5  A    between atoms: O_14  and  C_13 
REMARK    6  A    between atoms: C_16  and  C_15 
ROOT
ATOM      1  C   UNL d   1      48.460  35.241  51.898  0.00  0.00     0.049 A 
ATOM      2  N   UNL d   1      47.421  35.044  51.086  0.00  0.00    -0.245 NA
ATOM      3  C   UNL d   1      48.221  34.893  51.189  0.00  0.00     0.087 A 
ATOM      4  C   UNL d   1      47.812  35.610  52.237  0.00  0.00     0.025 A 
ATOM      5  C   UNL d   1      47.162  35.489  51.733  0.00  0.00     0.082 A 
ATOM      6  C   UNL d   1      48.707  34.466  50.677  0.00  0.00     0.021 C 
ATOM      7  C   UNL d   1      47.716  36.038  52.929  0.00  0.00     0.002 A 
ATOM      8  C   UNL d   1      46.423  35.798  51.928  0.00  0.00     0.019 A 
ATOM      9  C   UNL d   1      46.977  36.347  53.125  0.00  0.00     0.000 A 
ATOM     10  C   UNL d   1      46.337  36.227  52.627  0.00  0.00     0.002 A 
ENDROOT
BRANCH   1  11
ATOM     11  S   UNL d   1      49.223  35.224  52.215  0.00  0.00    -0.083 SA
BRANCH  11  12
ATOM     12  C   UNL d   1      49.573  34.490  52.398  0.00  0.00     0.056 C 
BRANCH  12  13
ATOM     13  C   UNL d   1      50.331  34.472  52.726  0.00  0.00     0.109 C 
BRANCH  13  14
ATOM     14  N   UNL d   1      50.673  33.752  52.898  0.00  0.00    -0.204 NA
ATOM     15  C   UNL d   1      51.480  33.709  53.047  0.00  0.00     0.304 C 
ATOM     16  O   UNL d   1      51.945  34.393  53.022  0.00  0.00    -0.263 OA
BRANCH  15  17
ATOM     17  C   UNL d   1      51.830  32.972  53.223  0.00  0.00     0.179 C 
BRANCH  17  18
ATOM     18  O   UNL d   1      52.611  32.831  52.994  0.00  0.00    -0.322 OA
ATOM     19  C   UNL d   1      52.966  32.099  53.156  0.00  0.00     0.182 C 
ENDBRANCH  17  18
ENDBRANCH  15  17
ENDBRANCH  13  14
ENDBRANCH  12  13
ENDBRANCH  11  12
ENDBRANCH   1  11
TORSDOF 6
ENDMDL
MODEL 7
REMARK VINA RESULT:      -4.6     10.024     10.958
REMARK  6 active torsions:
REMARK  status: ('A' for Active; 'I' for Inactive)
REMARK    1  A    between atoms: S_7  and  C_1 
REMARK       I    between atoms: C_6  and  N_9 
REMARK    2  A    between atoms: C_13  and  C_6 
REMARK    3  A    between atoms: C_15  and  S_7 
REMARK    4  A    between atoms: N_9  and  C_16 
REMARK    5  A    between atoms: O_14  and  C_13 
REMARK    6  A    between atoms: C_16  and  C_15 
ROOT
ATOM      1  C   UNL d   1      45.185  27.848  57.466  0.00  0.00     0.049 A 
ATOM      2  N   UNL d   1      44.955  28.579  58.558  0.00  0.00    -0.245 NA
ATOM      3  C   UNL d   1      45.155  27.828  58.291  0.00  0.00     0.087 A 
ATOM      4  C   UNL d   1      45.004  28.607  57.218  0.00  0.00     0.025 A 
ATOM      5  C   UNL d   1      44.860  29.066  57.896  0.00  0.00     0.082 A 
ATOM      6  C   UNL d   1      45.302  27.167  58.761  0.00  0.00     0.021 C 
ATOM      7  C   UNL d   1      44.949  28.949  56.475  0.00  0.00     0.002 A 
ATOM      8  C   UNL d   1      44.662  29.863  57.822  0.00  0.00     0.019 A 
ATOM      9  C   UNL d   1      44.751  29.746  56.402  0.00  0.00     0.000 A 
ATOM     10  C   UNL d   1      44.610  30.197  57.071  0.00  0.00     0.002 A 
ENDROOT
BRANCH   1  11
ATOM     11  S   UNL d   1      45.366  27.211  56.972  0.00  0.00    -0.083 SA
BRANCH  11  12
ATOM     12  C   UNL d   1      44.843  26.564  56.930  0.00  0.00     0.056 C 
BRANCH  12  13
ATOM     13  C   UNL d   1      44.870  26.059  56.276  0.00  0.00     0.109 C 
BRANCH  13  14
ATOM     14  N   UNL d   1      44.893  25.253  56.395  0.00  0.00    -0.204 NA
ATOM     15  C   UNL d   1      44.753  24.745  55.765  0.00  0.00     0.304 C 
ATOM     16  O   UNL d   1      44.590  25.048  55.013  0.00  0.00    -0.263 OA
BRANCH  15  17
ATOM     17  C   UNL d   1      44.777  23.919  55.887  0.00  0.00     0.179 C 
BRANCH  17  18
ATOM     18  O   UNL d   1      45.246  23.451  55.394  0.00  0.00    -0.322 OA
ATOM     19  C   UNL d   1      45.314  22.636  55.534  0.00  0.00     0.182 C 
ENDBRANCH  17  18
ENDBRANCH  15  17
ENDBRANCH  13  14
ENDBRANCH  12  13
ENDBRANCH  11  12
ENDBRANCH   1  11
TORSDOF 6
ENDMDL
MODEL 8
REMARK VINA RESULT:      -4.5     10.117     10.896
REMARK  6 active torsions:
REMARK  status: ('A' for Active; 'I' for Inactive)
REMARK    1  A    between atoms: S_7  and  C_1 
REMARK       I    between atoms: C_6  and  N_9 
REMARK    2  A    between atoms: C_13  and  C_6 
REMARK    3  A    between atoms: C_15  and  S_7 
REMARK    4  A    between atoms: N_9  and  C_16 
REMARK    5  A    between atoms: O_14  and  C_13 
REMARK    6  A    between atoms: C_16  and  C_15 
ROOT
ATOM      1  C   UNL d   1      44.595  29.922  59.920  0.00  0.00     0.049 A 
ATOM      2  N   UNL d   1      44.902  31.016  60.617  0.00  0.00    -0.245 NA
ATOM      3  C   UNL d   1      44.800  30.719  59.859  0.00  0.00     0.087 A 
ATOM      4  C   UNL d   1      44.570  29.721  60.714  0.00  0.00     0.025 A 
ATOM      5  C   UNL d   1      44.761  30.401  61.152  0.00  0.00     0.082 A 
ATOM      6  C   UNL d   1      44.885  31.139  59.155  0.00  0.00     0.021 C 
ATOM      7  C   UNL d   1      44.401  29.020  61.103  0.00  0.00     0.002 A 
ATOM      8  C   UNL d   1      44.780  30.371  61.976  0.00  0.00     0.019 A 
ATOM      9  C   UNL d   1      44.421  28.990  61.927  0.00  0.00     0.000 A 
ATOM     10  C   UNL d   1      44.609  29.662  62.357  0.00  0.00     0.002 A 
ENDROOT
BRANCH   1  11
ATOM     11  S   UNL d   1      44.441  29.410  59.290  0.00  0.00    -0.083 SA
BRANCH  11  12
ATOM     12  C   UNL d   1      45.078  29.064  58.879  0.00  0.00     0.056 C 
BRANCH  12  13
ATOM     13  C   UNL d   1      44.951  28.742  58.128  0.00  0.00     0.109 C 
BRANCH  13  14
ATOM     14  N   UNL d   1      45.168  27.970  57.985  0.00  0.00    -0.204 NA
ATOM     15  C   UNL d   1      45.250  27.707  57.210  0.00  0.00     0.304 C 
ATOM     16  O   UNL d   1      45.115  28.223  56.579  0.00  0.00    -0.263 OA
BRANCH  15  17
ATOM     17  C   UNL d   1      45.472  26.915  57.064  0.00  0.00     0.179 C 
BRANCH  17  18
ATOM     18  O   UNL d   1      45.226  26.550  56.364  0.00  0.00    -0.322 OA
ATOM     19  C   UNL d   1      45.089  25.732  56.349  0.00  0.00     0.182 C 
ENDBRANCH  17  18
ENDBRANCH  15  17
ENDBRANCH  13  14
ENDBRANCH  12  13
ENDBRANCH  11  12
ENDBRANCH   1  11
TORSDOF 6
ENDMDL
