MODEL 1
REMARK VINA RESULT:      32.7      0.000      0.000
REMARK  3 active torsions:
REMARK  status: ('A' for Active; 'I' for Inactive)
REMARK    1  A    between atoms: S_5  and  C_3 
REMARK    2  A    between atoms: C_12  and  S_5 
REMARK    3  A    between atoms: C_23  and  N_6 
ROOT
ATOM      1  C   UNL d   1      46.097 -18.441  43.118  0.00  0.00     0.155 A 
ATOM      2  C   UNL d   1      46.160 -17.835  42.575  0.00  0.00     0.092 A 
ATOM      3  C   UNL d   1      45.919 -16.894  43.602  0.00  0.00     0.124 A 
ATOM      4  N   UNL d   1      46.186 -19.219  42.874  0.00  0.00    -0.210 NA
ATOM      5  N   UNL d   1      45.947 -18.284  43.895  0.00  0.00    -0.273 N 
ATOM      6  C   UNL d   1      45.855 -17.507  44.152  0.00  0.00     0.181 A 
ATOM      7  C   UNL d   1      46.312 -17.998  41.784  0.00  0.00     0.269 A 
ATOM      8  N   UNL d   1      46.401 -18.773  41.544  0.00  0.00    -0.258 N 
ATOM      9  C   UNL d   1      46.071 -17.060  42.816  0.00  0.00     0.022 A 
ATOM     10  C   UNL d   1      46.337 -19.386  42.093  0.00  0.00     0.152 A 
ATOM     11  N   UNL d   1      45.701 -17.345  44.955  0.00  0.00    -0.128 N 
ATOM     12  C   UNL d   1      46.553 -18.945  40.757  0.00  0.00     0.084 A 
ATOM     13  O   UNL d   1      46.376 -17.379  41.229  0.00  0.00    -0.266 OA
ATOM     14  C   UNL d   1      46.427 -20.163  41.849  0.00  0.00     0.038 A 
ATOM     15  C   UNL d   1      46.641 -19.718  40.519  0.00  0.00     0.019 A 
ATOM     16  C   UNL d   1      46.578 -20.330  41.068  0.00  0.00     0.005 A 
ENDROOT
BRANCH   3  17
ATOM     17  S   UNL d   1      45.826 -16.104  43.860  0.00  0.00     0.213 S 
ATOM     18  O   UNL d   1      46.631 -15.944  43.714  0.00  0.00    -0.217 OA
ATOM     19  O   UNL d   1      45.021 -16.261  44.008  0.00  0.00    -0.217 OA
BRANCH  17  20
ATOM     20  C   UNL d   1      45.717 -15.318  44.121  0.00  0.00     0.088 A 
ATOM     21  C   UNL d   1      44.959 -15.047  44.316  0.00  0.00     0.014 A 
ATOM     22  C   UNL d   1      44.855 -14.268  44.575  0.00  0.00     0.030 A 
ATOM     23  C   UNL d   1      45.503 -13.754  44.640  0.00  0.00     0.140 A 
ATOM     24  C   UNL d   1      46.268 -14.035  44.441  0.00  0.00     0.030 A 
ATOM     25  F   UNL d   1      45.399 -12.969  44.900  0.00  0.00    -0.204 F 
ATOM     26  C   UNL d   1      46.373 -14.814  44.183  0.00  0.00     0.014 A 
ENDBRANCH  17  20
ENDBRANCH   3  17
BRANCH   5  27
ATOM     27  C   UNL d   1      45.883 -18.906  44.454  0.00  0.00     0.083 C 
ATOM     28  C   UNL d   1      46.569 -19.153  44.870  0.00  0.00     0.021 C 
ENDBRANCH   5  27
TORSDOF 3
ENDMDL
