MODEL 1
REMARK VINA RESULT:      18.9      0.000      0.000
REMARK  3 active torsions:
REMARK  status: ('A' for Active; 'I' for Inactive)
REMARK    1  A    between atoms: C_15  and  C_4 
REMARK    2  A    between atoms: C_8  and  S_16 
REMARK    3  A    between atoms: S_16  and  C_15 
ROOT
ATOM      1  N   UNL d   1      45.616 -13.878  44.133  0.00  0.00    -0.133 N 
ATOM      2  C   UNL d   1      45.008 -14.112  43.635  0.00  0.00     0.736 A 
ATOM      3  C   UNL d   1      45.986 -14.555  44.420  0.00  0.00     0.135 A 
ATOM      4  C   UNL d   1      45.607 -15.213  44.099  0.00  0.00     0.129 A 
ATOM      5  N   UNL d   1      44.998 -14.935  43.612  0.00  0.00    -0.058 NA
ATOM      6  C   UNL d   1      45.758 -13.085  44.264  0.00  0.00     0.084 A 
ATOM      7  N   UNL d   1      44.536 -13.555  43.264  0.00  0.00    -0.060 NA
ATOM      8  C   UNL d   1      45.287 -12.511  43.894  0.00  0.00     0.038 A 
ATOM      9  C   UNL d   1      44.678 -12.745  43.396  0.00  0.00     0.101 A 
ATOM     10 BR   UNL d   1      46.645 -14.588  44.954  0.00  0.00    -0.028 Br
ATOM     11  C   UNL d   1      46.378 -12.847  44.772  0.00  0.00     0.020 C 
ATOM     12  C   UNL d   1      44.216 -12.142  43.033  0.00  0.00     0.021 C 
ENDROOT
BRANCH   4  13
ATOM     13  C   UNL d   1      45.809 -15.998  44.247  0.00  0.00     0.059 C 
BRANCH  13  14
ATOM     14  S   UNL d   1      45.819 -16.570  43.654  0.00  0.00    -0.059 SA
BRANCH  14  15
ATOM     15  C   UNL d   1      46.003 -17.352  43.820  0.00  0.00     0.141 A 
ATOM     16  N   UNL d   1      46.253 -17.745  44.508  0.00  0.00    -0.232 NA
ATOM     17  C   UNL d   1      46.349 -18.519  44.342  0.00  0.00     0.088 A 
ATOM     18  C   UNL d   1      46.587 -19.137  44.828  0.00  0.00     0.020 A 
ATOM     19  C   UNL d   1      46.173 -18.660  43.574  0.00  0.00     0.049 A 
ATOM     20  C   UNL d   1      46.645 -19.907  44.523  0.00  0.00     0.002 A 
ATOM     21  C   UNL d   1      46.469 -20.053  43.752  0.00  0.00     0.001 A 
ATOM     22  C   UNL d   1      46.230 -19.430  43.265  0.00  0.00     0.008 A 
ATOM     23  S   UNL d   1      45.952 -17.923  43.237  0.00  0.00    -0.060 SA
ENDBRANCH  14  15
ENDBRANCH  13  14
ENDBRANCH   4  13
TORSDOF 3
ENDMDL
