MODEL 1
REMARK VINA RESULT:      10.4      0.000      0.000
REMARK  0 active torsions:
REMARK  status: ('A' for Active; 'I' for Inactive)
ROOT
ATOM      1  C   UNL d   1     -54.749-101.289 -36.616  0.00  0.00     0.061 A 
ATOM      2  C   UNL d   1     -54.768-101.210 -35.794  0.00  0.00     0.279 A 
ATOM      3  C   UNL d   1     -54.740-102.038 -36.956  0.00  0.00     0.045 A 
ATOM      4  N   UNL d   1     -54.777-101.879 -35.319  0.00  0.00    -0.206 NA
ATOM      5  C   UNL d   1     -54.721-102.114 -37.782  0.00  0.00     0.196 A 
ATOM      6  O   UNL d   1     -54.778-100.461 -35.454  0.00  0.00    -0.265 OA
ATOM      7  C   UNL d   1     -54.768-102.630 -35.665  0.00  0.00     0.102 A 
ATOM      8  O   UNL d   1     -54.712-102.864 -38.122  0.00  0.00    -0.287 OA
ATOM      9  C   UNL d   1     -54.749-102.703 -36.487  0.00  0.00     0.024 A 
ATOM     10  C   UNL d   1     -54.740-100.609 -37.097  0.00  0.00     0.005 A 
ATOM     11  C   UNL d   1     -54.722-100.689 -37.913  0.00  0.00     0.003 A 
ATOM     12  C   UNL d   1     -54.712-101.439 -38.254  0.00  0.00     0.042 A 
ENDROOT
TORSDOF 0
ENDMDL
MODEL 2
REMARK VINA RESULT:      12.8      8.183      9.104
REMARK  0 active torsions:
REMARK  status: ('A' for Active; 'I' for Inactive)
ROOT
ATOM      1  C   UNL d   1     -58.278 -98.760 -43.980  0.00  0.00     0.061 A 
ATOM      2  C   UNL d   1     -57.453 -98.760 -43.995  0.00  0.00     0.279 A 
ATOM      3  C   UNL d   1     -58.703 -98.758 -44.685  0.00  0.00     0.045 A 
ATOM      4  N   UNL d   1     -57.057 -98.758 -44.714  0.00  0.00    -0.206 NA
ATOM      5  C   UNL d   1     -59.531 -98.757 -44.666  0.00  0.00     0.196 A 
ATOM      6  O   UNL d   1     -57.029 -98.762 -43.290  0.00  0.00    -0.265 OA
ATOM      7  C   UNL d   1     -57.487 -98.756 -45.421  0.00  0.00     0.102 A 
ATOM      8  O   UNL d   1     -59.956 -98.755 -45.371  0.00  0.00    -0.287 OA
ATOM      9  C   UNL d   1     -58.313 -98.756 -45.399  0.00  0.00     0.024 A 
ATOM     10  C   UNL d   1     -58.679 -98.762 -43.249  0.00  0.00     0.005 A 
ATOM     11  C   UNL d   1     -59.499 -98.761 -43.235  0.00  0.00     0.003 A 
ATOM     12  C   UNL d   1     -59.924 -98.759 -43.941  0.00  0.00     0.042 A 
ENDROOT
TORSDOF 0
ENDMDL
