MODEL 1
REMARK VINA RESULT:       9.5      0.000      0.000
REMARK  3 active torsions:
REMARK  status: ('A' for Active; 'I' for Inactive)
REMARK    1  A    between atoms: S_6  and  C_1 
REMARK    2  A    between atoms: C_9  and  S_6 
REMARK    3  A    between atoms: C_7  and  C_9 
ROOT
ATOM      1  C   UNL d   1     -51.810  24.766  33.321  0.00  0.00     0.137 A 
ATOM      2  N   UNL d   1     -50.990  24.796  33.341  0.00  0.00    -0.232 NA
ATOM      3  S   UNL d   1     -52.098  25.531  33.307  0.00  0.00    -0.060 SA
ATOM      4  C   UNL d   1     -50.764  25.576  33.340  0.00  0.00     0.088 A 
ATOM      5  C   UNL d   1     -51.457  26.036  33.319  0.00  0.00     0.049 A 
ATOM      6  C   UNL d   1     -50.034  25.938  33.356  0.00  0.00     0.020 A 
ATOM      7  C   UNL d   1     -51.405  26.847  33.313  0.00  0.00     0.008 A 
ATOM      8  C   UNL d   1     -50.667  27.227  33.329  0.00  0.00     0.001 A 
ATOM      9  C   UNL d   1     -49.989  26.778  33.350  0.00  0.00     0.002 A 
ENDROOT
BRANCH   1  10
ATOM     10  S   UNL d   1     -52.245  24.076  33.315  0.00  0.00    -0.077 SA
BRANCH  10  11
ATOM     11  C   UNL d   1     -53.074  24.134  33.347  0.00  0.00     0.161 C 
BRANCH  11  12
ATOM     12  C   UNL d   1     -53.511  23.546  33.740  0.00  0.00     0.197 C 
ATOM     13  O   UNL d   1     -54.262  23.314  33.455  0.00  0.00    -0.647 OA
ATOM     14  O   UNL d   1     -53.208  23.194  34.407  0.00  0.00    -0.647 OA
ENDBRANCH  11  12
ENDBRANCH  10  11
ENDBRANCH   1  10
TORSDOF 3
ENDMDL
MODEL 2
REMARK VINA RESULT:      11.6      2.253      3.560
REMARK  3 active torsions:
REMARK  status: ('A' for Active; 'I' for Inactive)
REMARK    1  A    between atoms: S_6  and  C_1 
REMARK    2  A    between atoms: C_9  and  S_6 
REMARK    3  A    between atoms: C_7  and  C_9 
ROOT
ATOM      1  C   UNL d   1     -51.290  25.375  33.306  0.00  0.00     0.137 A 
ATOM      2  N   UNL d   1     -51.155  24.565  33.306  0.00  0.00    -0.232 NA
ATOM      3  S   UNL d   1     -52.097  25.505  33.306  0.00  0.00    -0.060 SA
ATOM      4  C   UNL d   1     -51.875  24.188  33.306  0.00  0.00     0.088 A 
ATOM      5  C   UNL d   1     -52.464  24.776  33.306  0.00  0.00     0.049 A 
ATOM      6  C   UNL d   1     -52.085  23.401  33.306  0.00  0.00     0.020 A 
ATOM      7  C   UNL d   1     -53.249  24.564  33.306  0.00  0.00     0.008 A 
ATOM      8  C   UNL d   1     -53.474  23.764  33.306  0.00  0.00     0.001 A 
ATOM      9  C   UNL d   1     -52.899  23.190  33.306  0.00  0.00     0.002 A 
ENDROOT
BRANCH   1  10
ATOM     10  S   UNL d   1     -50.700  25.938  33.306  0.00  0.00    -0.077 SA
BRANCH  10  11
ATOM     11  C   UNL d   1     -50.890  26.705  33.567  0.00  0.00     0.161 C 
BRANCH  11  12
ATOM     12  C   UNL d   1     -50.286  27.272  33.645  0.00  0.00     0.197 C 
ATOM     13  O   UNL d   1     -49.574  27.082  34.042  0.00  0.00    -0.647 OA
ATOM     14  O   UNL d   1     -50.387  28.016  33.334  0.00  0.00    -0.647 OA
ENDBRANCH  11  12
ENDBRANCH  10  11
ENDBRANCH   1  10
TORSDOF 3
ENDMDL
