MODEL 1
REMARK VINA RESULT:      -2.4      0.000      0.000
REMARK  5 active torsions:
REMARK  status: ('A' for Active; 'I' for Inactive)
REMARK    1  A    between atoms: O_6  and  C_1 
REMARK    2  A    between atoms: C_2  and  C_4 
REMARK    3  A    between atoms: O_7  and  C_3 
REMARK    4  A    between atoms: C_8  and  O_6 
REMARK    5  A    between atoms: C_9  and  O_7 
ROOT
ATOM      1  C   UNL d   1      59.557  -0.803  29.171  0.00  0.00     0.126 A 
ATOM      2  C   UNL d   1      59.226  -1.556  29.128  0.00  0.00     0.126 A 
ATOM      3  C   UNL d   1      58.438  -0.362  29.951  0.00  0.00     0.067 A 
ATOM      4  C   UNL d   1      59.164  -0.204  29.582  0.00  0.00     0.033 A 
ATOM      5  C   UNL d   1      58.499  -1.713  29.497  0.00  0.00     0.027 A 
ATOM      6  C   UNL d   1      58.111  -1.115  29.905  0.00  0.00     0.008 A 
ENDROOT
BRANCH   1   7
ATOM      7  O   UNL d   1      60.279  -0.646  28.804  0.00  0.00    -0.271 OA
BRANCH   7   8
ATOM      8  C   UNL d   1      60.690   0.046  28.980  0.00  0.00     0.300 C 
ATOM      9  O   UNL d   1      61.132   0.104  29.692  0.00  0.00    -0.259 OA
ATOM     10  C   UNL d   1      60.667   0.682  28.455  0.00  0.00     0.074 C 
ENDBRANCH   7   8
ENDBRANCH   1   7
BRANCH   2  11
ATOM     11  O   UNL d   1      59.628  -2.166  28.708  0.00  0.00    -0.271 OA
BRANCH  11  12
ATOM     12  C   UNL d   1      59.481  -2.955  28.887  0.00  0.00     0.300 C 
ATOM     13  O   UNL d   1      59.939  -3.342  29.455  0.00  0.00    -0.259 OA
ATOM     14  C   UNL d   1      58.873  -3.358  28.494  0.00  0.00     0.074 C 
ENDBRANCH  11  12
ENDBRANCH   2  11
BRANCH   3  15
ATOM     15  C   UNL d   1      58.028   0.242  30.374  0.00  0.00     0.211 C 
ATOM     16  O   UNL d   1      57.363   0.589  30.028  0.00  0.00    -0.644 OA
ATOM     17  O   UNL d   1      58.295   0.481  31.128  0.00  0.00    -0.644 OA
ENDBRANCH   3  15
TORSDOF 5
ENDMDL
MODEL 2
REMARK VINA RESULT:      -2.4      1.007      3.222
REMARK  5 active torsions:
REMARK  status: ('A' for Active; 'I' for Inactive)
REMARK    1  A    between atoms: O_6  and  C_1 
REMARK    2  A    between atoms: C_2  and  C_4 
REMARK    3  A    between atoms: O_7  and  C_3 
REMARK    4  A    between atoms: C_8  and  O_6 
REMARK    5  A    between atoms: C_9  and  O_7 
ROOT
ATOM      1  C   UNL d   1      58.534  -0.915  29.737  0.00  0.00     0.126 A 
ATOM      2  C   UNL d   1      58.187  -0.358  30.235  0.00  0.00     0.126 A 
ATOM      3  C   UNL d   1      59.634  -0.024  29.515  0.00  0.00     0.067 A 
ATOM      4  C   UNL d   1      59.257  -0.750  29.376  0.00  0.00     0.033 A 
ATOM      5  C   UNL d   1      58.564   0.368  30.374  0.00  0.00     0.027 A 
ATOM      6  C   UNL d   1      59.284   0.529  30.013  0.00  0.00     0.008 A 
ENDROOT
BRANCH   1   7
ATOM      7  O   UNL d   1      58.159  -1.637  29.599  0.00  0.00    -0.271 OA
BRANCH   7   8
ATOM      8  C   UNL d   1      58.583  -2.269  29.283  0.00  0.00     0.300 C 
ATOM      9  O   UNL d   1      58.966  -2.816  29.793  0.00  0.00    -0.259 OA
ATOM     10  C   UNL d   1      58.631  -2.364  28.465  0.00  0.00     0.074 C 
ENDBRANCH   7   8
ENDBRANCH   1   7
BRANCH   2  11
ATOM     11  O   UNL d   1      57.449  -0.528  30.604  0.00  0.00    -0.271 OA
BRANCH  11  12
ATOM     12  C   UNL d   1      57.092   0.030  31.090  0.00  0.00     0.300 C 
ATOM     13  O   UNL d   1      56.707   0.682  30.759  0.00  0.00    -0.259 OA
ATOM     14  C   UNL d   1      57.122  -0.065  31.913  0.00  0.00     0.074 C 
ENDBRANCH  11  12
ENDBRANCH   2  11
BRANCH   3  15
ATOM     15  C   UNL d   1      60.373   0.156  29.151  0.00  0.00     0.211 C 
ATOM     16  O   UNL d   1      61.059  -0.197  29.446  0.00  0.00    -0.644 OA
ATOM     17  O   UNL d   1      60.405   0.682  28.503  0.00  0.00    -0.644 OA
ENDBRANCH   3  15
TORSDOF 5
ENDMDL
MODEL 3
REMARK VINA RESULT:      -2.3      0.797      2.882
REMARK  5 active torsions:
REMARK  status: ('A' for Active; 'I' for Inactive)
REMARK    1  A    between atoms: O_6  and  C_1 
REMARK    2  A    between atoms: C_2  and  C_4 
REMARK    3  A    between atoms: O_7  and  C_3 
REMARK    4  A    between atoms: C_8  and  O_6 
REMARK    5  A    between atoms: C_9  and  O_7 
ROOT
ATOM      1  C   UNL d   1      58.995  -0.153  29.564  0.00  0.00     0.126 A 
ATOM      2  C   UNL d   1      58.371  -0.126  30.101  0.00  0.00     0.126 A 
ATOM      3  C   UNL d   1      58.830  -1.572  29.450  0.00  0.00     0.067 A 
ATOM      4  C   UNL d   1      59.225  -0.874  29.237  0.00  0.00     0.033 A 
ATOM      5  C   UNL d   1      57.975  -0.824  30.314  0.00  0.00     0.027 A 
ATOM      6  C   UNL d   1      58.208  -1.541  29.987  0.00  0.00     0.008 A 
ENDROOT
BRANCH   1   7
ATOM      7  O   UNL d   1      59.388   0.541  29.352  0.00  0.00    -0.271 OA
BRANCH   7   8
ATOM      8  C   UNL d   1      60.201   0.530  29.217  0.00  0.00     0.300 C 
ATOM      9  O   UNL d   1      60.732   0.398  29.855  0.00  0.00    -0.259 OA
ATOM     10  C   UNL d   1      60.493   0.649  28.455  0.00  0.00     0.074 C 
ENDBRANCH   7   8
ENDBRANCH   1   7
BRANCH   2  11
ATOM     11  O   UNL d   1      58.136   0.611  30.435  0.00  0.00    -0.271 OA
BRANCH  11  12
ATOM     12  C   UNL d   1      57.517   0.642  30.973  0.00  0.00     0.300 C 
ATOM     13  O   UNL d   1      56.736   0.682  30.706  0.00  0.00    -0.259 OA
ATOM     14  C   UNL d   1      57.679   0.632  31.786  0.00  0.00     0.074 C 
ENDBRANCH  11  12
ENDBRANCH   2  11
BRANCH   3  15
ATOM     15  C   UNL d   1      59.057  -2.315  29.122  0.00  0.00     0.211 C 
ATOM     16  O   UNL d   1      58.659  -2.595  28.455  0.00  0.00    -0.644 OA
ATOM     17  O   UNL d   1      59.676  -2.755  29.470  0.00  0.00    -0.644 OA
ENDBRANCH   3  15
TORSDOF 5
ENDMDL
MODEL 4
REMARK VINA RESULT:      -1.9      2.804      4.636
REMARK  5 active torsions:
REMARK  status: ('A' for Active; 'I' for Inactive)
REMARK    1  A    between atoms: O_6  and  C_1 
REMARK    2  A    between atoms: C_2  and  C_4 
REMARK    3  A    between atoms: O_7  and  C_3 
REMARK    4  A    between atoms: C_8  and  O_6 
REMARK    5  A    between atoms: C_9  and  O_7 
ROOT
ATOM      1  C   UNL d   1      56.781  -0.545  32.327  0.00  0.00     0.126 A 
ATOM      2  C   UNL d   1      57.269  -0.164  31.783  0.00  0.00     0.126 A 
ATOM      3  C   UNL d   1      57.285   0.305  33.366  0.00  0.00     0.067 A 
ATOM      4  C   UNL d   1      56.787  -0.311  33.118  0.00  0.00     0.033 A 
ATOM      5  C   UNL d   1      57.767   0.452  32.030  0.00  0.00     0.027 A 
ATOM      6  C   UNL d   1      57.771   0.682  32.819  0.00  0.00     0.008 A 
ENDROOT
BRANCH   1   7
ATOM      7  O   UNL d   1      56.286  -1.157  32.082  0.00  0.00    -0.271 OA
BRANCH   7   8
ATOM      8  C   UNL d   1      55.868  -1.599  32.638  0.00  0.00     0.300 C 
ATOM      9  O   UNL d   1      56.252  -2.213  33.063  0.00  0.00    -0.259 OA
ATOM     10  C   UNL d   1      55.071  -1.437  32.775  0.00  0.00     0.074 C 
ENDBRANCH   7   8
ENDBRANCH   1   7
BRANCH   2  11
ATOM     11  O   UNL d   1      57.261  -0.404  30.975  0.00  0.00    -0.271 OA
BRANCH  11  12
ATOM     12  C   UNL d   1      57.582   0.085  30.398  0.00  0.00     0.300 C 
ATOM     13  O   UNL d   1      57.106   0.640  30.013  0.00  0.00    -0.259 OA
ATOM     14  C   UNL d   1      58.386   0.018  30.204  0.00  0.00     0.074 C 
ENDBRANCH  11  12
ENDBRANCH   2  11
BRANCH   3  15
ATOM     15  C   UNL d   1      57.300   0.552  34.172  0.00  0.00     0.211 C 
ATOM     16  O   UNL d   1      58.030   0.661  34.542  0.00  0.00    -0.644 OA
ATOM     17  O   UNL d   1      56.585   0.681  34.584  0.00  0.00    -0.644 OA
ENDBRANCH   3  15
TORSDOF 5
ENDMDL
MODEL 5
REMARK VINA RESULT:      -0.9      2.544      4.250
REMARK  5 active torsions:
REMARK  status: ('A' for Active; 'I' for Inactive)
REMARK    1  A    between atoms: O_6  and  C_1 
REMARK    2  A    between atoms: C_2  and  C_4 
REMARK    3  A    between atoms: O_7  and  C_3 
REMARK    4  A    between atoms: C_8  and  O_6 
REMARK    5  A    between atoms: C_9  and  O_7 
ROOT
ATOM      1  C   UNL d   1      57.363   0.237  32.395  0.00  0.00     0.126 A 
ATOM      2  C   UNL d   1      56.823  -0.385  32.375  0.00  0.00     0.126 A 
ATOM      3  C   UNL d   1      57.694  -0.012  31.023  0.00  0.00     0.067 A 
ATOM      4  C   UNL d   1      57.799   0.425  31.721  0.00  0.00     0.033 A 
ATOM      5  C   UNL d   1      56.718  -0.822  31.676  0.00  0.00     0.027 A 
ATOM      6  C   UNL d   1      57.154  -0.632  31.007  0.00  0.00     0.008 A 
ENDROOT
BRANCH   1   7
ATOM      7  O   UNL d   1      57.467   0.671  33.089  0.00  0.00    -0.271 OA
BRANCH   7   8
ATOM      8  C   UNL d   1      58.200   0.676  33.466  0.00  0.00     0.300 C 
ATOM      9  O   UNL d   1      58.907   0.682  33.013  0.00  0.00    -0.259 OA
ATOM     10  C   UNL d   1      58.238   0.677  34.290  0.00  0.00     0.074 C 
ENDBRANCH   7   8
ENDBRANCH   1   7
BRANCH   2  11
ATOM     11  O   UNL d   1      56.378  -0.577  33.064  0.00  0.00    -0.271 OA
BRANCH  11  12
ATOM     12  C   UNL d   1      55.824  -1.183  33.042  0.00  0.00     0.300 C 
ATOM     13  O   UNL d   1      56.046  -1.938  32.791  0.00  0.00    -0.259 OA
ATOM     14  C   UNL d   1      55.042  -1.033  33.273  0.00  0.00     0.074 C 
ENDBRANCH  11  12
ENDBRANCH   2  11
BRANCH   3  15
ATOM     15  C   UNL d   1      58.135   0.172  30.328  0.00  0.00     0.211 C 
ATOM     16  O   UNL d   1      58.942  -0.000  30.311  0.00  0.00    -0.644 OA
ATOM     17  O   UNL d   1      57.755   0.522  29.671  0.00  0.00    -0.644 OA
ENDBRANCH   3  15
TORSDOF 5
ENDMDL
MODEL 6
REMARK VINA RESULT:      -0.4      1.923      3.325
REMARK  5 active torsions:
REMARK  status: ('A' for Active; 'I' for Inactive)
REMARK    1  A    between atoms: O_6  and  C_1 
REMARK    2  A    between atoms: C_2  and  C_4 
REMARK    3  A    between atoms: O_7  and  C_3 
REMARK    4  A    between atoms: C_8  and  O_6 
REMARK    5  A    between atoms: C_9  and  O_7 
ROOT
ATOM      1  C   UNL d   1      58.272   0.242  30.268  0.00  0.00     0.126 A 
ATOM      2  C   UNL d   1      57.943   0.418  31.003  0.00  0.00     0.126 A 
ATOM      3  C   UNL d   1      59.579   0.506  30.797  0.00  0.00     0.067 A 
ATOM      4  C   UNL d   1      59.089   0.286  30.163  0.00  0.00     0.033 A 
ATOM      5  C   UNL d   1      58.432   0.638  31.636  0.00  0.00     0.027 A 
ATOM      6  C   UNL d   1      59.246   0.680  31.528  0.00  0.00     0.008 A 
ENDROOT
BRANCH   1   7
ATOM      7  O   UNL d   1      57.786   0.024  29.639  0.00  0.00    -0.271 OA
BRANCH   7   8
ATOM      8  C   UNL d   1      58.101  -0.052  28.881  0.00  0.00     0.300 C 
ATOM      9  O   UNL d   1      58.193  -0.813  28.537  0.00  0.00    -0.259 OA
ATOM     10  C   UNL d   1      58.324   0.622  28.460  0.00  0.00     0.074 C 
ENDBRANCH   7   8
ENDBRANCH   1   7
BRANCH   2  11
ATOM     11  O   UNL d   1      57.108   0.373  31.109  0.00  0.00    -0.271 OA
BRANCH  11  12
ATOM     12  C   UNL d   1      56.794  -0.087  31.713  0.00  0.00     0.300 C 
ATOM     13  O   UNL d   1      56.932  -0.901  31.729  0.00  0.00    -0.259 OA
ATOM     14  C   UNL d   1      56.338   0.271  32.306  0.00  0.00     0.074 C 
ENDBRANCH  11  12
ENDBRANCH   2  11
BRANCH   3  15
ATOM     15  C   UNL d   1      60.415   0.554  30.700  0.00  0.00     0.211 C 
ATOM     16  O   UNL d   1      60.897   0.491  31.368  0.00  0.00    -0.644 OA
ATOM     17  O   UNL d   1      60.744   0.664  29.940  0.00  0.00    -0.644 OA
ENDBRANCH   3  15
TORSDOF 5
ENDMDL
MODEL 7
REMARK VINA RESULT:      -0.4      2.864      5.073
REMARK  5 active torsions:
REMARK  status: ('A' for Active; 'I' for Inactive)
REMARK    1  A    between atoms: O_6  and  C_1 
REMARK    2  A    between atoms: C_2  and  C_4 
REMARK    3  A    between atoms: O_7  and  C_3 
REMARK    4  A    between atoms: C_8  and  O_6 
REMARK    5  A    between atoms: C_9  and  O_7 
ROOT
ATOM      1  C   UNL d   1      56.746  -0.129  32.660  0.00  0.00     0.126 A 
ATOM      2  C   UNL d   1      57.279   0.395  33.006  0.00  0.00     0.126 A 
ATOM      3  C   UNL d   1      57.504  -0.085  31.443  0.00  0.00     0.067 A 
ATOM      4  C   UNL d   1      56.857  -0.370  31.879  0.00  0.00     0.033 A 
ATOM      5  C   UNL d   1      57.925   0.680  32.571  0.00  0.00     0.027 A 
ATOM      6  C   UNL d   1      58.032   0.438  31.793  0.00  0.00     0.008 A 
ENDROOT
BRANCH   1   7
ATOM      7  O   UNL d   1      56.104  -0.412  33.092  0.00  0.00    -0.271 OA
BRANCH   7   8
ATOM      8  C   UNL d   1      55.801  -1.163  32.939  0.00  0.00     0.300 C 
ATOM      9  O   UNL d   1      56.305  -1.834  32.966  0.00  0.00    -0.259 OA
ATOM     10  C   UNL d   1      55.001  -1.254  32.757  0.00  0.00     0.074 C 
ENDBRANCH   7   8
ENDBRANCH   1   7
BRANCH   2  11
ATOM     11  O   UNL d   1      57.165   0.641  33.804  0.00  0.00    -0.271 OA
BRANCH  11  12
ATOM     12  C   UNL d   1      57.802   0.667  34.323  0.00  0.00     0.300 C 
ATOM     13  O   UNL d   1      58.574   0.681  34.030  0.00  0.00    -0.259 OA
ATOM     14  C   UNL d   1      57.665   0.677  35.141  0.00  0.00     0.074 C 
ENDBRANCH  11  12
ENDBRANCH   2  11
BRANCH   3  15
ATOM     15  C   UNL d   1      57.626  -0.326  30.644  0.00  0.00     0.211 C 
ATOM     16  O   UNL d   1      57.422   0.195  30.036  0.00  0.00    -0.644 OA
ATOM     17  O   UNL d   1      57.948  -1.078  30.477  0.00  0.00    -0.644 OA
ENDBRANCH   3  15
TORSDOF 5
ENDMDL
MODEL 8
REMARK VINA RESULT:      -0.4      3.715      5.484
REMARK  5 active torsions:
REMARK  status: ('A' for Active; 'I' for Inactive)
REMARK    1  A    between atoms: O_6  and  C_1 
REMARK    2  A    between atoms: C_2  and  C_4 
REMARK    3  A    between atoms: O_7  and  C_3 
REMARK    4  A    between atoms: C_8  and  O_6 
REMARK    5  A    between atoms: C_9  and  O_7 
ROOT
ATOM      1  C   UNL d   1      55.943  -0.653  32.982  0.00  0.00     0.126 A 
ATOM      2  C   UNL d   1      56.569  -0.206  32.686  0.00  0.00     0.126 A 
ATOM      3  C   UNL d   1      55.842   0.239  34.100  0.00  0.00     0.067 A 
ATOM      4  C   UNL d   1      55.579  -0.432  33.688  0.00  0.00     0.033 A 
ATOM      5  C   UNL d   1      56.832   0.465  33.098  0.00  0.00     0.027 A 
ATOM      6  C   UNL d   1      56.467   0.682  33.801  0.00  0.00     0.008 A 
ENDROOT
BRANCH   1   7
ATOM      7  O   UNL d   1      55.682  -1.320  32.573  0.00  0.00    -0.271 OA
BRANCH   7   8
ATOM      8  C   UNL d   1      55.508  -2.014  32.982  0.00  0.00     0.300 C 
ATOM      9  O   UNL d   1      56.116  -2.423  33.394  0.00  0.00    -0.259 OA
ATOM     10  C   UNL d   1      54.737  -2.306  32.987  0.00  0.00     0.074 C 
ENDBRANCH   7   8
ENDBRANCH   1   7
BRANCH   2  11
ATOM     11  O   UNL d   1      56.941  -0.433  31.965  0.00  0.00    -0.271 OA
BRANCH  11  12
ATOM     12  C   UNL d   1      57.284   0.137  31.482  0.00  0.00     0.300 C 
ATOM     13  O   UNL d   1      56.818   0.565  30.951  0.00  0.00    -0.259 OA
ATOM     14  C   UNL d   1      58.100   0.278  31.530  0.00  0.00     0.074 C 
ENDBRANCH  11  12
ENDBRANCH   2  11
BRANCH   3  15
ATOM     15  C   UNL d   1      55.476   0.474  34.822  0.00  0.00     0.211 C 
ATOM     16  O   UNL d   1      54.672   0.663  34.819  0.00  0.00    -0.644 OA
ATOM     17  O   UNL d   1      55.924   0.512  35.526  0.00  0.00    -0.644 OA
ENDBRANCH   3  15
TORSDOF 5
ENDMDL
MODEL 9
REMARK VINA RESULT:       0.1      7.814      8.774
REMARK  5 active torsions:
REMARK  status: ('A' for Active; 'I' for Inactive)
REMARK    1  A    between atoms: O_6  and  C_1 
REMARK    2  A    between atoms: C_2  and  C_4 
REMARK    3  A    between atoms: O_7  and  C_3 
REMARK    4  A    between atoms: C_8  and  O_6 
REMARK    5  A    between atoms: C_9  and  O_7 
ROOT
ATOM      1  C   UNL d   1      58.135  -9.324  29.328  0.00  0.00     0.126 A 
ATOM      2  C   UNL d   1      58.922  -9.565  29.368  0.00  0.00     0.126 A 
ATOM      3  C   UNL d   1      57.992  -9.578  30.732  0.00  0.00     0.067 A 
ATOM      4  C   UNL d   1      57.669  -9.330  30.008  0.00  0.00     0.033 A 
ATOM      5  C   UNL d   1      59.245  -9.814  30.091  0.00  0.00     0.027 A 
ATOM      6  C   UNL d   1      58.778  -9.818  30.767  0.00  0.00     0.008 A 
ENDROOT
BRANCH   1   7
ATOM      7  O   UNL d   1      57.814  -9.077  28.609  0.00  0.00    -0.271 OA
BRANCH   7   8
ATOM      8  C   UNL d   1      57.018  -8.870  28.562  0.00  0.00     0.300 C 
ATOM      9  O   UNL d   1      56.425  -9.463  28.601  0.00  0.00    -0.259 OA
ATOM     10  C   UNL d   1      56.805  -8.077  28.477  0.00  0.00     0.074 C 
ENDBRANCH   7   8
ENDBRANCH   1   7
BRANCH   2  11
ATOM     11  O   UNL d   1      59.398  -9.559  28.672  0.00  0.00    -0.271 OA
BRANCH  11  12
ATOM     12  C   UNL d   1      60.167  -9.271  28.701  0.00  0.00     0.300 C 
ATOM     13  O   UNL d   1      60.326  -8.490  28.484  0.00  0.00    -0.259 OA
ATOM     14  C   UNL d   1      60.782  -9.769  28.950  0.00  0.00     0.074 C 
ENDBRANCH  11  12
ENDBRANCH   2  11
BRANCH   3  15
ATOM     15  C   UNL d   1      57.524  -9.588  31.433  0.00  0.00     0.211 C 
ATOM     16  O   UNL d   1      57.879  -9.389  32.152  0.00  0.00    -0.644 OA
ATOM     17  O   UNL d   1      56.716  -9.795  31.395  0.00  0.00    -0.644 OA
ENDBRANCH   3  15
TORSDOF 5
ENDMDL
