MODEL 1
REMARK VINA RESULT:      -3.4      0.000      0.000
REMARK  8 active torsions:
REMARK  status: ('A' for Active; 'I' for Inactive)
REMARK    1  A    between atoms: C_2  and  P_1 
REMARK    2  A    between atoms: O_4  and  P_1 
REMARK    3  A    between atoms: C_5  and  P_1 
REMARK    4  A    between atoms: C_3  and  C_2 
REMARK    5  A    between atoms: C_20  and  O_4 
REMARK    6  A    between atoms: O_19  and  C_8 
REMARK    7  A    between atoms: N_11  and  C_9 
REMARK    8  A    between atoms: O_21  and  C_10 
ROOT
ATOM      1  P   UNL d   1     -38.691  14.070  18.893  0.00  0.00     0.307 P 
ATOM      2  O   UNL d   1     -38.786  13.322  19.223  0.00  0.00    -0.277 OA
ENDROOT
BRANCH   1   3
ATOM      3  C   UNL d   1     -38.597  14.818  18.564  0.00  0.00     0.253 C 
ATOM      4  O   UNL d   1     -37.968  15.309  18.799  0.00  0.00    -0.281 OA
BRANCH   3   5
ATOM      5  C   UNL d   1     -39.130  15.095  17.990  0.00  0.00     0.046 A 
ATOM      6  C   UNL d   1     -38.855  15.373  17.266  0.00  0.00     0.030 A 
ATOM      7  C   UNL d   1     -39.383  15.644  16.704  0.00  0.00     0.116 A 
ATOM      8  C   UNL d   1     -40.202  15.645  16.849  0.00  0.00     0.116 A 
ATOM      9  C   UNL d   1     -40.481  15.363  17.583  0.00  0.00     0.026 A 
ATOM     10  C   UNL d   1     -39.942  15.088  18.152  0.00  0.00     0.005 A 
BRANCH   7  11
ATOM     11  O   UNL d   1     -39.106  15.922  15.982  0.00  0.00    -0.326 OA
ATOM     12  C   UNL d   1     -38.347  15.722  15.729  0.00  0.00     0.181 C 
ENDBRANCH   7  11
BRANCH   8  13
ATOM     13  O   UNL d   1     -40.735  15.917  16.286  0.00  0.00    -0.326 OA
ATOM     14  C   UNL d   1     -41.538  15.921  16.466  0.00  0.00     0.181 C 
ENDBRANCH   8  13
ENDBRANCH   3   5
ENDBRANCH   1   3
BRANCH   1  15
ATOM     15  O   UNL d   1     -38.556  13.728  18.158  0.00  0.00    -0.281 OA
BRANCH  15  16
ATOM     16  C   UNL d   1     -38.398  12.926  18.097  0.00  0.00     0.101 A 
ATOM     17  C   UNL d   1     -38.538  12.529  17.382  0.00  0.00     0.025 A 
ATOM     18  C   UNL d   1     -38.381  11.730  17.320  0.00  0.00     0.002 A 
ATOM     19  C   UNL d   1     -38.083  11.316  17.966  0.00  0.00     0.000 A 
ATOM     20  C   UNL d   1     -37.942  11.704  18.678  0.00  0.00     0.002 A 
ATOM     21  C   UNL d   1     -38.101  12.516  18.742  0.00  0.00     0.025 A 
ENDBRANCH  15  16
ENDBRANCH   1  15
BRANCH   1  22
ATOM     22  C   UNL d   1     -38.828  14.415  19.636  0.00  0.00     0.061 A 
ATOM     23  C   UNL d   1     -38.237  14.868  19.992  0.00  0.00     0.007 A 
ATOM     24  C   UNL d   1     -38.374  15.215  20.738  0.00  0.00     0.018 A 
ATOM     25  C   UNL d   1     -39.092  15.106  21.119  0.00  0.00     0.064 A 
ATOM     26  C   UNL d   1     -39.681  14.650  20.756  0.00  0.00     0.018 A 
ATOM     27  C   UNL d   1     -39.545  14.303  20.009  0.00  0.00     0.007 A 
BRANCH  25  28
ATOM     28  N   UNL d   1     -39.227  15.450  21.858  0.00  0.00    -0.301 N 
ATOM     29  C   UNL d   1     -39.974  15.407  22.202  0.00  0.00     0.100 C 
ATOM     30  C   UNL d   1     -38.612  15.835  22.249  0.00  0.00     0.100 C 
ENDBRANCH  25  28
ENDBRANCH   1  22
TORSDOF 8
ENDMDL
MODEL 2
REMARK VINA RESULT:      -3.3      2.234      3.562
REMARK  8 active torsions:
REMARK  status: ('A' for Active; 'I' for Inactive)
REMARK    1  A    between atoms: C_2  and  P_1 
REMARK    2  A    between atoms: O_4  and  P_1 
REMARK    3  A    between atoms: C_5  and  P_1 
REMARK    4  A    between atoms: C_3  and  C_2 
REMARK    5  A    between atoms: C_20  and  O_4 
REMARK    6  A    between atoms: O_19  and  C_8 
REMARK    7  A    between atoms: N_11  and  C_9 
REMARK    8  A    between atoms: O_21  and  C_10 
ROOT
ATOM      1  P   UNL d   1     -40.486  14.701  20.702  0.00  0.00     0.307 P 
ATOM      2  O   UNL d   1     -40.056  14.246  21.236  0.00  0.00    -0.277 OA
ENDROOT
BRANCH   1   3
ATOM      3  C   UNL d   1     -40.916  15.154  20.168  0.00  0.00     0.253 C 
ATOM      4  O   UNL d   1     -41.568  15.604  20.422  0.00  0.00    -0.281 OA
BRANCH   3   5
ATOM      5  C   UNL d   1     -40.705  15.170  19.364  0.00  0.00     0.046 A 
ATOM      6  C   UNL d   1     -40.548  14.470  18.961  0.00  0.00     0.030 A 
ATOM      7  C   UNL d   1     -40.341  14.492  18.170  0.00  0.00     0.116 A 
ATOM      8  C   UNL d   1     -40.284  15.213  17.759  0.00  0.00     0.116 A 
ATOM      9  C   UNL d   1     -40.444  15.922  18.168  0.00  0.00     0.026 A 
ATOM     10  C   UNL d   1     -40.654  15.898  18.971  0.00  0.00     0.005 A 
BRANCH   7  11
ATOM     11  O   UNL d   1     -40.185  13.791  17.770  0.00  0.00    -0.326 OA
ATOM     12  C   UNL d   1     -39.412  13.506  17.727  0.00  0.00     0.181 C 
ENDBRANCH   7  11
BRANCH   8  13
ATOM     13  O   UNL d   1     -40.076  15.236  16.965  0.00  0.00    -0.326 OA
ATOM     14  C   UNL d   1     -40.390  15.829  16.488  0.00  0.00     0.181 C 
ENDBRANCH   8  13
ENDBRANCH   3   5
ENDBRANCH   1   3
BRANCH   1  15
ATOM     15  O   UNL d   1     -39.810  15.135  20.528  0.00  0.00    -0.281 OA
BRANCH  15  16
ATOM     16  C   UNL d   1     -39.228  15.239  21.096  0.00  0.00     0.101 A 
ATOM     17  C   UNL d   1     -38.551  14.758  21.089  0.00  0.00     0.025 A 
ATOM     18  C   UNL d   1     -37.970  14.861  21.653  0.00  0.00     0.002 A 
ATOM     19  C   UNL d   1     -38.053  15.441  22.230  0.00  0.00     0.000 A 
ATOM     20  C   UNL d   1     -38.721  15.921  22.243  0.00  0.00     0.002 A 
ATOM     21  C   UNL d   1     -39.313  15.818  21.669  0.00  0.00     0.025 A 
ENDBRANCH  15  16
ENDBRANCH   1  15
BRANCH   1  22
ATOM     22  C   UNL d   1     -41.168  14.262  20.878  0.00  0.00     0.061 A 
ATOM     23  C   UNL d   1     -41.140  13.437  20.861  0.00  0.00     0.007 A 
ATOM     24  C   UNL d   1     -41.825  12.995  21.038  0.00  0.00     0.018 A 
ATOM     25  C   UNL d   1     -42.525  13.377  21.229  0.00  0.00     0.064 A 
ATOM     26  C   UNL d   1     -42.547  14.206  21.244  0.00  0.00     0.018 A 
ATOM     27  C   UNL d   1     -41.861  14.648  21.066  0.00  0.00     0.007 A 
BRANCH  25  28
ATOM     28  N   UNL d   1     -43.204  12.939  21.404  0.00  0.00    -0.301 N 
ATOM     29  C   UNL d   1     -43.136  12.166  21.677  0.00  0.00     0.100 C 
ATOM     30  C   UNL d   1     -43.948  13.280  21.304  0.00  0.00     0.100 C 
ENDBRANCH  25  28
ENDBRANCH   1  22
TORSDOF 8
ENDMDL
MODEL 3
REMARK VINA RESULT:      -2.1      2.200      4.468
REMARK  8 active torsions:
REMARK  status: ('A' for Active; 'I' for Inactive)
REMARK    1  A    between atoms: C_2  and  P_1 
REMARK    2  A    between atoms: O_4  and  P_1 
REMARK    3  A    between atoms: C_5  and  P_1 
REMARK    4  A    between atoms: C_3  and  C_2 
REMARK    5  A    between atoms: C_20  and  O_4 
REMARK    6  A    between atoms: O_19  and  C_8 
REMARK    7  A    between atoms: N_11  and  C_9 
REMARK    8  A    between atoms: O_21  and  C_10 
ROOT
ATOM      1  P   UNL d   1     -39.258  14.690  20.772  0.00  0.00     0.307 P 
ATOM      2  O   UNL d   1     -38.540  14.413  21.064  0.00  0.00    -0.277 OA
ENDROOT
BRANCH   1   3
ATOM      3  C   UNL d   1     -39.975  14.967  20.481  0.00  0.00     0.253 C 
ATOM      4  O   UNL d   1     -40.001  15.624  19.972  0.00  0.00    -0.281 OA
BRANCH   3   5
ATOM      5  C   UNL d   1     -40.687  14.593  20.691  0.00  0.00     0.046 A 
ATOM      6  C   UNL d   1     -41.377  15.032  20.780  0.00  0.00     0.030 A 
ATOM      7  C   UNL d   1     -42.075  14.659  20.987  0.00  0.00     0.116 A 
ATOM      8  C   UNL d   1     -42.104  13.837  21.111  0.00  0.00     0.116 A 
ATOM      9  C   UNL d   1     -41.404  13.393  21.020  0.00  0.00     0.026 A 
ATOM     10  C   UNL d   1     -40.696  13.773  20.810  0.00  0.00     0.005 A 
BRANCH   7  11
ATOM     11  O   UNL d   1     -42.763  15.100  21.076  0.00  0.00    -0.326 OA
ATOM     12  C   UNL d   1     -42.735  15.922  21.016  0.00  0.00     0.181 C 
ENDBRANCH   7  11
BRANCH   8  13
ATOM     13  O   UNL d   1     -42.803  13.461  21.319  0.00  0.00    -0.326 OA
ATOM     14  C   UNL d   1     -42.799  12.646  21.433  0.00  0.00     0.181 C 
ENDBRANCH   8  13
ENDBRANCH   3   5
ENDBRANCH   1   3
BRANCH   1  15
ATOM     15  O   UNL d   1     -39.528  14.798  21.541  0.00  0.00    -0.281 OA
BRANCH  15  16
ATOM     16  C   UNL d   1     -39.000  14.971  22.145  0.00  0.00     0.101 A 
ATOM     17  C   UNL d   1     -38.661  14.356  22.588  0.00  0.00     0.025 A 
ATOM     18  C   UNL d   1     -38.136  14.526  23.189  0.00  0.00     0.002 A 
ATOM     19  C   UNL d   1     -37.941  15.307  23.358  0.00  0.00     0.000 A 
ATOM     20  C   UNL d   1     -38.273  15.922  22.923  0.00  0.00     0.002 A 
ATOM     21  C   UNL d   1     -38.808  15.750  22.311  0.00  0.00     0.025 A 
ENDBRANCH  15  16
ENDBRANCH   1  15
BRANCH   1  22
ATOM     22  C   UNL d   1     -38.984  14.580  19.996  0.00  0.00     0.061 A 
ATOM     23  C   UNL d   1     -38.963  13.821  19.673  0.00  0.00     0.007 A 
ATOM     24  C   UNL d   1     -38.688  13.710  18.894  0.00  0.00     0.018 A 
ATOM     25  C   UNL d   1     -38.440  14.352  18.448  0.00  0.00     0.064 A 
ATOM     26  C   UNL d   1     -38.464  15.112  18.778  0.00  0.00     0.018 A 
ATOM     27  C   UNL d   1     -38.739  15.223  19.559  0.00  0.00     0.007 A 
BRANCH  25  28
ATOM     28  N   UNL d   1     -38.168  14.242  17.675  0.00  0.00    -0.301 N 
ATOM     29  C   UNL d   1     -37.940  13.493  17.422  0.00  0.00     0.100 C 
ATOM     30  C   UNL d   1     -38.126  14.885  17.161  0.00  0.00     0.100 C 
ENDBRANCH  25  28
ENDBRANCH   1  22
TORSDOF 8
ENDMDL
MODEL 4
REMARK VINA RESULT:      -1.8      8.737     10.278
REMARK  8 active torsions:
REMARK  status: ('A' for Active; 'I' for Inactive)
REMARK    1  A    between atoms: C_2  and  P_1 
REMARK    2  A    between atoms: O_4  and  P_1 
REMARK    3  A    between atoms: C_5  and  P_1 
REMARK    4  A    between atoms: C_3  and  C_2 
REMARK    5  A    between atoms: C_20  and  O_4 
REMARK    6  A    between atoms: O_19  and  C_8 
REMARK    7  A    between atoms: N_11  and  C_9 
REMARK    8  A    between atoms: O_21  and  C_10 
ROOT
ATOM      1  P   UNL d   1     -47.075  12.803  22.937  0.00  0.00     0.307 P 
ATOM      2  O   UNL d   1     -46.681  13.344  23.417  0.00  0.00    -0.277 OA
ENDROOT
BRANCH   1   3
ATOM      3  C   UNL d   1     -47.468  12.263  22.458  0.00  0.00     0.253 C 
ATOM      4  O   UNL d   1     -47.063  11.857  21.855  0.00  0.00    -0.281 OA
BRANCH   3   5
ATOM      5  C   UNL d   1     -48.278  12.114  22.569  0.00  0.00     0.046 A 
ATOM      6  C   UNL d   1     -48.806  12.195  21.942  0.00  0.00     0.030 A 
ATOM      7  C   UNL d   1     -49.601  12.047  22.057  0.00  0.00     0.116 A 
ATOM      8  C   UNL d   1     -49.894  11.814  22.800  0.00  0.00     0.116 A 
ATOM      9  C   UNL d   1     -49.359  11.733  23.434  0.00  0.00     0.026 A 
ATOM     10  C   UNL d   1     -48.551  11.883  23.316  0.00  0.00     0.005 A 
BRANCH   7  11
ATOM     11  O   UNL d   1     -50.126  12.129  21.429  0.00  0.00    -0.326 OA
ATOM     12  C   UNL d   1     -50.293  12.877  21.127  0.00  0.00     0.181 C 
ENDBRANCH   7  11
BRANCH   8  13
ATOM     13  O   UNL d   1     -50.693  11.666  22.917  0.00  0.00    -0.326 OA
ATOM     14  C   UNL d   1     -50.939  11.353  23.637  0.00  0.00     0.181 C 
ENDBRANCH   8  13
ENDBRANCH   3   5
ENDBRANCH   1   3
BRANCH   1  15
ATOM     15  O   UNL d   1     -47.694  13.336  22.846  0.00  0.00    -0.281 OA
BRANCH  15  16
ATOM     16  C   UNL d   1     -47.546  14.142  22.815  0.00  0.00     0.101 A 
ATOM     17  C   UNL d   1     -48.176  14.681  22.849  0.00  0.00     0.025 A 
ATOM     18  C   UNL d   1     -48.031  15.484  22.817  0.00  0.00     0.002 A 
ATOM     19  C   UNL d   1     -47.260  15.761  22.752  0.00  0.00     0.000 A 
ATOM     20  C   UNL d   1     -46.630  15.232  22.718  0.00  0.00     0.002 A 
ATOM     21  C   UNL d   1     -46.777  14.415  22.749  0.00  0.00     0.025 A 
ENDBRANCH  15  16
ENDBRANCH   1  15
BRANCH   1  22
ATOM     22  C   UNL d   1     -46.449  12.266  23.030  0.00  0.00     0.061 A 
ATOM     23  C   UNL d   1     -45.787  12.320  22.540  0.00  0.00     0.007 A 
ATOM     24  C   UNL d   1     -45.158  11.780  22.632  0.00  0.00     0.018 A 
ATOM     25  C   UNL d   1     -45.194  11.197  23.207  0.00  0.00     0.064 A 
ATOM     26  C   UNL d   1     -45.862  11.149  23.696  0.00  0.00     0.018 A 
ATOM     27  C   UNL d   1     -46.492  11.689  23.604  0.00  0.00     0.007 A 
BRANCH  25  28
ATOM     28  N   UNL d   1     -44.571  10.663  23.299  0.00  0.00    -0.301 N 
ATOM     29  C   UNL d   1     -43.801  10.895  23.123  0.00  0.00     0.100 C 
ATOM     30  C   UNL d   1     -44.723   9.898  23.566  0.00  0.00     0.100 C 
ENDBRANCH  25  28
ENDBRANCH   1  22
TORSDOF 8
ENDMDL
