MODEL 1
REMARK VINA RESULT:      12.7      0.000      0.000
REMARK  1 active torsions:
REMARK  status: ('A' for Active; 'I' for Inactive)
REMARK    1  A    between atoms: C_6  and  C_1 
ROOT
ATOM      1  C   UNL d   1     -57.546 -98.823 -44.630  0.00  0.00     0.168 A 
ATOM      2  C   UNL d   1     -58.301 -98.817 -44.301  0.00  0.00     0.045 A 
ATOM      3  N   UNL d   1     -57.619 -98.784 -45.451  0.00  0.00    -0.142 NA
ATOM      4  N   UNL d   1     -58.426 -98.755 -45.632  0.00  0.00    -0.148 NA
ATOM      5  C   UNL d   1     -58.850 -98.776 -44.910  0.00  0.00     0.105 A 
ATOM      6  C   UNL d   1     -58.566 -98.845 -43.519  0.00  0.00     0.003 A 
ATOM      7  C   UNL d   1     -59.661 -98.761 -44.757  0.00  0.00     0.021 A 
ATOM      8  C   UNL d   1     -59.372 -98.831 -43.354  0.00  0.00     0.000 A 
ATOM      9  C   UNL d   1     -59.921 -98.789 -43.974  0.00  0.00     0.002 A 
ATOM     10  C   UNL d   1     -59.638 -98.858 -42.572  0.00  0.00     0.000 C 
ENDROOT
BRANCH   1  11
ATOM     11  C   UNL d   1     -56.838 -98.860 -44.211  0.00  0.00     0.231 C 
ATOM     12  O   UNL d   1     -56.832 -98.757 -43.390  0.00  0.00    -0.643 OA
ATOM     13  O   UNL d   1     -56.128 -99.000 -44.611  0.00  0.00    -0.643 OA
ENDBRANCH   1  11
TORSDOF 1
ENDMDL
