MODEL 1
REMARK VINA RESULT:      70.8      0.000      0.000
REMARK  7 active torsions:
REMARK  status: ('A' for Active; 'I' for Inactive)
REMARK    1  A    between atoms: C_6  and  C_1 
REMARK    2  A    between atoms: C_8  and  N_3 
REMARK    3  A    between atoms: O_7  and  C_6 
REMARK    4  A    between atoms: C_9  and  O_7 
REMARK    5  A    between atoms: C_19  and  C_8 
REMARK    6  A    between atoms: O_16  and  C_10 
REMARK    7  A    between atoms: O_18  and  C_19 
ROOT
ATOM      1  C   UNL d   1      60.389  48.963  50.896  0.00  0.00     0.173 A 
ATOM      2  N   UNL d   1      60.834  49.105  51.585  0.00  0.00    -0.225 NA
ATOM      3  N   UNL d   1      59.579  49.086  51.078  0.00  0.00    -0.286 N 
ATOM      4  C   UNL d   1      59.528  49.306  51.886  0.00  0.00     0.083 A 
ATOM      5  C   UNL d   1      60.305  49.315  52.192  0.00  0.00     0.099 A 
ATOM      6  C   UNL d   1      58.896  49.496  52.380  0.00  0.00     0.019 A 
ATOM      7  C   UNL d   1      60.434  49.514  52.986  0.00  0.00     0.021 A 
ATOM      8  C   UNL d   1      59.026  49.694  53.170  0.00  0.00     0.002 A 
ATOM      9  C   UNL d   1      59.796  49.703  53.473  0.00  0.00     0.002 A 
ENDROOT
BRANCH   1  10
ATOM     10  C   UNL d   1      60.869  48.750  50.264  0.00  0.00     0.160 C 
BRANCH  10  11
ATOM     11  O   UNL d   1      61.516  48.247  50.384  0.00  0.00    -0.302 OA
BRANCH  11  12
ATOM     12  C   UNL d   1      61.482  47.460  50.141  0.00  0.00     0.100 A 
ATOM     13  C   UNL d   1      61.295  47.288  49.358  0.00  0.00     0.027 A 
ATOM     14  C   UNL d   1      61.260  46.501  49.113  0.00  0.00     0.026 A 
ATOM     15  C   UNL d   1      61.414  45.890  49.651  0.00  0.00     0.094 A 
ATOM     16  C   UNL d   1      61.600  46.069  50.430  0.00  0.00     0.026 A 
ATOM     17  C   UNL d   1      61.634  46.856  50.675  0.00  0.00     0.027 A 
BRANCH  15  18
ATOM     18  O   UNL d   1      61.379  45.106  49.407  0.00  0.00    -0.328 OA
ATOM     19  C   UNL d   1      61.961  44.798  48.908  0.00  0.00     0.181 C 
ENDBRANCH  15  18
ENDBRANCH  11  12
ENDBRANCH  10  11
ENDBRANCH   1  10
BRANCH   3  20
ATOM     20  C   UNL d   1      58.946  49.008  50.560  0.00  0.00     0.108 C 
BRANCH  20  21
ATOM     21  C   UNL d   1      58.450  49.653  50.406  0.00  0.00     0.135 C 
BRANCH  21  22
ATOM     22  O   UNL d   1      57.728  49.535  50.037  0.00  0.00    -0.325 OA
ATOM     23  C   UNL d   1      57.642  49.703  49.237  0.00  0.00     0.182 C 
ENDBRANCH  21  22
ENDBRANCH  20  21
ENDBRANCH   3  20
TORSDOF 7
ENDMDL
MODEL 2
REMARK VINA RESULT:      71.2      1.841      4.548
REMARK  7 active torsions:
REMARK  status: ('A' for Active; 'I' for Inactive)
REMARK    1  A    between atoms: C_6  and  C_1 
REMARK    2  A    between atoms: C_8  and  N_3 
REMARK    3  A    between atoms: O_7  and  C_6 
REMARK    4  A    between atoms: C_9  and  O_7 
REMARK    5  A    between atoms: C_19  and  C_8 
REMARK    6  A    between atoms: O_16  and  C_10 
REMARK    7  A    between atoms: O_18  and  C_19 
ROOT
ATOM      1  C   UNL d   1      59.649  49.254  51.642  0.00  0.00     0.173 A 
ATOM      2  N   UNL d   1      60.436  49.148  51.892  0.00  0.00    -0.225 NA
ATOM      3  N   UNL d   1      59.564  48.892  50.890  0.00  0.00    -0.286 N 
ATOM      4  C   UNL d   1      60.306  48.562  50.678  0.00  0.00     0.083 A 
ATOM      5  C   UNL d   1      60.838  48.724  51.300  0.00  0.00     0.099 A 
ATOM      6  C   UNL d   1      60.569  48.144  50.018  0.00  0.00     0.019 A 
ATOM      7  C   UNL d   1      61.623  48.465  51.250  0.00  0.00     0.021 A 
ATOM      8  C   UNL d   1      61.351  47.887  49.970  0.00  0.00     0.002 A 
ATOM      9  C   UNL d   1      61.879  48.047  50.586  0.00  0.00     0.002 A 
ENDROOT
BRANCH   1  10
ATOM     10  C   UNL d   1      59.209  49.670  52.196  0.00  0.00     0.160 C 
BRANCH  10  11
ATOM     11  O   UNL d   1      59.460  49.707  52.985  0.00  0.00    -0.302 OA
BRANCH  11  12
ATOM     12  C   UNL d   1      58.909  49.704  53.598  0.00  0.00     0.100 A 
ATOM     13  C   UNL d   1      58.106  49.707  53.419  0.00  0.00     0.027 A 
ATOM     14  C   UNL d   1      57.554  49.704  54.031  0.00  0.00     0.026 A 
ATOM     15  C   UNL d   1      57.807  49.696  54.821  0.00  0.00     0.094 A 
ATOM     16  C   UNL d   1      58.609  49.693  54.993  0.00  0.00     0.026 A 
ATOM     17  C   UNL d   1      59.161  49.696  54.380  0.00  0.00     0.027 A 
BRANCH  15  18
ATOM     18  O   UNL d   1      57.256  49.693  55.431  0.00  0.00    -0.328 OA
ATOM     19  C   UNL d   1      57.366  49.208  56.090  0.00  0.00     0.181 C 
ENDBRANCH  15  18
ENDBRANCH  11  12
ENDBRANCH  10  11
ENDBRANCH   1  10
BRANCH   3  20
ATOM     20  C   UNL d   1      58.878  48.863  50.438  0.00  0.00     0.108 C 
BRANCH  20  21
ATOM     21  C   UNL d   1      58.136  48.848  50.805  0.00  0.00     0.135 C 
BRANCH  21  22
ATOM     22  O   UNL d   1      57.470  49.090  50.393  0.00  0.00    -0.325 OA
ATOM     23  C   UNL d   1      57.009  49.707  50.682  0.00  0.00     0.182 C 
ENDBRANCH  21  22
ENDBRANCH  20  21
ENDBRANCH   3  20
TORSDOF 7
ENDMDL
MODEL 3
REMARK VINA RESULT:      72.4      1.268      2.331
REMARK  7 active torsions:
REMARK  status: ('A' for Active; 'I' for Inactive)
REMARK    1  A    between atoms: C_6  and  C_1 
REMARK    2  A    between atoms: C_8  and  N_3 
REMARK    3  A    between atoms: O_7  and  C_6 
REMARK    4  A    between atoms: C_9  and  O_7 
REMARK    5  A    between atoms: C_19  and  C_8 
REMARK    6  A    between atoms: O_16  and  C_10 
REMARK    7  A    between atoms: O_18  and  C_19 
ROOT
ATOM      1  C   UNL d   1      60.303  48.380  50.772  0.00  0.00     0.173 A 
ATOM      2  N   UNL d   1      59.670  48.065  50.333  0.00  0.00    -0.225 NA
ATOM      3  N   UNL d   1      60.024  49.056  51.184  0.00  0.00    -0.286 N 
ATOM      4  C   UNL d   1      59.212  49.155  50.995  0.00  0.00     0.083 A 
ATOM      5  C   UNL d   1      59.001  48.541  50.469  0.00  0.00     0.099 A 
ATOM      6  C   UNL d   1      58.643  49.707  51.221  0.00  0.00     0.019 A 
ATOM      7  C   UNL d   1      58.226  48.491  50.181  0.00  0.00     0.021 A 
ATOM      8  C   UNL d   1      57.872  49.656  50.933  0.00  0.00     0.002 A 
ATOM      9  C   UNL d   1      57.663  49.048  50.413  0.00  0.00     0.002 A 
ENDROOT
BRANCH   1  10
ATOM     10  C   UNL d   1      60.990  47.943  50.670  0.00  0.00     0.160 C 
BRANCH  10  11
ATOM     11  O   UNL d   1      61.246  47.742  49.908  0.00  0.00    -0.302 OA
BRANCH  11  12
ATOM     12  C   UNL d   1      61.513  46.978  49.746  0.00  0.00     0.100 A 
ATOM     13  C   UNL d   1      62.243  46.876  49.381  0.00  0.00     0.027 A 
ATOM     14  C   UNL d   1      62.512  46.113  49.219  0.00  0.00     0.026 A 
ATOM     15  C   UNL d   1      62.049  45.456  49.423  0.00  0.00     0.094 A 
ATOM     16  C   UNL d   1      61.322  45.566  49.787  0.00  0.00     0.026 A 
ATOM     17  C   UNL d   1      61.053  46.329  49.949  0.00  0.00     0.027 A 
BRANCH  15  18
ATOM     18  O   UNL d   1      62.317  44.696  49.261  0.00  0.00    -0.328 OA
ATOM     19  C   UNL d   1      61.785  44.104  49.039  0.00  0.00     0.181 C 
ENDBRANCH  15  18
ENDBRANCH  11  12
ENDBRANCH  10  11
ENDBRANCH   1  10
BRANCH   3  20
ATOM     20  C   UNL d   1      60.462  49.537  51.685  0.00  0.00     0.108 C 
BRANCH  20  21
ATOM     21  C   UNL d   1      61.068  49.216  52.149  0.00  0.00     0.135 C 
BRANCH  21  22
ATOM     22  O   UNL d   1      61.630  49.708  52.486  0.00  0.00    -0.325 OA
ATOM     23  C   UNL d   1      61.933  49.536  53.232  0.00  0.00     0.182 C 
ENDBRANCH  21  22
ENDBRANCH  20  21
ENDBRANCH   3  20
TORSDOF 7
ENDMDL
