MODEL 1
REMARK VINA RESULT:      -6.0      0.000      0.000
REMARK  4 active torsions:
REMARK  status: ('A' for Active; 'I' for Inactive)
REMARK       I    between atoms: C_3  and  N_1 
REMARK    1  A    between atoms: C_9  and  C_3 
REMARK    2  A    between atoms: S_8  and  C_9 
REMARK    3  A    between atoms: C_12  and  S_8 
REMARK    4  A    between atoms: C_11  and  C_12 
ROOT
ATOM      1  N   UNL d   1     -41.444-122.963 -53.217  0.00  0.00    -0.274 N 
ATOM      2  C   UNL d   1     -41.697-122.561 -53.891  0.00  0.00     0.067 A 
ATOM      3  C   UNL d   1     -41.498-122.690 -52.431  0.00  0.00     0.259 C 
ATOM      4  C   UNL d   1     -41.124-123.691 -53.453  0.00  0.00     0.083 A 
ATOM      5  C   UNL d   1     -41.537-123.033 -54.546  0.00  0.00     0.018 A 
ATOM      6  O   UNL d   1     -41.832-121.946 -52.265  0.00  0.00    -0.267 OA
ATOM      7  C   UNL d   1     -41.186-123.726 -54.272  0.00  0.00     0.021 A 
ATOM      8  C   UNL d   1     -42.052-121.825 -53.992  0.00  0.00     0.018 A 
ATOM      9  C   UNL d   1     -41.727-122.779 -55.298  0.00  0.00     0.002 A 
ATOM     10  C   UNL d   1     -42.246-121.560 -54.737  0.00  0.00     0.002 A 
ATOM     11  C   UNL d   1     -42.088-122.032 -55.402  0.00  0.00     0.000 A 
ENDROOT
BRANCH   3  12
ATOM     12  C   UNL d   1     -41.217-123.162 -51.803  0.00  0.00     0.125 C 
BRANCH  12  13
ATOM     13  S   UNL d   1     -41.491-123.035 -51.038  0.00  0.00    -0.094 SA
BRANCH  13  14
ATOM     14  C   UNL d   1     -41.320-123.587 -50.444  0.00  0.00     0.035 C 
BRANCH  14  15
ATOM     15  C   UNL d   1     -41.700-123.529 -49.706  0.00  0.00     0.006 A 
ATOM     16  C   UNL d   1     -41.300-123.192 -49.068  0.00  0.00     0.001 A 
ATOM     17  C   UNL d   1     -41.676-123.134 -48.334  0.00  0.00     0.000 A 
ATOM     18  C   UNL d   1     -42.450-123.417 -48.253  0.00  0.00     0.000 A 
ATOM     19  C   UNL d   1     -42.846-123.752 -48.888  0.00  0.00     0.000 A 
ATOM     20  C   UNL d   1     -42.474-123.810 -49.615  0.00  0.00     0.001 A 
ENDBRANCH  14  15
ENDBRANCH  13  14
ENDBRANCH  12  13
ENDBRANCH   3  12
TORSDOF 4
ENDMDL
MODEL 2
REMARK VINA RESULT:      -5.2      0.976      4.863
REMARK  4 active torsions:
REMARK  status: ('A' for Active; 'I' for Inactive)
REMARK       I    between atoms: C_3  and  N_1 
REMARK    1  A    between atoms: C_9  and  C_3 
REMARK    2  A    between atoms: S_8  and  C_9 
REMARK    3  A    between atoms: C_12  and  S_8 
REMARK    4  A    between atoms: C_11  and  C_12 
ROOT
ATOM      1  N   UNL d   1     -41.779-122.945 -50.573  0.00  0.00    -0.274 N 
ATOM      2  C   UNL d   1     -42.230-123.013 -49.886  0.00  0.00     0.067 A 
ATOM      3  C   UNL d   1     -41.949-122.457 -51.228  0.00  0.00     0.259 C 
ATOM      4  C   UNL d   1     -41.123-123.447 -50.504  0.00  0.00     0.083 A 
ATOM      5  C   UNL d   1     -41.860-123.554 -49.389  0.00  0.00     0.018 A 
ATOM      6  O   UNL d   1     -42.628-121.976 -51.231  0.00  0.00    -0.267 OA
ATOM      7  C   UNL d   1     -41.180-123.817 -49.773  0.00  0.00     0.021 A 
ATOM      8  C   UNL d   1     -42.931-122.652 -49.650  0.00  0.00     0.018 A 
ATOM      9  C   UNL d   1     -42.180-123.737 -48.661  0.00  0.00     0.002 A 
ATOM     10  C   UNL d   1     -43.261-122.826 -48.926  0.00  0.00     0.002 A 
ATOM     11  C   UNL d   1     -42.892-123.371 -48.420  0.00  0.00     0.000 A 
ENDROOT
BRANCH   3  12
ATOM     12  C   UNL d   1     -41.438-122.446 -51.887  0.00  0.00     0.125 C 
BRANCH  12  13
ATOM     13  S   UNL d   1     -41.729-122.250 -52.630  0.00  0.00    -0.094 SA
BRANCH  13  14
ATOM     14  C   UNL d   1     -41.320-122.496 -53.309  0.00  0.00     0.035 C 
BRANCH  14  15
ATOM     15  C   UNL d   1     -41.666-122.393 -54.058  0.00  0.00     0.006 A 
ATOM     16  C   UNL d   1     -41.714-123.034 -54.576  0.00  0.00     0.001 A 
ATOM     17  C   UNL d   1     -42.057-122.933 -55.321  0.00  0.00     0.000 A 
ATOM     18  C   UNL d   1     -42.349-122.188 -55.534  0.00  0.00     0.000 A 
ATOM     19  C   UNL d   1     -42.301-121.552 -55.019  0.00  0.00     0.000 A 
ATOM     20  C   UNL d   1     -41.961-121.651 -54.281  0.00  0.00     0.001 A 
ENDBRANCH  14  15
ENDBRANCH  13  14
ENDBRANCH  12  13
ENDBRANCH   3  12
TORSDOF 4
ENDMDL
