MODEL 1
REMARK VINA RESULT:     109.9      0.000      0.000
REMARK  5 active torsions:
REMARK  status: ('A' for Active; 'I' for Inactive)
REMARK    1  A    between atoms: C_14  and  N_4 
REMARK    2  A    between atoms: C_15  and  C_9 
REMARK    3  A    between atoms: O_20  and  C_12 
REMARK    4  A    between atoms: O_21  and  C_13 
REMARK    5  A    between atoms: C_18  and  C_14 
ROOT
ATOM      1  C   UNL d   1     -49.659  27.537  34.614  0.00  0.00     0.056 A 
ATOM      2  C   UNL d   1     -49.224  28.216  34.417  0.00  0.00     0.107 A 
ATOM      3  C   UNL d   1     -48.798  28.616  34.995  0.00  0.00     0.038 A 
ATOM      4  N   UNL d   1     -49.232  27.675  35.967  0.00  0.00    -0.304 N 
ATOM      5  N   UNL d   1     -49.325  28.350  33.607  0.00  0.00    -0.148 NA
ATOM      6  C   UNL d   1     -49.664  27.265  35.394  0.00  0.00     0.083 A 
ATOM      7  N   UNL d   1     -49.818  27.760  33.306  0.00  0.00    -0.148 NA
ATOM      8  C   UNL d   1     -48.802  28.344  35.775  0.00  0.00     0.068 A 
ATOM      9  C   UNL d   1     -50.027  27.256  33.923  0.00  0.00     0.106 A 
ATOM     10  C   UNL d   1     -48.376  28.749  36.346  0.00  0.00     0.044 A 
ATOM     11  C   UNL d   1     -48.367  29.289  34.796  0.00  0.00     0.029 A 
ATOM     12  C   UNL d   1     -47.946  29.418  36.154  0.00  0.00     0.118 A 
ATOM     13  C   UNL d   1     -47.941  29.690  35.374  0.00  0.00     0.116 A 
ENDROOT
BRANCH   4  14
ATOM     14  C   UNL d   1     -49.237  27.400  36.753  0.00  0.00     0.080 C 
BRANCH  14  15
ATOM     15  C   UNL d   1     -49.950  27.217  37.122  0.00  0.00     0.018 A 
ATOM     16  C   UNL d   1     -50.243  27.706  37.716  0.00  0.00     0.002 A 
ATOM     17  C   UNL d   1     -50.961  27.524  38.090  0.00  0.00     0.000 A 
ATOM     18  C   UNL d   1     -51.385  26.848  37.862  0.00  0.00     0.000 A 
ATOM     19  C   UNL d   1     -51.086  26.357  37.262  0.00  0.00     0.000 A 
ATOM     20  C   UNL d   1     -52.105  26.659  38.231  0.00  0.00     0.000 C 
ATOM     21  C   UNL d   1     -50.373  26.540  36.894  0.00  0.00     0.002 A 
ENDBRANCH  14  15
ENDBRANCH   4  14
BRANCH   9  22
ATOM     22  C   UNL d   1     -50.521  26.612  33.775  0.00  0.00     0.020 A 
ATOM     23  C   UNL d   1     -51.338  26.701  33.842  0.00  0.00     0.004 A 
ATOM     24  C   UNL d   1     -51.841  26.059  33.695  0.00  0.00     0.030 A 
ATOM     25  C   UNL d   1     -51.513  25.320  33.478  0.00  0.00     0.140 A 
ATOM     26  C   UNL d   1     -50.692  25.238  33.413  0.00  0.00     0.030 A 
ATOM     27  F   UNL d   1     -51.999  24.666  33.327  0.00  0.00    -0.204 F 
ATOM     28  C   UNL d   1     -50.198  25.881  33.561  0.00  0.00     0.004 A 
ENDBRANCH   9  22
BRANCH  12  29
ATOM     29  O   UNL d   1     -47.512  29.828  36.740  0.00  0.00    -0.326 OA
ATOM     30  C   UNL d   1     -46.744  29.590  36.932  0.00  0.00     0.181 C 
ENDBRANCH  12  29
BRANCH  13  31
ATOM     31  O   UNL d   1     -47.504  30.372  35.178  0.00  0.00    -0.326 OA
ATOM     32  C   UNL d   1     -47.894  31.075  34.989  0.00  0.00     0.181 C 
ENDBRANCH  13  31
TORSDOF 5
ENDMDL
