MODEL 1
REMARK VINA RESULT:      28.2      0.000      0.000
REMARK  5 active torsions:
REMARK  status: ('A' for Active; 'I' for Inactive)
REMARK    1  A    between atoms: C_2  and  S_1 
REMARK    2  A    between atoms: N_5  and  S_1 
REMARK    3  A    between atoms: O_14  and  C_4 
REMARK    4  A    between atoms: C_11  and  N_5 
REMARK    5  A    between atoms: C_15  and  C_11 
ROOT
ATOM      1  C   UNL d   1     -51.112  25.348  33.408  0.00  0.00     0.128 A 
ATOM      2  C   UNL d   1     -50.703  24.634  33.419  0.00  0.00     0.026 A 
ATOM      3  C   UNL d   1     -51.934  25.350  33.364  0.00  0.00     0.106 A 
ATOM      4  C   UNL d   1     -51.116  23.921  33.386  0.00  0.00     0.059 A 
ATOM      5  C   UNL d   1     -52.347  24.637  33.331  0.00  0.00     0.026 A 
ATOM      6  C   UNL d   1     -51.938  23.921  33.342  0.00  0.00     0.013 A 
ATOM      7 CL   UNL d   1     -50.707  23.206  33.397  0.00  0.00    -0.082 Cl
ATOM      8  C   UNL d   1     -52.352  23.208  33.310  0.00  0.00     0.001 C 
ENDROOT
BRANCH   1   9
ATOM      9  S   UNL d   1     -50.699  26.061  33.440  0.00  0.00     0.287 S 
ATOM     10  O   UNL d   1     -49.992  25.658  33.306  0.00  0.00    -0.198 OA
ATOM     11  O   UNL d   1     -51.406  26.465  33.574  0.00  0.00    -0.198 OA
BRANCH   9  12
ATOM     12  N   UNL d   1     -50.285  26.775  33.473  0.00  0.00    -0.155 NA
BRANCH  12  13
ATOM     13  C   UNL d   1     -49.559  26.814  33.860  0.00  0.00     0.137 C 
BRANCH  13  14
ATOM     14  C   UNL d   1     -49.267  27.541  34.119  0.00  0.00     0.120 A 
ATOM     15  O   UNL d   1     -48.817  27.671  34.798  0.00  0.00    -0.304 OA
ATOM     16  C   UNL d   1     -48.647  28.472  34.841  0.00  0.00     0.123 A 
ATOM     17  C   UNL d   1     -48.988  28.850  34.192  0.00  0.00     0.029 A 
ATOM     18  C   UNL d   1     -49.371  28.267  33.747  0.00  0.00     0.028 A 
ENDBRANCH  13  14
ENDBRANCH  12  13
ENDBRANCH   9  12
ENDBRANCH   1   9
BRANCH   3  19
ATOM     19  O   UNL d   1     -52.347  26.066  33.353  0.00  0.00    -0.327 OA
ATOM     20  C   UNL d   1     -53.169  26.068  33.307  0.00  0.00     0.181 C 
ENDBRANCH   3  19
TORSDOF 5
ENDMDL
