MODEL 1
REMARK VINA RESULT:      23.1      0.000      0.000
REMARK  1 active torsions:
REMARK  status: ('A' for Active; 'I' for Inactive)
REMARK    1  A    between atoms: C_7  and  N_1 
ROOT
ATOM      1  N   UNL d   1      46.078 -17.502  43.612  0.00  0.00    -0.242 N 
ATOM      2  C   UNL d   1      46.172 -17.555  42.821  0.00  0.00     0.267 A 
ATOM      3  C   UNL d   1      46.131 -18.164  44.140  0.00  0.00     0.267 A 
ATOM      4  C   UNL d   1      46.333 -18.307  42.502  0.00  0.00     0.057 A 
ATOM      5  C   UNL d   1      46.291 -18.884  43.782  0.00  0.00     0.057 A 
ATOM      6  C   UNL d   1      46.388 -18.937  42.966  0.00  0.00     0.009 A 
ATOM      7  O   UNL d   1      46.034 -18.111  44.954  0.00  0.00    -0.267 OA
ATOM      8  O   UNL d   1      46.115 -16.893  42.331  0.00  0.00    -0.267 OA
ATOM      9  C   UNL d   1      46.549 -19.689  42.641  0.00  0.00     0.000 A 
ATOM     10  C   UNL d   1      46.348 -19.546  44.272  0.00  0.00     0.005 A 
ATOM     11  C   UNL d   1      46.432 -18.360  41.674  0.00  0.00     0.005 A 
ATOM     12  C   UNL d   1      46.505 -20.272  43.952  0.00  0.00     0.000 A 
ATOM     13  C   UNL d   1      46.590 -19.080  41.324  0.00  0.00     0.000 A 
ATOM     14  C   UNL d   1      46.602 -20.325  43.137  0.00  0.00     0.000 A 
ATOM     15  C   UNL d   1      46.647 -19.754  41.845  0.00  0.00     0.000 A 
ENDROOT
BRANCH   1  16
ATOM     16  C   UNL d   1      45.917 -16.751  43.930  0.00  0.00     0.070 A 
ATOM     17  C   UNL d   1      46.458 -16.120  43.846  0.00  0.00     0.021 A 
ATOM     18  C   UNL d   1      46.292 -15.398  44.159  0.00  0.00     0.043 A 
ATOM     19  C   UNL d   1      45.556 -15.244  44.589  0.00  0.00     0.196 A 
ATOM     20  C   UNL d   1      45.011 -15.862  44.678  0.00  0.00     0.043 A 
ATOM     21  O   UNL d   1      45.333 -14.488  44.941  0.00  0.00    -0.287 OA
ATOM     22  C   UNL d   1      45.200 -16.615  44.345  0.00  0.00     0.021 A 
ENDBRANCH   1  16
TORSDOF 1
ENDMDL
