MODEL 1
REMARK VINA RESULT:      -0.3      0.000      0.000
REMARK  4 active torsions:
REMARK  status: ('A' for Active; 'I' for Inactive)
REMARK    1  A    between atoms: N_10  and  C_5 
REMARK    2  A    between atoms: C_12  and  N_6 
REMARK    3  A    between atoms: C_19  and  N_11 
REMARK    4  A    between atoms: C_20  and  C_12 
ROOT
ATOM      1  C   UNL d   1      58.041  -1.821  30.041  0.00  0.00     0.191 A 
ATOM      2  C   UNL d   1      58.409  -1.075  30.026  0.00  0.00     0.173 A 
ATOM      3  N   UNL d   1      57.454  -1.784  30.622  0.00  0.00    -0.042 NA
ATOM      4  N   UNL d   1      58.303  -2.436  29.512  0.00  0.00    -0.240 N 
ATOM      5  C   UNL d   1      57.456  -1.004  30.973  0.00  0.00     0.722 A 
ATOM      6  N   UNL d   1      58.052  -0.606  30.580  0.00  0.00    -0.133 N 
ATOM      7  N   UNL d   1      59.259  -1.562  28.989  0.00  0.00    -0.223 N 
ATOM      8  C   UNL d   1      58.898  -2.324  28.991  0.00  0.00     0.343 A 
ATOM      9  C   UNL d   1      59.020  -0.961  29.491  0.00  0.00     0.288 A 
ATOM     10  O   UNL d   1      59.154  -2.927  28.473  0.00  0.00    -0.245 OA
ATOM     11  O   UNL d   1      59.397  -0.224  29.463  0.00  0.00    -0.265 OA
ATOM     12  C   UNL d   1      57.937  -3.163  29.535  0.00  0.00     0.105 C 
ATOM     13  C   UNL d   1      59.894  -1.393  28.457  0.00  0.00     0.107 C 
ENDROOT
BRANCH   5  14
ATOM     14  N   UNL d   1      56.970  -0.681  31.585  0.00  0.00    -0.136 N 
ATOM     15  C   UNL d   1      56.762  -1.164  32.236  0.00  0.00     0.117 A 
ATOM     16  C   UNL d   1      56.280  -0.845  32.845  0.00  0.00     0.100 A 
ATOM     17  N   UNL d   1      56.010  -0.048  32.799  0.00  0.00    -0.301 N 
ATOM     18  C   UNL d   1      56.228   0.423  32.139  0.00  0.00     0.100 A 
ATOM     19  C   UNL d   1      56.707   0.112  31.530  0.00  0.00     0.117 A 
BRANCH  17  20
ATOM     20  C   UNL d   1      55.538   0.197  33.437  0.00  0.00     0.064 A 
ATOM     21  C   UNL d   1      55.891   0.437  34.149  0.00  0.00     0.018 A 
ATOM     22  C   UNL d   1      55.415   0.679  34.777  0.00  0.00     0.002 A 
ATOM     23  C   UNL d   1      54.587   0.682  34.699  0.00  0.00     0.000 A 
ATOM     24  C   UNL d   1      54.233   0.441  33.984  0.00  0.00     0.002 A 
ATOM     25  C   UNL d   1      54.709   0.199  33.355  0.00  0.00     0.018 A 
ENDBRANCH  17  20
ENDBRANCH   5  14
BRANCH   6  26
ATOM     26  C   UNL d   1      58.401   0.122  30.575  0.00  0.00     0.098 C 
BRANCH  26  27
ATOM     27  C   UNL d   1      58.942   0.308  31.137  0.00  0.00     0.018 A 
ATOM     28  C   UNL d   1      59.703   0.361  30.942  0.00  0.00     0.002 A 
ATOM     29  C   UNL d   1      60.248   0.547  31.500  0.00  0.00     0.000 A 
ATOM     30  C   UNL d   1      61.053   0.647  31.502  0.00  0.00     0.000 C 
ATOM     31  C   UNL d   1      60.024   0.681  32.260  0.00  0.00     0.000 A 
ATOM     32  C   UNL d   1      59.235   0.624  32.450  0.00  0.00     0.000 A 
ATOM     33  C   UNL d   1      58.702   0.441  31.896  0.00  0.00     0.002 A 
ENDBRANCH  26  27
ENDBRANCH   6  26
TORSDOF 4
ENDMDL
