MODEL 1
REMARK VINA RESULT:      -4.8      0.000      0.000
REMARK  7 active torsions:
REMARK  status: ('A' for Active; 'I' for Inactive)
REMARK    1  A    between atoms: C_11  and  N_3 
REMARK    2  A    between atoms: C_10  and  C_4 
REMARK    3  A    between atoms: C_16  and  C_11 
REMARK    4  A    between atoms: N_13  and  C_17 
REMARK    5  A    between atoms: C_18  and  N_14 
REMARK    6  A    between atoms: C_17  and  C_16 
REMARK    7  A    between atoms: C_27  and  C_18 
ROOT
ATOM      1  C   UNL d   1     -47.150  12.701  23.113  0.00  0.00     0.137 A 
ATOM      2  N   UNL d   1     -47.912  13.041  23.084  0.00  0.00    -0.259 N 
ATOM      3  N   UNL d   1     -46.614  13.294  22.911  0.00  0.00    -0.287 N 
ATOM      4  C   UNL d   1     -47.059  11.912  23.316  0.00  0.00     0.054 A 
ATOM      5  C   UNL d   1     -48.574  12.577  23.262  0.00  0.00     0.266 A 
ATOM      6  C   UNL d   1     -47.838  13.833  22.867  0.00  0.00     0.084 A 
ATOM      7  C   UNL d   1     -47.024  13.992  22.759  0.00  0.00     0.082 A 
ATOM      8  C   UNL d   1     -47.718  11.448  23.493  0.00  0.00     0.009 A 
ATOM      9  C   UNL d   1     -48.481  11.775  23.468  0.00  0.00     0.061 A 
ATOM     10  O   UNL d   1     -49.334  12.907  23.236  0.00  0.00    -0.267 OA
ATOM     11  C   UNL d   1     -48.386  14.434  22.752  0.00  0.00     0.019 A 
ATOM     12  C   UNL d   1     -47.625  10.651  23.698  0.00  0.00     0.000 C 
ATOM     13  C   UNL d   1     -46.792  14.745  22.539  0.00  0.00     0.019 A 
ATOM     14  C   UNL d   1     -48.137  15.181  22.532  0.00  0.00     0.002 A 
ATOM     15  C   UNL d   1     -47.332  15.338  22.425  0.00  0.00     0.002 A 
ENDROOT
BRANCH   3  16
ATOM     16  C   UNL d   1     -45.815  13.459  22.802  0.00  0.00     0.125 C 
BRANCH  16  17
ATOM     17  C   UNL d   1     -45.412  13.134  22.160  0.00  0.00     0.231 C 
ATOM     18  O   UNL d   1     -45.766  13.108  21.416  0.00  0.00    -0.283 OA
BRANCH  17  19
ATOM     19  C   UNL d   1     -44.653  12.832  22.261  0.00  0.00     0.124 C 
BRANCH  19  20
ATOM     20  N   UNL d   1     -44.029  13.145  21.821  0.00  0.00    -0.297 N 
ATOM     21  C   UNL d   1     -43.492  12.515  21.801  0.00  0.00     0.100 A 
ATOM     22  C   UNL d   1     -42.772  12.606  21.401  0.00  0.00     0.100 A 
ATOM     23  N   UNL d   1     -42.578  13.319  21.020  0.00  0.00    -0.300 N 
ATOM     24  C   UNL d   1     -43.126  13.954  21.044  0.00  0.00     0.100 A 
ATOM     25  C   UNL d   1     -43.846  13.863  21.444  0.00  0.00     0.100 A 
BRANCH  23  26
ATOM     26  C   UNL d   1     -41.857  13.399  20.625  0.00  0.00     0.080 C 
BRANCH  26  27
ATOM     27  C   UNL d   1     -41.292  13.937  20.902  0.00  0.00     0.018 A 
ATOM     28  C   UNL d   1     -40.693  13.672  21.404  0.00  0.00     0.002 A 
ATOM     29  C   UNL d   1     -40.121  14.213  21.685  0.00  0.00     0.000 A 
ATOM     30  C   UNL d   1     -40.158  15.004  21.461  0.00  0.00     0.000 A 
ATOM     31  C   UNL d   1     -40.765  15.265  20.953  0.00  0.00     0.000 A 
ATOM     32  C   UNL d   1     -41.331  14.726  20.676  0.00  0.00     0.002 A 
ENDBRANCH  26  27
ENDBRANCH  23  26
ENDBRANCH  19  20
ENDBRANCH  17  19
ENDBRANCH  16  17
ENDBRANCH   3  16
BRANCH   4  33
ATOM     33  C   UNL d   1     -46.311  11.578  23.344  0.00  0.00     0.125 C 
ATOM     34  N   UNL d   1     -46.182  10.848  23.698  0.00  0.00    -0.146 N 
ENDBRANCH   4  33
TORSDOF 7
ENDMDL
MODEL 2
REMARK VINA RESULT:      -4.7      0.764      1.142
REMARK  7 active torsions:
REMARK  status: ('A' for Active; 'I' for Inactive)
REMARK    1  A    between atoms: C_11  and  N_3 
REMARK    2  A    between atoms: C_10  and  C_4 
REMARK    3  A    between atoms: C_16  and  C_11 
REMARK    4  A    between atoms: N_13  and  C_17 
REMARK    5  A    between atoms: C_18  and  N_14 
REMARK    6  A    between atoms: C_17  and  C_16 
REMARK    7  A    between atoms: C_27  and  C_18 
ROOT
ATOM      1  C   UNL d   1     -48.161  12.978  23.065  0.00  0.00     0.137 A 
ATOM      2  N   UNL d   1     -48.849  13.408  22.870  0.00  0.00    -0.259 N 
ATOM      3  N   UNL d   1     -47.521  13.491  22.972  0.00  0.00    -0.287 N 
ATOM      4  C   UNL d   1     -48.218  12.194  23.296  0.00  0.00     0.054 A 
ATOM      5  C   UNL d   1     -49.589  13.038  22.911  0.00  0.00     0.266 A 
ATOM      6  C   UNL d   1     -48.629  14.175  22.660  0.00  0.00     0.084 A 
ATOM      7  C   UNL d   1     -47.797  14.227  22.724  0.00  0.00     0.082 A 
ATOM      8  C   UNL d   1     -48.954  11.823  23.337  0.00  0.00     0.009 A 
ATOM      9  C   UNL d   1     -49.645  12.241  23.146  0.00  0.00     0.061 A 
ATOM     10  O   UNL d   1     -50.277  13.459  22.719  0.00  0.00    -0.267 OA
ATOM     11  C   UNL d   1     -49.058  14.833  22.421  0.00  0.00     0.019 A 
ATOM     12  C   UNL d   1     -49.011  11.031  23.571  0.00  0.00     0.000 C 
ATOM     13  C   UNL d   1     -47.428  14.935  22.546  0.00  0.00     0.019 A 
ATOM     14  C   UNL d   1     -48.674  15.534  22.247  0.00  0.00     0.002 A 
ATOM     15  C   UNL d   1     -47.850  15.585  22.310  0.00  0.00     0.002 A 
ENDROOT
BRANCH   3  16
ATOM     16  C   UNL d   1     -46.703  13.550  23.032  0.00  0.00     0.125 C 
BRANCH  16  17
ATOM     17  C   UNL d   1     -46.222  13.173  22.477  0.00  0.00     0.231 C 
ATOM     18  O   UNL d   1     -46.475  13.085  21.699  0.00  0.00    -0.283 OA
BRANCH  17  19
ATOM     19  C   UNL d   1     -45.485  12.884  22.703  0.00  0.00     0.124 C 
BRANCH  19  20
ATOM     20  N   UNL d   1     -44.844  12.962  22.190  0.00  0.00    -0.297 N 
ATOM     21  C   UNL d   1     -44.316  12.391  22.476  0.00  0.00     0.100 A 
ATOM     22  C   UNL d   1     -43.583  12.290  22.102  0.00  0.00     0.100 A 
ATOM     23  N   UNL d   1     -43.367  12.750  21.445  0.00  0.00    -0.300 N 
ATOM     24  C   UNL d   1     -43.906  13.327  21.159  0.00  0.00     0.100 A 
ATOM     25  C   UNL d   1     -44.638  13.428  21.532  0.00  0.00     0.100 A 
BRANCH  23  26
ATOM     26  C   UNL d   1     -42.634  12.640  21.081  0.00  0.00     0.080 C 
BRANCH  26  27
ATOM     27  C   UNL d   1     -42.078  13.255  21.077  0.00  0.00     0.018 A 
ATOM     28  C   UNL d   1     -42.078  13.794  20.452  0.00  0.00     0.002 A 
ATOM     29  C   UNL d   1     -41.518  14.416  20.445  0.00  0.00     0.000 A 
ATOM     30  C   UNL d   1     -40.974  14.486  21.059  0.00  0.00     0.000 A 
ATOM     31  C   UNL d   1     -40.982  13.938  21.687  0.00  0.00     0.000 A 
ATOM     32  C   UNL d   1     -41.537  13.323  21.691  0.00  0.00     0.002 A 
ENDBRANCH  26  27
ENDBRANCH  23  26
ENDBRANCH  19  20
ENDBRANCH  17  19
ENDBRANCH  16  17
ENDBRANCH   3  16
BRANCH   4  33
ATOM     33  C   UNL d   1     -47.542  11.771  23.488  0.00  0.00     0.125 C 
ATOM     34  N   UNL d   1     -47.580  10.978  23.698  0.00  0.00    -0.146 N 
ENDBRANCH   4  33
TORSDOF 7
ENDMDL
MODEL 3
REMARK VINA RESULT:      -4.5      0.523      2.105
REMARK  7 active torsions:
REMARK  status: ('A' for Active; 'I' for Inactive)
REMARK    1  A    between atoms: C_11  and  N_3 
REMARK    2  A    between atoms: C_10  and  C_4 
REMARK    3  A    between atoms: C_16  and  C_11 
REMARK    4  A    between atoms: N_13  and  C_17 
REMARK    5  A    between atoms: C_18  and  N_14 
REMARK    6  A    between atoms: C_17  and  C_16 
REMARK    7  A    between atoms: C_27  and  C_18 
ROOT
ATOM      1  C   UNL d   1     -47.231  13.428  22.914  0.00  0.00     0.137 A 
ATOM      2  N   UNL d   1     -47.829  12.882  23.113  0.00  0.00    -0.259 N 
ATOM      3  N   UNL d   1     -46.510  13.036  22.989  0.00  0.00    -0.287 N 
ATOM      4  C   UNL d   1     -47.429  14.194  22.697  0.00  0.00     0.054 A 
ATOM      5  C   UNL d   1     -48.623  13.116  23.089  0.00  0.00     0.266 A 
ATOM      6  C   UNL d   1     -47.473  12.163  23.306  0.00  0.00     0.084 A 
ATOM      7  C   UNL d   1     -46.646  12.259  23.229  0.00  0.00     0.082 A 
ATOM      8  C   UNL d   1     -48.219  14.430  22.673  0.00  0.00     0.009 A 
ATOM      9  C   UNL d   1     -48.823  13.894  22.869  0.00  0.00     0.061 A 
ATOM     10  O   UNL d   1     -49.222  12.578  23.285  0.00  0.00    -0.267 OA
ATOM     11  C   UNL d   1     -47.776  11.436  23.541  0.00  0.00     0.019 A 
ATOM     12  C   UNL d   1     -48.419  15.202  22.454  0.00  0.00     0.000 C 
ATOM     13  C   UNL d   1     -46.156  11.625  23.390  0.00  0.00     0.019 A 
ATOM     14  C   UNL d   1     -47.271  10.812  23.698  0.00  0.00     0.002 A 
ATOM     15  C   UNL d   1     -46.452  10.907  23.621  0.00  0.00     0.002 A 
ENDROOT
BRANCH   3  16
ATOM     16  C   UNL d   1     -45.694  13.122  22.915  0.00  0.00     0.125 C 
BRANCH  16  17
ATOM     17  C   UNL d   1     -45.324  12.931  22.203  0.00  0.00     0.231 C 
ATOM     18  O   UNL d   1     -45.716  13.041  21.488  0.00  0.00    -0.283 OA
BRANCH  17  19
ATOM     19  C   UNL d   1     -44.559  12.628  22.207  0.00  0.00     0.124 C 
BRANCH  19  20
ATOM     20  N   UNL d   1     -43.976  12.990  21.748  0.00  0.00    -0.297 N 
ATOM     21  C   UNL d   1     -43.336  12.471  21.831  0.00  0.00     0.100 A 
ATOM     22  C   UNL d   1     -42.623  12.639  21.445  0.00  0.00     0.100 A 
ATOM     23  N   UNL d   1     -42.536  13.320  20.975  0.00  0.00    -0.300 N 
ATOM     24  C   UNL d   1     -43.188  13.842  20.895  0.00  0.00     0.100 A 
ATOM     25  C   UNL d   1     -43.902  13.674  21.281  0.00  0.00     0.100 A 
BRANCH  23  26
ATOM     26  C   UNL d   1     -41.820  13.477  20.595  0.00  0.00     0.080 C 
BRANCH  26  27
ATOM     27  C   UNL d   1     -41.300  14.040  20.911  0.00  0.00     0.018 A 
ATOM     28  C   UNL d   1     -40.711  13.796  21.434  0.00  0.00     0.002 A 
ATOM     29  C   UNL d   1     -40.184  14.362  21.755  0.00  0.00     0.000 A 
ATOM     30  C   UNL d   1     -40.257  15.155  21.547  0.00  0.00     0.000 A 
ATOM     31  C   UNL d   1     -40.855  15.394  21.018  0.00  0.00     0.000 A 
ATOM     32  C   UNL d   1     -41.375  14.831  20.702  0.00  0.00     0.002 A 
ENDBRANCH  26  27
ENDBRANCH  23  26
ENDBRANCH  19  20
ENDBRANCH  17  19
ENDBRANCH  16  17
ENDBRANCH   3  16
BRANCH   4  33
ATOM     33  C   UNL d   1     -46.842  14.731  22.502  0.00  0.00     0.125 C 
ATOM     34  N   UNL d   1     -46.997  15.538  22.462  0.00  0.00    -0.146 N 
ENDBRANCH   4  33
TORSDOF 7
ENDMDL
MODEL 4
REMARK VINA RESULT:      -3.1      2.283      7.238
REMARK  7 active torsions:
REMARK  status: ('A' for Active; 'I' for Inactive)
REMARK    1  A    between atoms: C_11  and  N_3 
REMARK    2  A    between atoms: C_10  and  C_4 
REMARK    3  A    between atoms: C_16  and  C_11 
REMARK    4  A    between atoms: N_13  and  C_17 
REMARK    5  A    between atoms: C_18  and  N_14 
REMARK    6  A    between atoms: C_17  and  C_16 
REMARK    7  A    between atoms: C_27  and  C_18 
ROOT
ATOM      1  C   UNL d   1     -39.865  14.712  19.948  0.00  0.00     0.137 A 
ATOM      2  N   UNL d   1     -39.154  15.032  20.244  0.00  0.00    -0.259 N 
ATOM      3  N   UNL d   1     -40.138  14.171  20.508  0.00  0.00    -0.287 N 
ATOM      4  C   UNL d   1     -40.156  14.958  19.222  0.00  0.00     0.054 A 
ATOM      5  C   UNL d   1     -38.743  15.599  19.800  0.00  0.00     0.266 A 
ATOM      6  C   UNL d   1     -38.996  14.688  20.977  0.00  0.00     0.084 A 
ATOM      7  C   UNL d   1     -39.613  14.148  21.142  0.00  0.00     0.082 A 
ATOM      8  C   UNL d   1     -39.749  15.522  18.779  0.00  0.00     0.009 A 
ATOM      9  C   UNL d   1     -39.040  15.848  19.063  0.00  0.00     0.061 A 
ATOM     10  O   UNL d   1     -38.036  15.921  20.088  0.00  0.00    -0.267 OA
ATOM     11  C   UNL d   1     -38.385  14.784  21.518  0.00  0.00     0.019 A 
ATOM     12  C   UNL d   1     -40.043  15.770  18.046  0.00  0.00     0.000 C 
ATOM     13  C   UNL d   1     -39.594  13.726  21.842  0.00  0.00     0.019 A 
ATOM     14  C   UNL d   1     -38.382  14.353  22.214  0.00  0.00     0.002 A 
ATOM     15  C   UNL d   1     -38.993  13.819  22.377  0.00  0.00     0.002 A 
ENDROOT
BRANCH   3  16
ATOM     16  C   UNL d   1     -40.741  13.638  20.678  0.00  0.00     0.125 C 
BRANCH  16  17
ATOM     17  C   UNL d   1     -41.409  13.893  21.089  0.00  0.00     0.231 C 
ATOM     18  O   UNL d   1     -41.631  14.685  21.074  0.00  0.00    -0.283 OA
BRANCH  17  19
ATOM     19  C   UNL d   1     -41.859  13.352  21.517  0.00  0.00     0.124 C 
BRANCH  19  20
ATOM     20  N   UNL d   1     -42.682  13.384  21.476  0.00  0.00    -0.297 N 
ATOM     21  C   UNL d   1     -42.901  12.608  21.664  0.00  0.00     0.100 A 
ATOM     22  C   UNL d   1     -43.704  12.404  21.684  0.00  0.00     0.100 A 
ATOM     23  N   UNL d   1     -44.295  12.965  21.518  0.00  0.00    -0.300 N 
ATOM     24  C   UNL d   1     -44.068  13.750  21.328  0.00  0.00     0.100 A 
ATOM     25  C   UNL d   1     -43.265  13.953  21.308  0.00  0.00     0.100 A 
BRANCH  23  26
ATOM     26  C   UNL d   1     -45.092  12.750  21.541  0.00  0.00     0.080 C 
BRANCH  26  27
ATOM     27  C   UNL d   1     -45.561  12.970  22.188  0.00  0.00     0.018 A 
ATOM     28  C   UNL d   1     -45.906  13.720  22.199  0.00  0.00     0.002 A 
ATOM     29  C   UNL d   1     -46.379  13.946  22.851  0.00  0.00     0.000 A 
ATOM     30  C   UNL d   1     -46.498  13.422  23.474  0.00  0.00     0.000 A 
ATOM     31  C   UNL d   1     -46.146  12.666  23.456  0.00  0.00     0.000 A 
ATOM     32  C   UNL d   1     -45.678  12.445  22.808  0.00  0.00     0.002 A 
ENDBRANCH  26  27
ENDBRANCH  23  26
ENDBRANCH  19  20
ENDBRANCH  17  19
ENDBRANCH  16  17
ENDBRANCH   3  16
BRANCH   4  33
ATOM     33  C   UNL d   1     -40.855  14.644  18.931  0.00  0.00     0.125 C 
ATOM     34  N   UNL d   1     -40.929  14.422  18.143  0.00  0.00    -0.146 N 
ENDBRANCH   4  33
TORSDOF 7
ENDMDL
MODEL 5
REMARK VINA RESULT:      -3.0      1.174      2.530
REMARK  7 active torsions:
REMARK  status: ('A' for Active; 'I' for Inactive)
REMARK    1  A    between atoms: C_11  and  N_3 
REMARK    2  A    between atoms: C_10  and  C_4 
REMARK    3  A    between atoms: C_16  and  C_11 
REMARK    4  A    between atoms: N_13  and  C_17 
REMARK    5  A    between atoms: C_18  and  N_14 
REMARK    6  A    between atoms: C_17  and  C_16 
REMARK    7  A    between atoms: C_27  and  C_18 
ROOT
ATOM      1  C   UNL d   1     -46.184  12.760  22.906  0.00  0.00     0.137 A 
ATOM      2  N   UNL d   1     -46.594  12.105  23.219  0.00  0.00    -0.259 N 
ATOM      3  N   UNL d   1     -45.391  12.541  22.843  0.00  0.00    -0.287 N 
ATOM      4  C   UNL d   1     -46.587  13.450  22.727  0.00  0.00     0.054 A 
ATOM      5  C   UNL d   1     -47.411  12.156  23.348  0.00  0.00     0.266 A 
ATOM      6  C   UNL d   1     -46.055  11.493  23.345  0.00  0.00     0.084 A 
ATOM      7  C   UNL d   1     -45.301  11.766  23.109  0.00  0.00     0.082 A 
ATOM      8  C   UNL d   1     -47.401  13.504  22.855  0.00  0.00     0.009 A 
ATOM      9  C   UNL d   1     -47.820  12.858  23.166  0.00  0.00     0.061 A 
ATOM     10  O   UNL d   1     -47.825  11.509  23.659  0.00  0.00    -0.267 OA
ATOM     11  C   UNL d   1     -46.136  10.729  23.638  0.00  0.00     0.019 A 
ATOM     12  C   UNL d   1     -47.807  14.202  22.674  0.00  0.00     0.000 C 
ATOM     13  C   UNL d   1     -44.659  11.265  23.176  0.00  0.00     0.019 A 
ATOM     14  C   UNL d   1     -45.483  10.241  23.698  0.00  0.00     0.002 A 
ATOM     15  C   UNL d   1     -44.736  10.512  23.464  0.00  0.00     0.002 A 
ENDROOT
BRANCH   3  16
ATOM     16  C   UNL d   1     -44.645  12.801  22.613  0.00  0.00     0.125 C 
BRANCH  16  17
ATOM     17  C   UNL d   1     -44.412  12.735  21.825  0.00  0.00     0.231 C 
ATOM     18  O   UNL d   1     -44.959  12.844  21.218  0.00  0.00    -0.283 OA
BRANCH  17  19
ATOM     19  C   UNL d   1     -43.630  12.559  21.642  0.00  0.00     0.124 C 
BRANCH  19  20
ATOM     20  N   UNL d   1     -43.111  13.169  21.441  0.00  0.00    -0.297 N 
ATOM     21  C   UNL d   1     -42.380  12.781  21.418  0.00  0.00     0.100 A 
ATOM     22  C   UNL d   1     -41.697  13.211  21.231  0.00  0.00     0.100 A 
ATOM     23  N   UNL d   1     -41.731  14.025  21.066  0.00  0.00    -0.300 N 
ATOM     24  C   UNL d   1     -42.475  14.413  21.090  0.00  0.00     0.100 A 
ATOM     25  C   UNL d   1     -43.158  13.983  21.277  0.00  0.00     0.100 A 
BRANCH  23  26
ATOM     26  C   UNL d   1     -41.043  14.443  20.881  0.00  0.00     0.080 C 
BRANCH  26  27
ATOM     27  C   UNL d   1     -40.868  14.620  20.091  0.00  0.00     0.018 A 
ATOM     28  C   UNL d   1     -40.667  14.008  19.576  0.00  0.00     0.002 A 
ATOM     29  C   UNL d   1     -40.489  14.182  18.777  0.00  0.00     0.000 A 
ATOM     30  C   UNL d   1     -40.515  14.961  18.511  0.00  0.00     0.000 A 
ATOM     31  C   UNL d   1     -40.719  15.574  19.037  0.00  0.00     0.000 A 
ATOM     32  C   UNL d   1     -40.895  15.397  19.828  0.00  0.00     0.002 A 
ENDBRANCH  26  27
ENDBRANCH  23  26
ENDBRANCH  19  20
ENDBRANCH  17  19
ENDBRANCH  16  17
ENDBRANCH   3  16
BRANCH   4  33
ATOM     33  C   UNL d   1     -46.184  14.094  22.420  0.00  0.00     0.125 C 
ATOM     34  N   UNL d   1     -46.427  14.864  22.575  0.00  0.00    -0.146 N 
ENDBRANCH   4  33
TORSDOF 7
ENDMDL
