MODEL 1
REMARK VINA RESULT:      73.4      0.000      0.000
REMARK  7 active torsions:
REMARK  status: ('A' for Active; 'I' for Inactive)
REMARK    1  A    between atoms: N_15  and  C_4 
REMARK    2  A    between atoms: C_17  and  N_5 
REMARK    3  A    between atoms: C_19  and  N_10 
REMARK    4  A    between atoms: C_11  and  S_16 
REMARK    5  A    between atoms: S_16  and  C_28 
REMARK    6  A    between atoms: C_27  and  C_17 
REMARK    7  A    between atoms: C_28  and  C_27 
ROOT
ATOM      1  C   UNL d   1      43.058 -14.914  44.652  0.00  0.00     0.191 A 
ATOM      2  C   UNL d   1      43.629 -15.507  44.718  0.00  0.00     0.174 A 
ATOM      3  N   UNL d   1      43.434 -14.185  44.513  0.00  0.00    -0.042 NA
ATOM      4  C   UNL d   1      44.256 -14.345  44.496  0.00  0.00     0.722 A 
ATOM      5  N   UNL d   1      44.383 -15.142  44.619  0.00  0.00    -0.136 N 
ATOM      6  N   UNL d   1      42.234 -15.104  44.726  0.00  0.00    -0.239 N 
ATOM      7  C   UNL d   1      42.017 -15.921  44.871  0.00  0.00     0.358 A 
ATOM      8  N   UNL d   1      42.615 -16.489  44.932  0.00  0.00    -0.152 NA
ATOM      9  C   UNL d   1      43.431 -16.273  44.854  0.00  0.00     0.303 A 
ATOM     10  O   UNL d   1      41.211 -16.146  44.950  0.00  0.00    -0.244 OA
ATOM     11  O   UNL d   1      44.010 -16.876  44.922  0.00  0.00    -0.263 OA
ATOM     12  C   UNL d   1      41.654 -14.518  44.661  0.00  0.00     0.105 C 
ENDROOT
BRANCH   5  13
ATOM     13  C   UNL d   1      45.163 -15.377  44.616  0.00  0.00     0.072 C 
BRANCH  13  14
ATOM     14  C   UNL d   1      45.353 -16.138  44.904  0.00  0.00     0.052 C 
ATOM     15  C   UNL d   1      45.962 -15.949  44.380  0.00  0.00     0.007 C 
BRANCH  14  16
ATOM     16  C   UNL d   1      46.037 -16.519  44.643  0.00  0.00     0.071 C 
BRANCH  16  17
ATOM     17  S   UNL d   1      46.006 -17.278  44.352  0.00  0.00    -0.073 SA
BRANCH  17  18
ATOM     18  C   UNL d   1      46.231 -17.444  43.575  0.00  0.00     0.215 A 
ATOM     19  N   UNL d   1      46.429 -18.184  43.274  0.00  0.00    -0.186 N 
ATOM     20  N   UNL d   1      46.618 -18.099  42.480  0.00  0.00    -0.038 NA
ATOM     21  N   UNL d   1      46.536 -17.301  42.286  0.00  0.00    -0.022 NA
ATOM     22  N   UNL d   1      46.297 -16.897  42.964  0.00  0.00    -0.101 NA
BRANCH  19  23
ATOM     23  C   UNL d   1      46.437 -18.891  43.698  0.00  0.00     0.087 A 
ATOM     24  C   UNL d   1      46.634 -19.592  43.314  0.00  0.00     0.019 A 
ATOM     25  C   UNL d   1      46.642 -20.299  43.739  0.00  0.00     0.002 A 
ATOM     26  C   UNL d   1      46.454 -20.304  44.543  0.00  0.00     0.000 A 
ATOM     27  C   UNL d   1      46.258 -19.593  44.921  0.00  0.00     0.002 A 
ATOM     28  C   UNL d   1      46.250 -18.885  44.497  0.00  0.00     0.019 A 
ENDBRANCH  19  23
ENDBRANCH  17  18
ENDBRANCH  16  17
ENDBRANCH  14  16
ENDBRANCH  13  14
ENDBRANCH   5  13
BRANCH   4  29
ATOM     29  N   UNL d   1      44.851 -13.785  44.373  0.00  0.00    -0.136 N 
ATOM     30  C   UNL d   1      44.653 -12.983  44.299  0.00  0.00     0.117 A 
ATOM     31  C   UNL d   1      45.256 -12.432  44.177  0.00  0.00     0.100 A 
ATOM     32  N   UNL d   1      46.049 -12.673  44.128  0.00  0.00    -0.299 N 
ATOM     33  C   UNL d   1      46.230 -13.475  44.203  0.00  0.00     0.100 A 
ATOM     34  C   UNL d   1      46.645 -12.113  44.005  0.00  0.00     0.100 C 
ATOM     35  C   UNL d   1      45.639 -14.032  44.325  0.00  0.00     0.117 A 
ENDBRANCH   4  29
TORSDOF 7
ENDMDL
