MODEL 1
REMARK VINA RESULT:      67.3      0.000      0.000
REMARK  6 active torsions:
REMARK  status: ('A' for Active; 'I' for Inactive)
REMARK    1  A    between atoms: C_7  and  C_1 
REMARK    2  A    between atoms: C_10  and  C_2 
REMARK    3  A    between atoms: C_8  and  C_7 
REMARK    4  A    between atoms: C_9  and  C_8 
REMARK    5  A    between atoms: C_13  and  C_9 
REMARK    6  A    between atoms: O_20  and  C_16 
ROOT
ATOM      1  C   UNL d   1     -50.973  26.124  33.389  0.00  0.00     0.097 A 
ATOM      2  C   UNL d   1     -51.139  25.316  33.387  0.00  0.00     0.009 A 
ATOM      3  C   UNL d   1     -51.583  26.672  33.364  0.00  0.00     0.282 A 
ATOM      4  C   UNL d   1     -51.925  25.063  33.361  0.00  0.00     0.019 A 
ATOM      5  N   UNL d   1     -52.365  26.417  33.339  0.00  0.00    -0.208 NA
ATOM      6  C   UNL d   1     -52.535  25.611  33.337  0.00  0.00     0.085 A 
ATOM      7  C   UNL d   1     -52.091  24.256  33.360  0.00  0.00     0.013 A 
ATOM      8  O   UNL d   1     -51.377  27.489  33.367  0.00  0.00    -0.265 OA
ATOM      9  C   UNL d   1     -53.316  25.357  33.311  0.00  0.00     0.020 A 
ATOM     10  C   UNL d   1     -52.876  24.003  33.334  0.00  0.00     0.058 A 
ATOM     11  C   UNL d   1     -53.486  24.551  33.310  0.00  0.00     0.013 A 
ATOM     12 CL   UNL d   1     -53.069  23.188  33.331  0.00  0.00    -0.082 Cl
ENDROOT
BRANCH   1  13
ATOM     13  C   UNL d   1     -50.177  26.411  33.415  0.00  0.00     0.200 C 
ATOM     14  O   UNL d   1     -49.556  25.891  33.306  0.00  0.00    -0.286 OA
BRANCH  13  15
ATOM     15  C   UNL d   1     -50.039  27.214  33.550  0.00  0.00     0.042 C 
BRANCH  15  16
ATOM     16  C   UNL d   1     -49.287  27.476  33.734  0.00  0.00     0.005 C 
BRANCH  16  17
ATOM     17  C   UNL d   1     -49.176  28.255  33.966  0.00  0.00     0.022 A 
ATOM     18  C   UNL d   1     -48.538  28.451  34.458  0.00  0.00     0.094 A 
ATOM     19  C   UNL d   1     -48.420  29.239  34.697  0.00  0.00     0.024 A 
ATOM     20  C   UNL d   1     -48.943  29.812  34.439  0.00  0.00     0.002 A 
ATOM     21  C   UNL d   1     -49.599  29.628  33.937  0.00  0.00     0.000 A 
ATOM     22  C   UNL d   1     -49.703  28.852  33.710  0.00  0.00     0.002 A 
BRANCH  18  23
ATOM     23  O   UNL d   1     -48.004  27.865  34.721  0.00  0.00    -0.328 OA
ATOM     24  C   UNL d   1     -47.362  28.067  35.170  0.00  0.00     0.181 C 
ENDBRANCH  18  23
ENDBRANCH  16  17
ENDBRANCH  15  16
ENDBRANCH  13  15
ENDBRANCH   1  13
BRANCH   2  25
ATOM     25  C   UNL d   1     -50.522  24.761  33.411  0.00  0.00     0.000 A 
ATOM     26  C   UNL d   1     -50.690  23.968  33.308  0.00  0.00     0.000 A 
ATOM     27  C   UNL d   1     -50.061  23.402  33.333  0.00  0.00     0.000 A 
ATOM     28  C   UNL d   1     -49.296  23.660  33.460  0.00  0.00     0.000 A 
ATOM     29  C   UNL d   1     -49.136  24.437  33.560  0.00  0.00     0.000 A 
ATOM     30  C   UNL d   1     -49.744  25.009  33.539  0.00  0.00     0.000 A 
ENDBRANCH   2  25
TORSDOF 6
ENDMDL
