MODEL 1
REMARK VINA RESULT:      -6.8      0.000      0.000
REMARK  4 active torsions:
REMARK  status: ('A' for Active; 'I' for Inactive)
REMARK    1  A    between atoms: C_2  and  S_1 
REMARK    2  A    between atoms: N_4  and  S_1 
REMARK    3  A    between atoms: C_11  and  N_4 
REMARK    4  A    between atoms: C_9  and  C_11 
ROOT
ATOM      1  S   UNL d   1     -48.074  13.718  22.952  0.00  0.00     0.285 S 
ATOM      2  O   UNL d   1     -48.298  13.392  22.228  0.00  0.00    -0.198 OA
ATOM      3  O   UNL d   1     -47.851  14.044  23.676  0.00  0.00    -0.198 OA
ENDROOT
BRANCH   1   4
ATOM      4  C   UNL d   1     -47.307  13.436  22.842  0.00  0.00     0.105 A 
ATOM      5  C   UNL d   1     -47.088  12.700  23.155  0.00  0.00     0.012 A 
ATOM      6  C   UNL d   1     -46.321  12.419  23.045  0.00  0.00     0.001 A 
ATOM      7  C   UNL d   1     -47.636  12.250  23.576  0.00  0.00     0.001 C 
ATOM      8  C   UNL d   1     -46.101  11.687  23.356  0.00  0.00     0.000 C 
ATOM      9  C   UNL d   1     -45.772  12.873  22.621  0.00  0.00     0.000 A 
ATOM     10  C   UNL d   1     -45.992  13.605  22.311  0.00  0.00     0.001 A 
ATOM     11  C   UNL d   1     -45.004  12.592  22.511  0.00  0.00     0.000 C 
ATOM     12  C   UNL d   1     -46.758  13.886  22.421  0.00  0.00     0.013 A 
ENDBRANCH   1   4
BRANCH   1  13
ATOM     13  N   UNL d   1     -48.842  13.999  23.062  0.00  0.00    -0.155 NA
BRANCH  13  14
ATOM     14  C   UNL d   1     -49.006  14.804  22.949  0.00  0.00     0.137 C 
BRANCH  14  15
ATOM     15  C   UNL d   1     -49.749  15.103  23.147  0.00  0.00     0.120 A 
ATOM     16  O   UNL d   1     -50.471  14.737  23.000  0.00  0.00    -0.304 OA
ATOM     17  C   UNL d   1     -51.064  15.226  23.289  0.00  0.00     0.123 A 
ATOM     18  C   UNL d   1     -50.707  15.895  23.615  0.00  0.00     0.029 A 
ATOM     19  C   UNL d   1     -49.895  15.817  23.526  0.00  0.00     0.028 A 
ENDBRANCH  14  15
ENDBRANCH  13  14
ENDBRANCH   1  13
TORSDOF 4
ENDMDL
MODEL 2
REMARK VINA RESULT:      -6.7      0.997      4.157
REMARK  4 active torsions:
REMARK  status: ('A' for Active; 'I' for Inactive)
REMARK    1  A    between atoms: C_2  and  S_1 
REMARK    2  A    between atoms: N_4  and  S_1 
REMARK    3  A    between atoms: C_11  and  N_4 
REMARK    4  A    between atoms: C_9  and  C_11 
ROOT
ATOM      1  S   UNL d   1     -48.277  13.834  22.776  0.00  0.00     0.285 S 
ATOM      2  O   UNL d   1     -48.084  13.879  23.577  0.00  0.00    -0.198 OA
ATOM      3  O   UNL d   1     -48.470  13.789  21.975  0.00  0.00    -0.198 OA
ENDROOT
BRANCH   1   4
ATOM      4  C   UNL d   1     -48.974  14.251  22.920  0.00  0.00     0.105 A 
ATOM      5  C   UNL d   1     -49.667  13.842  23.117  0.00  0.00     0.012 A 
ATOM      6  C   UNL d   1     -50.363  14.258  23.261  0.00  0.00     0.001 A 
ATOM      7  C   UNL d   1     -49.661  13.018  23.168  0.00  0.00     0.001 C 
ATOM      8  C   UNL d   1     -51.055  13.852  23.457  0.00  0.00     0.000 C 
ATOM      9  C   UNL d   1     -50.368  15.086  23.210  0.00  0.00     0.000 A 
ATOM     10  C   UNL d   1     -49.676  15.491  23.014  0.00  0.00     0.001 A 
ATOM     11  C   UNL d   1     -51.064  15.503  23.354  0.00  0.00     0.000 C 
ATOM     12  C   UNL d   1     -48.980  15.075  22.869  0.00  0.00     0.013 A 
ENDBRANCH   1   4
BRANCH   1  13
ATOM     13  N   UNL d   1     -47.580  13.417  22.631  0.00  0.00    -0.155 NA
BRANCH  13  14
ATOM     14  C   UNL d   1     -46.848  13.766  22.800  0.00  0.00     0.137 C 
BRANCH  14  15
ATOM     15  C   UNL d   1     -46.151  13.361  22.627  0.00  0.00     0.120 A 
ATOM     16  O   UNL d   1     -45.902  12.658  22.975  0.00  0.00    -0.304 OA
ATOM     17  C   UNL d   1     -45.181  12.453  22.640  0.00  0.00     0.123 A 
ATOM     18  C   UNL d   1     -44.984  13.030  22.083  0.00  0.00     0.029 A 
ATOM     19  C   UNL d   1     -45.584  13.590  22.077  0.00  0.00     0.028 A 
ENDBRANCH  14  15
ENDBRANCH  13  14
ENDBRANCH   1  13
TORSDOF 4
ENDMDL
MODEL 3
REMARK VINA RESULT:      -6.7      1.746      4.441
REMARK  4 active torsions:
REMARK  status: ('A' for Active; 'I' for Inactive)
REMARK    1  A    between atoms: C_2  and  S_1 
REMARK    2  A    between atoms: N_4  and  S_1 
REMARK    3  A    between atoms: C_11  and  N_4 
REMARK    4  A    between atoms: C_9  and  C_11 
ROOT
ATOM      1  S   UNL d   1     -46.356  13.426  22.690  0.00  0.00     0.285 S 
ATOM      2  O   UNL d   1     -46.552  13.186  21.925  0.00  0.00    -0.198 OA
ATOM      3  O   UNL d   1     -46.161  13.667  23.455  0.00  0.00    -0.198 OA
ENDROOT
BRANCH   1   4
ATOM      4  C   UNL d   1     -47.083  13.811  22.755  0.00  0.00     0.105 A 
ATOM      5  C   UNL d   1     -47.757  13.384  22.984  0.00  0.00     0.012 A 
ATOM      6  C   UNL d   1     -48.483  13.768  23.049  0.00  0.00     0.001 A 
ATOM      7  C   UNL d   1     -47.701  12.577  23.146  0.00  0.00     0.001 C 
ATOM      8  C   UNL d   1     -49.155  13.345  23.276  0.00  0.00     0.000 C 
ATOM      9  C   UNL d   1     -48.538  14.579  22.885  0.00  0.00     0.000 A 
ATOM     10  C   UNL d   1     -47.866  15.001  22.658  0.00  0.00     0.001 A 
ATOM     11  C   UNL d   1     -49.265  14.964  22.950  0.00  0.00     0.000 C 
ATOM     12  C   UNL d   1     -47.140  14.618  22.593  0.00  0.00     0.013 A 
ENDBRANCH   1   4
BRANCH   1  13
ATOM     13  N   UNL d   1     -45.629  13.042  22.625  0.00  0.00    -0.155 NA
BRANCH  13  14
ATOM     14  C   UNL d   1     -45.174  13.135  21.939  0.00  0.00     0.137 C 
BRANCH  14  15
ATOM     15  C   UNL d   1     -44.424  12.793  21.894  0.00  0.00     0.120 A 
ATOM     16  O   UNL d   1     -44.166  12.142  22.325  0.00  0.00    -0.304 OA
ATOM     17  C   UNL d   1     -43.388  11.991  22.108  0.00  0.00     0.123 A 
ATOM     18  C   UNL d   1     -43.166  12.550  21.544  0.00  0.00     0.029 A 
ATOM     19  C   UNL d   1     -43.808  13.045  21.413  0.00  0.00     0.028 A 
ENDBRANCH  14  15
ENDBRANCH  13  14
ENDBRANCH   1  13
TORSDOF 4
ENDMDL
MODEL 4
REMARK VINA RESULT:      -6.6      1.212      4.230
REMARK  4 active torsions:
REMARK  status: ('A' for Active; 'I' for Inactive)
REMARK    1  A    between atoms: C_2  and  S_1 
REMARK    2  A    between atoms: N_4  and  S_1 
REMARK    3  A    between atoms: C_11  and  N_4 
REMARK    4  A    between atoms: C_9  and  C_11 
ROOT
ATOM      1  S   UNL d   1     -48.411  13.309  22.785  0.00  0.00     0.285 S 
ATOM      2  O   UNL d   1     -48.820  12.868  23.351  0.00  0.00    -0.198 OA
ATOM      3  O   UNL d   1     -48.002  13.749  22.220  0.00  0.00    -0.198 OA
ENDROOT
BRANCH   1   4
ATOM      4  C   UNL d   1     -49.017  13.868  22.782  0.00  0.00     0.105 A 
ATOM      5  C   UNL d   1     -49.690  13.744  22.313  0.00  0.00     0.012 A 
ATOM      6  C   UNL d   1     -50.296  14.302  22.310  0.00  0.00     0.001 A 
ATOM      7  C   UNL d   1     -49.754  13.062  21.851  0.00  0.00     0.001 C 
ATOM      8  C   UNL d   1     -50.967  14.181  21.844  0.00  0.00     0.000 C 
ATOM      9  C   UNL d   1     -50.230  14.986  22.774  0.00  0.00     0.000 A 
ATOM     10  C   UNL d   1     -49.560  15.107  23.239  0.00  0.00     0.001 A 
ATOM     11  C   UNL d   1     -50.837  15.545  22.771  0.00  0.00     0.000 C 
ATOM     12  C   UNL d   1     -48.954  14.548  23.243  0.00  0.00     0.013 A 
ENDBRANCH   1   4
BRANCH   1  13
ATOM     13  N   UNL d   1     -47.804  12.749  22.789  0.00  0.00    -0.155 NA
BRANCH  13  14
ATOM     14  C   UNL d   1     -47.183  12.818  23.334  0.00  0.00     0.137 C 
BRANCH  14  15
ATOM     15  C   UNL d   1     -46.624  12.215  23.397  0.00  0.00     0.120 A 
ATOM     16  O   UNL d   1     -45.835  12.264  23.169  0.00  0.00    -0.304 OA
ATOM     17  C   UNL d   1     -45.482  11.540  23.330  0.00  0.00     0.123 A 
ATOM     18  C   UNL d   1     -46.054  11.043  23.657  0.00  0.00     0.029 A 
ATOM     19  C   UNL d   1     -46.759  11.462  23.698  0.00  0.00     0.028 A 
ENDBRANCH  14  15
ENDBRANCH  13  14
ENDBRANCH   1  13
TORSDOF 4
ENDMDL
MODEL 5
REMARK VINA RESULT:      -6.6      1.561      4.391
REMARK  4 active torsions:
REMARK  status: ('A' for Active; 'I' for Inactive)
REMARK    1  A    between atoms: C_2  and  S_1 
REMARK    2  A    between atoms: N_4  and  S_1 
REMARK    3  A    between atoms: C_11  and  N_4 
REMARK    4  A    between atoms: C_9  and  C_11 
ROOT
ATOM      1  S   UNL d   1     -47.056  13.033  22.953  0.00  0.00     0.285 S 
ATOM      2  O   UNL d   1     -47.236  12.648  22.246  0.00  0.00    -0.198 OA
ATOM      3  O   UNL d   1     -46.876  13.417  23.660  0.00  0.00    -0.198 OA
ENDROOT
BRANCH   1   4
ATOM      4  C   UNL d   1     -47.736  13.493  22.876  0.00  0.00     0.105 A 
ATOM      5  C   UNL d   1     -47.671  14.298  22.687  0.00  0.00     0.012 A 
ATOM      6  C   UNL d   1     -48.350  14.757  22.609  0.00  0.00     0.001 A 
ATOM      7  C   UNL d   1     -46.927  14.638  22.576  0.00  0.00     0.001 C 
ATOM      8  C   UNL d   1     -48.287  15.559  22.421  0.00  0.00     0.000 C 
ATOM      9  C   UNL d   1     -49.096  14.413  22.721  0.00  0.00     0.000 A 
ATOM     10  C   UNL d   1     -49.159  13.613  22.909  0.00  0.00     0.001 A 
ATOM     11  C   UNL d   1     -49.777  14.874  22.643  0.00  0.00     0.000 C 
ATOM     12  C   UNL d   1     -48.479  13.153  22.986  0.00  0.00     0.013 A 
ENDBRANCH   1   4
BRANCH   1  13
ATOM     13  N   UNL d   1     -46.375  12.572  23.030  0.00  0.00    -0.155 NA
BRANCH  13  14
ATOM     14  C   UNL d   1     -46.430  11.804  23.336  0.00  0.00     0.137 C 
BRANCH  14  15
ATOM     15  C   UNL d   1     -45.752  11.340  23.403  0.00  0.00     0.120 A 
ATOM     16  O   UNL d   1     -44.990  11.565  23.187  0.00  0.00    -0.304 OA
ATOM     17  C   UNL d   1     -44.487  10.936  23.349  0.00  0.00     0.123 A 
ATOM     18  C   UNL d   1     -44.939  10.322  23.665  0.00  0.00     0.029 A 
ATOM     19  C   UNL d   1     -45.719  10.573  23.698  0.00  0.00     0.028 A 
ENDBRANCH  14  15
ENDBRANCH  13  14
ENDBRANCH   1  13
TORSDOF 4
ENDMDL
MODEL 6
REMARK VINA RESULT:      -5.4      8.420      9.318
REMARK  4 active torsions:
REMARK  status: ('A' for Active; 'I' for Inactive)
REMARK    1  A    between atoms: C_2  and  S_1 
REMARK    2  A    between atoms: N_4  and  S_1 
REMARK    3  A    between atoms: C_11  and  N_4 
REMARK    4  A    between atoms: C_9  and  C_11 
ROOT
ATOM      1  S   UNL d   1     -39.818  14.692  19.455  0.00  0.00     0.285 S 
ATOM      2  O   UNL d   1     -39.453  15.419  19.593  0.00  0.00    -0.198 OA
ATOM      3  O   UNL d   1     -40.183  13.965  19.316  0.00  0.00    -0.198 OA
ENDROOT
BRANCH   1   4
ATOM      4  C   UNL d   1     -39.379  14.355  20.067  0.00  0.00     0.105 A 
ATOM      5  C   UNL d   1     -39.673  14.370  20.842  0.00  0.00     0.012 A 
ATOM      6  C   UNL d   1     -39.235  14.034  21.453  0.00  0.00     0.001 A 
ATOM      7  C   UNL d   1     -40.403  14.721  21.002  0.00  0.00     0.001 C 
ATOM      8  C   UNL d   1     -39.526  14.047  22.226  0.00  0.00     0.000 C 
ATOM      9  C   UNL d   1     -38.502  13.682  21.291  0.00  0.00     0.000 A 
ATOM     10  C   UNL d   1     -38.212  13.668  20.519  0.00  0.00     0.001 A 
ATOM     11  C   UNL d   1     -38.063  13.345  21.903  0.00  0.00     0.000 C 
ATOM     12  C   UNL d   1     -38.650  14.005  19.908  0.00  0.00     0.013 A 
ENDBRANCH   1   4
BRANCH   1  13
ATOM     13  N   UNL d   1     -40.257  15.029  18.843  0.00  0.00    -0.155 NA
BRANCH  13  14
ATOM     14  C   UNL d   1     -40.115  14.799  18.059  0.00  0.00     0.137 C 
BRANCH  14  15
ATOM     15  C   UNL d   1     -40.515  15.175  17.443  0.00  0.00     0.120 A 
ATOM     16  O   UNL d   1     -41.320  15.114  17.283  0.00  0.00    -0.304 OA
ATOM     17  C   UNL d   1     -41.480  15.576  16.623  0.00  0.00     0.123 A 
ATOM     18  C   UNL d   1     -40.774  15.922  16.375  0.00  0.00     0.029 A 
ATOM     19  C   UNL d   1     -40.178  15.673  16.882  0.00  0.00     0.028 A 
ENDBRANCH  14  15
ENDBRANCH  13  14
ENDBRANCH   1  13
TORSDOF 4
ENDMDL
MODEL 7
REMARK VINA RESULT:      -5.3      8.837      9.686
REMARK  4 active torsions:
REMARK  status: ('A' for Active; 'I' for Inactive)
REMARK    1  A    between atoms: C_2  and  S_1 
REMARK    2  A    between atoms: N_4  and  S_1 
REMARK    3  A    between atoms: C_11  and  N_4 
REMARK    4  A    between atoms: C_9  and  C_11 
ROOT
ATOM      1  S   UNL d   1     -39.685  14.526  19.381  0.00  0.00     0.285 S 
ATOM      2  O   UNL d   1     -39.029  15.012  19.260  0.00  0.00    -0.198 OA
ATOM      3  O   UNL d   1     -40.341  14.040  19.501  0.00  0.00    -0.198 OA
ENDROOT
BRANCH   1   4
ATOM      4  C   UNL d   1     -40.063  14.875  18.735  0.00  0.00     0.105 A 
ATOM      5  C   UNL d   1     -39.938  14.575  17.972  0.00  0.00     0.012 A 
ATOM      6  C   UNL d   1     -40.315  14.924  17.328  0.00  0.00     0.001 A 
ATOM      7  C   UNL d   1     -39.438  13.928  17.858  0.00  0.00     0.001 C 
ATOM      8  C   UNL d   1     -40.192  14.626  16.567  0.00  0.00     0.000 C 
ATOM      9  C   UNL d   1     -40.817  15.573  17.445  0.00  0.00     0.000 A 
ATOM     10  C   UNL d   1     -40.939  15.869  18.205  0.00  0.00     0.001 A 
ATOM     11  C   UNL d   1     -41.194  15.922  16.800  0.00  0.00     0.000 C 
ATOM     12  C   UNL d   1     -40.563  15.521  18.849  0.00  0.00     0.013 A 
ENDBRANCH   1   4
BRANCH   1  13
ATOM     13  N   UNL d   1     -39.308  14.177  20.026  0.00  0.00    -0.155 NA
BRANCH  13  14
ATOM     14  C   UNL d   1     -39.503  14.415  20.795  0.00  0.00     0.137 C 
BRANCH  14  15
ATOM     15  C   UNL d   1     -39.136  14.056  21.441  0.00  0.00     0.120 A 
ATOM     16  O   UNL d   1     -38.522  13.509  21.404  0.00  0.00    -0.304 OA
ATOM     17  C   UNL d   1     -38.327  13.298  22.174  0.00  0.00     0.123 A 
ATOM     18  C   UNL d   1     -38.821  13.715  22.686  0.00  0.00     0.029 A 
ATOM     19  C   UNL d   1     -39.320  14.183  22.232  0.00  0.00     0.028 A 
ENDBRANCH  14  15
ENDBRANCH  13  14
ENDBRANCH   1  13
TORSDOF 4
ENDMDL
MODEL 8
REMARK VINA RESULT:      -4.4      8.183      9.850
REMARK  4 active torsions:
REMARK  status: ('A' for Active; 'I' for Inactive)
REMARK    1  A    between atoms: C_2  and  S_1 
REMARK    2  A    between atoms: N_4  and  S_1 
REMARK    3  A    between atoms: C_11  and  N_4 
REMARK    4  A    between atoms: C_9  and  C_11 
ROOT
ATOM      1  S   UNL d   1     -39.553  14.270  18.286  0.00  0.00     0.285 S 
ATOM      2  O   UNL d   1     -40.218  13.859  18.022  0.00  0.00    -0.198 OA
ATOM      3  O   UNL d   1     -38.889  14.682  18.551  0.00  0.00    -0.198 OA
ENDROOT
BRANCH   1   4
ATOM      4  C   UNL d   1     -39.186  14.146  17.558  0.00  0.00     0.105 A 
ATOM      5  C   UNL d   1     -38.745  13.455  17.430  0.00  0.00     0.012 A 
ATOM      6  C   UNL d   1     -38.379  13.331  16.703  0.00  0.00     0.001 A 
ATOM      7  C   UNL d   1     -38.673  12.893  18.030  0.00  0.00     0.001 C 
ATOM      8  C   UNL d   1     -37.939  12.644  16.573  0.00  0.00     0.000 C 
ATOM      9  C   UNL d   1     -38.452  13.897  16.101  0.00  0.00     0.000 A 
ATOM     10  C   UNL d   1     -38.891  14.584  16.231  0.00  0.00     0.001 A 
ATOM     11  C   UNL d   1     -38.085  13.773  15.373  0.00  0.00     0.000 C 
ATOM     12  C   UNL d   1     -39.258  14.708  16.958  0.00  0.00     0.013 A 
ENDBRANCH   1   4
BRANCH   1  13
ATOM     13  N   UNL d   1     -39.920  14.395  19.014  0.00  0.00    -0.155 NA
BRANCH  13  14
ATOM     14  C   UNL d   1     -40.500  14.982  19.089  0.00  0.00     0.137 C 
BRANCH  14  15
ATOM     15  C   UNL d   1     -40.805  15.166  19.833  0.00  0.00     0.120 A 
ATOM     16  O   UNL d   1     -41.012  14.624  20.417  0.00  0.00    -0.304 OA
ATOM     17  C   UNL d   1     -41.289  15.046  21.064  0.00  0.00     0.123 A 
ATOM     18  C   UNL d   1     -41.253  15.850  20.881  0.00  0.00     0.029 A 
ATOM     19  C   UNL d   1     -40.953  15.922  20.119  0.00  0.00     0.028 A 
ENDBRANCH  14  15
ENDBRANCH  13  14
ENDBRANCH   1  13
TORSDOF 4
ENDMDL
