MODEL 1
REMARK VINA RESULT:      -8.5      0.000      0.000
REMARK  4 active torsions:
REMARK  status: ('A' for Active; 'I' for Inactive)
REMARK    1  A    between atoms: C_5  and  N_1 
REMARK    2  A    between atoms: C_7  and  C_5 
REMARK    3  A    between atoms: O_10  and  C_8 
REMARK    4  A    between atoms: C_14  and  O_10 
ROOT
ATOM      1  C   UNL d   1     -49.134  12.811  23.484  0.00  0.00     0.087 C 
ENDROOT
BRANCH   1   2
ATOM      2  N   UNL d   1     -48.639  12.159  23.521  0.00  0.00    -0.251 N 
ATOM      3  C   UNL d   1     -48.837  11.354  23.617  0.00  0.00     0.378 A 
ATOM      4  O   UNL d   1     -48.133  10.912  23.618  0.00  0.00    -0.258 OA
ATOM      5  O   UNL d   1     -49.601  11.052  23.698  0.00  0.00    -0.237 OA
ATOM      6  C   UNL d   1     -47.500  11.434  23.523  0.00  0.00     0.121 A 
ATOM      7  C   UNL d   1     -47.810  12.201  23.463  0.00  0.00     0.092 A 
ATOM      8  C   UNL d   1     -46.675  11.322  23.482  0.00  0.00     0.026 A 
ATOM      9  C   UNL d   1     -47.300  12.849  23.363  0.00  0.00     0.020 A 
ATOM     10  C   UNL d   1     -46.486  12.732  23.323  0.00  0.00     0.002 A 
ATOM     11  C   UNL d   1     -46.173  11.967  23.383  0.00  0.00     0.002 A 
ENDBRANCH   1   2
BRANCH   1  12
ATOM     12  C   UNL d   1     -49.574  12.965  22.807  0.00  0.00     0.041 A 
ATOM     13  C   UNL d   1     -50.008  13.656  22.744  0.00  0.00     0.101 A 
ATOM     14  C   UNL d   1     -50.447  13.809  22.068  0.00  0.00     0.025 A 
ATOM     15  C   UNL d   1     -50.450  13.261  21.448  0.00  0.00     0.002 A 
ATOM     16  C   UNL d   1     -50.013  12.562  21.506  0.00  0.00     0.000 A 
ATOM     17  C   UNL d   1     -49.574  12.413  22.187  0.00  0.00     0.004 A 
BRANCH  13  18
ATOM     18  O   UNL d   1     -50.006  14.204  23.364  0.00  0.00    -0.307 OA
BRANCH  18  19
ATOM     19  C   UNL d   1     -50.279  14.974  23.235  0.00  0.00     0.100 C 
ATOM     20  C   UNL d   1     -51.063  15.165  23.387  0.00  0.00     0.027 C 
ATOM     21  C   UNL d   1     -49.761  15.550  22.952  0.00  0.00     0.027 C 
ENDBRANCH  18  19
ENDBRANCH  13  18
ENDBRANCH   1  12
TORSDOF 4
ENDMDL
MODEL 2
REMARK VINA RESULT:      -8.1      1.339      1.813
REMARK  4 active torsions:
REMARK  status: ('A' for Active; 'I' for Inactive)
REMARK    1  A    between atoms: C_5  and  N_1 
REMARK    2  A    between atoms: C_7  and  C_5 
REMARK    3  A    between atoms: O_10  and  C_8 
REMARK    4  A    between atoms: C_14  and  O_10 
ROOT
ATOM      1  C   UNL d   1     -48.088  13.502  23.290  0.00  0.00     0.087 C 
ENDROOT
BRANCH   1   2
ATOM      2  N   UNL d   1     -47.314  13.253  23.188  0.00  0.00    -0.251 N 
ATOM      3  C   UNL d   1     -46.652  13.691  22.930  0.00  0.00     0.378 A 
ATOM      4  O   UNL d   1     -45.993  13.182  22.921  0.00  0.00    -0.258 OA
ATOM      5  O   UNL d   1     -46.653  14.489  22.722  0.00  0.00    -0.237 OA
ATOM      6  C   UNL d   1     -46.240  12.435  23.170  0.00  0.00     0.121 A 
ATOM      7  C   UNL d   1     -47.052  12.477  23.334  0.00  0.00     0.092 A 
ATOM      8  C   UNL d   1     -45.840  11.711  23.273  0.00  0.00     0.026 A 
ATOM      9  C   UNL d   1     -47.459  11.802  23.599  0.00  0.00     0.020 A 
ATOM     10  C   UNL d   1     -47.057  11.091  23.698  0.00  0.00     0.002 A 
ATOM     11  C   UNL d   1     -46.245  11.045  23.535  0.00  0.00     0.002 A 
ENDBRANCH   1   2
BRANCH   1  12
ATOM     12  C   UNL d   1     -48.592  13.575  22.645  0.00  0.00     0.041 A 
ATOM     13  C   UNL d   1     -49.324  13.932  22.731  0.00  0.00     0.101 A 
ATOM     14  C   UNL d   1     -49.827  14.005  22.086  0.00  0.00     0.025 A 
ATOM     15  C   UNL d   1     -49.592  13.715  21.347  0.00  0.00     0.002 A 
ATOM     16  C   UNL d   1     -48.855  13.354  21.255  0.00  0.00     0.000 A 
ATOM     17  C   UNL d   1     -48.353  13.283  21.905  0.00  0.00     0.004 A 
BRANCH  13  18
ATOM     18  O   UNL d   1     -49.559  14.222  23.469  0.00  0.00    -0.307 OA
BRANCH  18  19
ATOM     19  C   UNL d   1     -50.266  14.646  23.540  0.00  0.00     0.100 C 
ATOM     20  C   UNL d   1     -50.267  15.463  23.462  0.00  0.00     0.027 C 
ATOM     21  C   UNL d   1     -50.971  14.245  23.689  0.00  0.00     0.027 C 
ENDBRANCH  18  19
ENDBRANCH  13  18
ENDBRANCH   1  12
TORSDOF 4
ENDMDL
MODEL 3
REMARK VINA RESULT:      -8.0      1.309      3.726
REMARK  4 active torsions:
REMARK  status: ('A' for Active; 'I' for Inactive)
REMARK    1  A    between atoms: C_5  and  N_1 
REMARK    2  A    between atoms: C_7  and  C_5 
REMARK    3  A    between atoms: O_10  and  C_8 
REMARK    4  A    between atoms: C_14  and  O_10 
ROOT
ATOM      1  C   UNL d   1     -48.631  13.543  22.151  0.00  0.00     0.087 C 
ENDROOT
BRANCH   1   2
ATOM      2  N   UNL d   1     -49.433  13.707  22.163  0.00  0.00    -0.251 N 
ATOM      3  C   UNL d   1     -50.058  13.299  21.790  0.00  0.00     0.378 A 
ATOM      4  O   UNL d   1     -50.770  13.689  21.976  0.00  0.00    -0.258 OA
ATOM      5  O   UNL d   1     -49.981  12.626  21.319  0.00  0.00    -0.237 OA
ATOM      6  C   UNL d   1     -50.592  14.333  22.460  0.00  0.00     0.121 A 
ATOM      7  C   UNL d   1     -49.771  14.346  22.576  0.00  0.00     0.092 A 
ATOM      8  C   UNL d   1     -51.064  14.920  22.818  0.00  0.00     0.026 A 
ATOM      9  C   UNL d   1     -49.426  14.939  23.045  0.00  0.00     0.020 A 
ATOM     10  C   UNL d   1     -49.898  15.515  23.395  0.00  0.00     0.002 A 
ATOM     11  C   UNL d   1     -50.719  15.506  23.281  0.00  0.00     0.002 A 
ENDBRANCH   1   2
BRANCH   1  12
ATOM     12  C   UNL d   1     -48.319  12.942  22.617  0.00  0.00     0.041 A 
ATOM     13  C   UNL d   1     -47.509  12.864  22.703  0.00  0.00     0.101 A 
ATOM     14  C   UNL d   1     -47.198  12.264  23.169  0.00  0.00     0.025 A 
ATOM     15  C   UNL d   1     -47.708  11.736  23.551  0.00  0.00     0.002 A 
ATOM     16  C   UNL d   1     -48.526  11.810  23.467  0.00  0.00     0.000 A 
ATOM     17  C   UNL d   1     -48.834  12.414  22.999  0.00  0.00     0.004 A 
BRANCH  13  18
ATOM     18  O   UNL d   1     -46.999  13.392  22.321  0.00  0.00    -0.307 OA
BRANCH  18  19
ATOM     19  C   UNL d   1     -46.208  13.446  22.558  0.00  0.00     0.100 C 
ATOM     20  C   UNL d   1     -45.629  13.017  22.165  0.00  0.00     0.027 C 
ATOM     21  C   UNL d   1     -46.003  13.933  23.191  0.00  0.00     0.027 C 
ENDBRANCH  18  19
ENDBRANCH  13  18
ENDBRANCH   1  12
TORSDOF 4
ENDMDL
MODEL 4
REMARK VINA RESULT:      -5.6      9.468     11.182
REMARK  4 active torsions:
REMARK  status: ('A' for Active; 'I' for Inactive)
REMARK    1  A    between atoms: C_5  and  N_1 
REMARK    2  A    between atoms: C_7  and  C_5 
REMARK    3  A    between atoms: O_10  and  C_8 
REMARK    4  A    between atoms: C_14  and  O_10 
ROOT
ATOM      1  C   UNL d   1     -39.638  14.151  18.338  0.00  0.00     0.087 C 
ENDROOT
BRANCH   1   2
ATOM      2  N   UNL d   1     -39.222  14.014  17.646  0.00  0.00    -0.251 N 
ATOM      3  C   UNL d   1     -38.967  13.289  17.321  0.00  0.00     0.378 A 
ATOM      4  O   UNL d   1     -38.566  13.451  16.609  0.00  0.00    -0.258 OA
ATOM      5  O   UNL d   1     -39.092  12.543  17.649  0.00  0.00    -0.237 OA
ATOM      6  C   UNL d   1     -38.570  14.268  16.490  0.00  0.00     0.121 A 
ATOM      7  C   UNL d   1     -38.973  14.615  17.126  0.00  0.00     0.092 A 
ATOM      8  C   UNL d   1     -38.262  14.754  15.887  0.00  0.00     0.026 A 
ATOM      9  C   UNL d   1     -39.066  15.440  17.159  0.00  0.00     0.020 A 
ATOM     10  C   UNL d   1     -38.759  15.914  16.560  0.00  0.00     0.002 A 
ATOM     11  C   UNL d   1     -38.356  15.570  15.923  0.00  0.00     0.002 A 
ENDBRANCH   1   2
BRANCH   1  12
ATOM     12  C   UNL d   1     -39.260  14.116  19.067  0.00  0.00     0.041 A 
ATOM     13  C   UNL d   1     -39.655  14.342  19.748  0.00  0.00     0.101 A 
ATOM     14  C   UNL d   1     -39.277  14.307  20.476  0.00  0.00     0.025 A 
ATOM     15  C   UNL d   1     -38.493  14.043  20.519  0.00  0.00     0.002 A 
ATOM     16  C   UNL d   1     -38.091  13.814  19.835  0.00  0.00     0.000 A 
ATOM     17  C   UNL d   1     -38.475  13.851  19.107  0.00  0.00     0.004 A 
BRANCH  13  18
ATOM     18  O   UNL d   1     -40.437  14.606  19.705  0.00  0.00    -0.307 OA
BRANCH  18  19
ATOM     19  C   UNL d   1     -40.828  14.852  20.391  0.00  0.00     0.100 C 
ATOM     20  C   UNL d   1     -41.222  14.306  20.860  0.00  0.00     0.027 C 
ATOM     21  C   UNL d   1     -40.820  15.649  20.603  0.00  0.00     0.027 C 
ENDBRANCH  18  19
ENDBRANCH  13  18
ENDBRANCH   1  12
TORSDOF 4
ENDMDL
