MODEL 1
REMARK VINA RESULT:      36.6      0.000      0.000
REMARK  9 active torsions:
REMARK  status: ('A' for Active; 'I' for Inactive)
REMARK    1  A    between atoms: N_4  and  C_1 
REMARK    2  A    between atoms: C_12  and  C_3 
REMARK       I    between atoms: C_11  and  N_4 
REMARK       I    between atoms: C_6  and  N_5 
REMARK    3  A    between atoms: O_27  and  C_6 
REMARK       I    between atoms: N_7  and  C_10 
REMARK    4  A    between atoms: C_10  and  C_28 
REMARK    5  A    between atoms: C_29  and  C_11 
REMARK    6  A    between atoms: C_25  and  C_18 
REMARK    7  A    between atoms: S_26  and  C_29 
REMARK    8  A    between atoms: C_28  and  S_26 
REMARK    9  A    between atoms: C_32  and  O_27 
ROOT
ATOM      1  N   UNL d   1     -41.454-121.959 -49.888  0.00  0.00    -0.182 NA
ATOM      2  C   UNL d   1     -41.543-122.757 -49.779  0.00  0.00     0.288 C 
ATOM      3  O   UNL d   1     -41.587-123.255 -50.419  0.00  0.00    -0.265 OA
ENDROOT
BRANCH   1   4
ATOM      4  C   UNL d   1     -41.410-121.657 -50.646  0.00  0.00     0.197 A 
ATOM      5  N   UNL d   1     -41.645-122.037 -51.330  0.00  0.00    -0.221 NA
ATOM      6  C   UNL d   1     -41.504-121.542 -51.956  0.00  0.00     0.090 A 
ATOM      7  C   UNL d   1     -41.182-120.857 -51.656  0.00  0.00     0.058 A 
ATOM      8  S   UNL d   1     -41.124-120.927 -50.853  0.00  0.00    -0.046 SA
BRANCH   6   9
ATOM      9  C   UNL d   1     -41.656-121.701 -52.733  0.00  0.00     0.018 A 
ATOM     10  C   UNL d   1     -41.536-122.445 -53.022  0.00  0.00     0.002 A 
ATOM     11  C   UNL d   1     -41.687-122.608 -53.801  0.00  0.00     0.000 A 
ATOM     12  C   UNL d   1     -41.960-122.020 -54.287  0.00  0.00     0.000 A 
ATOM     13  C   UNL d   1     -42.082-121.269 -53.994  0.00  0.00     0.000 A 
ATOM     14  C   UNL d   1     -41.927-121.118 -53.217  0.00  0.00     0.002 A 
BRANCH  12  15
ATOM     15  C   UNL d   1     -42.118-122.182 -55.087  0.00  0.00     0.000 A 
ATOM     16  C   UNL d   1     -42.206-121.551 -55.622  0.00  0.00     0.000 A 
ATOM     17  C   UNL d   1     -42.362-121.706 -56.417  0.00  0.00     0.000 A 
ATOM     18  C   UNL d   1     -42.430-122.494 -56.677  0.00  0.00     0.000 A 
ATOM     19  C   UNL d   1     -42.339-123.120 -56.136  0.00  0.00     0.000 A 
ATOM     20  C   UNL d   1     -42.183-122.956 -55.339  0.00  0.00     0.000 A 
ENDBRANCH  12  15
ENDBRANCH   6   9
ENDBRANCH   1   4
BRANCH   2  21
ATOM     21  C   UNL d   1     -41.587-123.054 -49.028  0.00  0.00     0.098 C 
BRANCH  21  22
ATOM     22  S   UNL d   1     -42.335-123.440 -48.847  0.00  0.00    -0.076 SA
BRANCH  22  23
ATOM     23  C   UNL d   1     -43.056-122.978 -48.789  0.00  0.00     0.097 C 
BRANCH  23  24
ATOM     24  C   UNL d   1     -43.680-123.082 -49.359  0.00  0.00     0.271 C 
ATOM     25  N   UNL d   1     -44.232-122.444 -49.510  0.00  0.00    -0.269 N 
ATOM     26  C   UNL d   1     -44.862-122.540 -50.081  0.00  0.00     0.102 A 
ATOM     27  C   UNL d   1     -44.150-121.697 -49.079  0.00  0.00     0.102 A 
ATOM     28  C   UNL d   1     -45.412-121.899 -50.229  0.00  0.00     0.104 A 
ATOM     29  N   UNL d   1     -45.329-121.152 -49.798  0.00  0.00    -0.249 N 
ATOM     30  C   UNL d   1     -44.701-121.059 -49.229  0.00  0.00     0.104 A 
ATOM     31  C   UNL d   1     -45.860-120.536 -49.942  0.00  0.00     0.378 C 
ATOM     32  O   UNL d   1     -46.469-120.630 -50.495  0.00  0.00    -0.237 OA
ATOM     33  O   UNL d   1     -43.759-123.816 -49.781  0.00  0.00    -0.266 OA
BRANCH  31  34
ATOM     34  O   UNL d   1     -45.781-119.822 -49.530  0.00  0.00    -0.257 OA
BRANCH  34  35
ATOM     35  C   UNL d   1     -46.320-119.621 -48.937  0.00  0.00     0.128 C 
ATOM     36  C   UNL d   1     -46.305-118.866 -48.590  0.00  0.00     0.029 C 
ENDBRANCH  34  35
ENDBRANCH  31  34
ENDBRANCH  23  24
ENDBRANCH  22  23
ENDBRANCH  21  22
ENDBRANCH   2  21
TORSDOF 9
ENDMDL
