MODEL 1
REMARK VINA RESULT:      54.8      0.000      0.000
REMARK  7 active torsions:
REMARK  status: ('A' for Active; 'I' for Inactive)
REMARK    1  A    between atoms: S_10  and  C_3 
REMARK    2  A    between atoms: C_12  and  C_7 
REMARK    3  A    between atoms: C_19  and  S_10 
REMARK    4  A    between atoms: C_11  and  C_19 
REMARK       I    between atoms: N_14  and  C_11 
REMARK    5  A    between atoms: C_13  and  C_15 
REMARK    6  A    between atoms: C_15  and  N_14 
REMARK    7  A    between atoms: O_21  and  C_17 
ROOT
ATOM      1  N   UNL d   1     -57.771 -98.975 -44.236  0.00  0.00    -0.186 N 
ATOM      2  N   UNL d   1     -58.107 -99.108 -43.504  0.00  0.00    -0.162 NA
ATOM      3  C   UNL d   1     -56.985 -98.872 -44.471  0.00  0.00     0.217 A 
ATOM      4  C   UNL d   1     -58.238 -98.922 -44.912  0.00  0.00     0.187 A 
ATOM      5  N   UNL d   1     -56.981 -98.757 -45.280  0.00  0.00    -0.120 NA
ATOM      6  N   UNL d   1     -57.757 -98.788 -45.555  0.00  0.00    -0.127 NA
ATOM      7  C   UNL d   1     -58.927 -99.190 -43.443  0.00  0.00     0.103 A 
ATOM      8  C   UNL d   1     -59.062 -99.004 -44.847  0.00  0.00     0.042 A 
ATOM      9  C   UNL d   1     -59.402 -99.137 -44.119  0.00  0.00     0.024 A 
ENDROOT
BRANCH   3  10
ATOM     10  S   UNL d   1     -56.313 -98.879 -43.992  0.00  0.00    -0.041 SA
BRANCH  10  11
ATOM     11  C   UNL d   1     -55.572 -98.911 -44.322  0.00  0.00     0.101 C 
BRANCH  11  12
ATOM     12  C   UNL d   1     -55.364 -99.533 -44.806  0.00  0.00     0.286 C 
ATOM     13  N   UNL d   1     -54.939-100.170 -44.503  0.00  0.00    -0.206 NA
ATOM     14  O   UNL d   1     -55.573 -99.541 -45.605  0.00  0.00    -0.265 OA
BRANCH  13  15
ATOM     15  C   UNL d   1     -54.725-100.171 -43.706  0.00  0.00     0.104 C 
BRANCH  15  16
ATOM     16  C   UNL d   1     -54.775-100.870 -43.269  0.00  0.00     0.042 A 
ATOM     17  C   UNL d   1     -54.886-101.595 -43.657  0.00  0.00     0.096 A 
ATOM     18  C   UNL d   1     -54.937-102.297 -43.224  0.00  0.00     0.024 A 
ATOM     19  C   UNL d   1     -54.874-102.267 -42.393  0.00  0.00     0.002 A 
ATOM     20  C   UNL d   1     -54.763-101.543 -42.014  0.00  0.00     0.000 A 
ATOM     21  C   UNL d   1     -54.714-100.848 -42.447  0.00  0.00     0.004 A 
BRANCH  17  22
ATOM     22  O   UNL d   1     -54.948-101.624 -44.479  0.00  0.00    -0.328 OA
ATOM     23  C   UNL d   1     -54.717-102.293 -44.886  0.00  0.00     0.181 C 
ENDBRANCH  17  22
ENDBRANCH  15  16
ENDBRANCH  13  15
ENDBRANCH  11  12
ENDBRANCH  10  11
ENDBRANCH   3  10
BRANCH   7  24
ATOM     24  C   UNL d   1     -59.262 -99.325 -42.700  0.00  0.00     0.039 A 
ATOM     25  C   UNL d   1     -59.242 -98.756 -42.126  0.00  0.00     0.101 A 
ATOM     26  N   UNL d   1     -59.572 -98.894 -41.398  0.00  0.00    -0.242 NA
ATOM     27  C   UNL d   1     -59.934 -99.618 -41.234  0.00  0.00     0.099 A 
ATOM     28  C   UNL d   1     -59.954-100.196 -41.818  0.00  0.00     0.021 A 
ATOM     29  C   UNL d   1     -59.618-100.054 -42.557  0.00  0.00     0.005 A 
ENDBRANCH   7  24
TORSDOF 7
ENDMDL
