MODEL 1
REMARK VINA RESULT:      20.7      0.000      0.000
REMARK  3 active torsions:
REMARK  status: ('A' for Active; 'I' for Inactive)
REMARK    1  A    between atoms: S_2  and  N_1 
REMARK    2  A    between atoms: C_7  and  S_2 
REMARK    3  A    between atoms: C_14  and  C_6 
ROOT
ATOM      1  S   UNL d   1     -51.436  25.036  33.407  0.00  0.00     0.273 S 
ATOM      2  O   UNL d   1     -50.762  24.663  33.523  0.00  0.00    -0.200 OA
ATOM      3  O   UNL d   1     -52.146  25.209  33.306  0.00  0.00    -0.200 OA
ENDROOT
BRANCH   1   4
ATOM      4  N   UNL d   1     -51.802  24.386  33.425  0.00  0.00    -0.202 N 
ATOM      5  C   UNL d   1     -51.486  23.702  33.378  0.00  0.00     0.218 A 
ATOM      6  N   UNL d   1     -52.042  23.188  33.418  0.00  0.00    -0.178 NA
ATOM      7  S   UNL d   1     -50.734  23.682  33.306  0.00  0.00    -0.037 SA
ATOM      8  C   UNL d   1     -52.688  23.560  33.489  0.00  0.00     0.298 A 
ATOM      9  C   UNL d   1     -52.544  24.297  33.494  0.00  0.00     0.135 A 
ATOM     10  O   UNL d   1     -53.354  23.215  33.544  0.00  0.00    -0.264 OA
BRANCH   9  11
ATOM     11  C   UNL d   1     -53.045  24.852  33.556  0.00  0.00     0.022 C 
ATOM     12  C   UNL d   1     -53.745  24.747  33.308  0.00  0.00     0.002 C 
ATOM     13  C   UNL d   1     -52.848  25.507  33.864  0.00  0.00     0.002 C 
ENDBRANCH   9  11
ENDBRANCH   1   4
BRANCH   1  14
ATOM     14  C   UNL d   1     -51.097  25.788  33.375  0.00  0.00     0.104 A 
ATOM     15  C   UNL d   1     -50.274  25.878  33.339  0.00  0.00     0.012 A 
ATOM     16  C   UNL d   1     -49.935  26.630  33.307  0.00  0.00     0.001 A 
ATOM     17  C   UNL d   1     -49.796  25.185  33.335  0.00  0.00     0.001 C 
ATOM     18  C   UNL d   1     -50.414  27.300  33.311  0.00  0.00     0.000 A 
ATOM     19  C   UNL d   1     -51.238  27.220  33.348  0.00  0.00     0.001 A 
ATOM     20  C   UNL d   1     -51.581  26.461  33.379  0.00  0.00     0.013 A 
ATOM     21  C   UNL d   1     -51.723  27.897  33.352  0.00  0.00     0.000 C 
ENDBRANCH   1  14
TORSDOF 3
ENDMDL
