MODEL 1
REMARK VINA RESULT:      -4.2      0.000      0.000
REMARK  5 active torsions:
REMARK  status: ('A' for Active; 'I' for Inactive)
REMARK    1  A    between atoms: C_15  and  C_3 
REMARK    2  A    between atoms: S_9  and  C_4 
REMARK       I    between atoms: N_6  and  C_8 
REMARK    3  A    between atoms: C_16  and  N_7 
REMARK    4  A    between atoms: C_8  and  C_14 
REMARK    5  A    between atoms: C_14  and  S_9 
ROOT
ATOM      1  N   UNL d   1      57.720   0.673  32.409  0.00  0.00    -0.269 N 
ATOM      2  N   UNL d   1      56.358   0.666  33.340  0.00  0.00    -0.301 N 
ATOM      3  C   UNL d   1      58.403   0.676  31.935  0.00  0.00     0.272 C 
ATOM      4  C   UNL d   1      56.973   0.667  32.060  0.00  0.00     0.102 A 
ATOM      5  C   UNL d   1      57.783   0.675  33.228  0.00  0.00     0.102 A 
ATOM      6  C   UNL d   1      57.102   0.672  33.702  0.00  0.00     0.100 A 
ATOM      7  C   UNL d   1      56.291   0.664  32.523  0.00  0.00     0.100 A 
ATOM      8  O   UNL d   1      59.147   0.682  32.280  0.00  0.00    -0.266 OA
ENDROOT
BRANCH   3   9
ATOM      9  C   UNL d   1      58.329   0.674  31.116  0.00  0.00     0.100 C 
BRANCH   9  10
ATOM     10  S   UNL d   1      58.996   0.576  30.637  0.00  0.00    -0.036 SA
BRANCH  10  11
ATOM     11  C   UNL d   1      58.991   0.027  30.010  0.00  0.00     0.236 A 
ATOM     12  O   UNL d   1      59.317  -0.720  30.007  0.00  0.00    -0.263 OA
ATOM     13  C   UNL d   1      59.177  -1.062  29.266  0.00  0.00     0.205 A 
ATOM     14  N   UNL d   1      58.760  -0.517  28.816  0.00  0.00    -0.120 NA
ATOM     15  N   UNL d   1      58.643   0.164  29.280  0.00  0.00    -0.114 NA
BRANCH  13  16
ATOM     16  C   UNL d   1      59.400  -1.810  28.998  0.00  0.00     0.043 A 
ATOM     17  C   UNL d   1      58.829  -2.388  28.878  0.00  0.00     0.004 A 
ATOM     18  C   UNL d   1      59.052  -3.137  28.610  0.00  0.00     0.000 A 
ATOM     19  C   UNL d   1      59.846  -3.302  28.463  0.00  0.00     0.000 A 
ATOM     20  C   UNL d   1      60.418  -2.719  28.583  0.00  0.00     0.000 A 
ATOM     21  C   UNL d   1      60.194  -1.975  28.850  0.00  0.00     0.004 A 
ENDBRANCH  13  16
ENDBRANCH  10  11
ENDBRANCH   9  10
ENDBRANCH   3   9
BRANCH   2  22
ATOM     22  C   UNL d   1      55.680   0.663  33.812  0.00  0.00     0.064 A 
ATOM     23  C   UNL d   1      55.754   0.640  34.628  0.00  0.00     0.018 A 
ATOM     24  C   UNL d   1      55.074   0.636  35.112  0.00  0.00     0.002 A 
ATOM     25  C   UNL d   1      54.332   0.655  34.765  0.00  0.00     0.000 A 
ATOM     26  C   UNL d   1      54.252   0.678  33.941  0.00  0.00     0.002 A 
ATOM     27  C   UNL d   1      54.934   0.682  33.468  0.00  0.00     0.018 A 
ENDBRANCH   2  22
TORSDOF 5
ENDMDL
MODEL 2
REMARK VINA RESULT:      -3.1      1.211      6.017
REMARK  5 active torsions:
REMARK  status: ('A' for Active; 'I' for Inactive)
REMARK    1  A    between atoms: C_15  and  C_3 
REMARK    2  A    between atoms: S_9  and  C_4 
REMARK       I    between atoms: N_6  and  C_8 
REMARK    3  A    between atoms: C_16  and  N_7 
REMARK    4  A    between atoms: C_8  and  C_14 
REMARK    5  A    between atoms: C_14  and  S_9 
ROOT
ATOM      1  N   UNL d   1      59.776  -1.213  29.462  0.00  0.00    -0.269 N 
ATOM      2  N   UNL d   1      60.052  -2.789  29.057  0.00  0.00    -0.301 N 
ATOM      3  C   UNL d   1      59.630  -0.420  29.664  0.00  0.00     0.272 C 
ATOM      4  C   UNL d   1      59.161  -1.690  29.186  0.00  0.00     0.102 A 
ATOM      5  C   UNL d   1      60.530  -1.529  29.535  0.00  0.00     0.102 A 
ATOM      6  C   UNL d   1      60.676  -2.320  29.333  0.00  0.00     0.100 A 
ATOM      7  C   UNL d   1      59.297  -2.477  28.983  0.00  0.00     0.100 A 
ATOM      8  O   UNL d   1      60.239   0.056  29.939  0.00  0.00    -0.266 OA
ENDROOT
BRANCH   3   9
ATOM      9  C   UNL d   1      58.871  -0.114  29.588  0.00  0.00     0.100 C 
BRANCH   9  10
ATOM     10  S   UNL d   1      58.650   0.563  30.007  0.00  0.00    -0.036 SA
BRANCH  10  11
ATOM     11  C   UNL d   1      57.981   0.555  30.504  0.00  0.00     0.236 A 
ATOM     12  O   UNL d   1      57.967   0.424  31.308  0.00  0.00    -0.263 OA
ATOM     13  C   UNL d   1      57.180   0.468  31.565  0.00  0.00     0.205 A 
ATOM     14  N   UNL d   1      56.713   0.627  30.909  0.00  0.00    -0.120 NA
ATOM     15  N   UNL d   1      57.212   0.681  30.245  0.00  0.00    -0.114 NA
BRANCH  13  16
ATOM     16  C   UNL d   1      56.886   0.375  32.331  0.00  0.00     0.043 A 
ATOM     17  C   UNL d   1      57.377   0.509  32.976  0.00  0.00     0.004 A 
ATOM     18  C   UNL d   1      57.083   0.416  33.742  0.00  0.00     0.000 A 
ATOM     19  C   UNL d   1      56.299   0.188  33.857  0.00  0.00     0.000 A 
ATOM     20  C   UNL d   1      55.808   0.053  33.208  0.00  0.00     0.000 A 
ATOM     21  C   UNL d   1      56.103   0.147  32.447  0.00  0.00     0.004 A 
ENDBRANCH  13  16
ENDBRANCH  10  11
ENDBRANCH   9  10
ENDBRANCH   3   9
BRANCH   2  22
ATOM     22  C   UNL d   1      60.197  -3.577  28.856  0.00  0.00     0.064 A 
ATOM     23  C   UNL d   1      60.970  -3.847  28.808  0.00  0.00     0.018 A 
ATOM     24  C   UNL d   1      61.126  -4.642  28.606  0.00  0.00     0.002 A 
ATOM     25  C   UNL d   1      60.500  -5.149  28.456  0.00  0.00     0.000 A 
ATOM     26  C   UNL d   1      59.718  -4.881  28.503  0.00  0.00     0.002 A 
ATOM     27  C   UNL d   1      59.573  -4.089  28.705  0.00  0.00     0.018 A 
ENDBRANCH   2  22
TORSDOF 5
ENDMDL
