MODEL 1
REMARK VINA RESULT:      46.4      0.000      0.000
REMARK  7 active torsions:
REMARK  status: ('A' for Active; 'I' for Inactive)
REMARK    1  A    between atoms: C_3  and  C_1 
REMARK    2  A    between atoms: C_4  and  C_1 
REMARK    3  A    between atoms: C_2  and  C_5 
REMARK    4  A    between atoms: O_14  and  C_2 
REMARK    5  A    between atoms: C_6  and  C_3 
REMARK    6  A    between atoms: C_13  and  C_4 
REMARK    7  A    between atoms: O_20  and  C_15 
ROOT
ATOM      1  C   UNL d   1     -50.185  27.145  33.961  0.00  0.00     0.042 C 
ENDROOT
BRANCH   1   2
ATOM      2  C   UNL d   1     -50.945  26.934  33.718  0.00  0.00     0.196 C 
ATOM      3  O   UNL d   1     -51.516  27.512  33.577  0.00  0.00    -0.287 OA
BRANCH   2   4
ATOM      4  C   UNL d   1     -51.130  26.139  33.617  0.00  0.00     0.039 A 
ATOM      5  C   UNL d   1     -50.529  25.590  33.443  0.00  0.00     0.005 A 
ATOM      6  C   UNL d   1     -50.717  24.792  33.342  0.00  0.00     0.024 A 
ATOM      7  C   UNL d   1     -51.503  24.546  33.415  0.00  0.00     0.094 A 
ATOM      8  C   UNL d   1     -52.098  25.089  33.587  0.00  0.00     0.024 A 
ATOM      9  C   UNL d   1     -51.913  25.884  33.688  0.00  0.00     0.005 A 
BRANCH   7  10
ATOM     10  O   UNL d   1     -51.687  23.751  33.314  0.00  0.00    -0.328 OA
ATOM     11  C   UNL d   1     -52.232  23.383  33.820  0.00  0.00     0.181 C 
ENDBRANCH   7  10
ENDBRANCH   2   4
ENDBRANCH   1   2
BRANCH   1  12
ATOM     12  C   UNL d   1     -49.840  27.842  33.671  0.00  0.00     0.003 C 
BRANCH  12  13
ATOM     13  C   UNL d   1     -49.302  28.260  34.132  0.00  0.00     0.000 A 
ATOM     14  C   UNL d   1     -49.223  29.065  34.027  0.00  0.00     0.000 A 
ATOM     15  C   UNL d   1     -48.684  29.491  34.487  0.00  0.00     0.005 A 
ATOM     16  C   UNL d   1     -48.223  29.095  35.056  0.00  0.00     0.063 A 
ATOM     17  C   UNL d   1     -48.308  28.281  35.156  0.00  0.00     0.005 A 
ATOM     18  C   UNL d   1     -48.846  27.864  34.696  0.00  0.00     0.000 A 
BRANCH  16  19
ATOM     19  C   UNL d   1     -47.685  29.513  35.517  0.00  0.00     0.296 C 
ATOM     20  O   UNL d   1     -47.649  29.382  36.330  0.00  0.00    -0.259 OA
BRANCH  19  21
ATOM     21  O   UNL d   1     -47.183  30.061  35.166  0.00  0.00    -0.296 OA
ATOM     22  C   UNL d   1     -46.968  30.749  35.564  0.00  0.00     0.185 C 
ENDBRANCH  19  21
ENDBRANCH  16  19
ENDBRANCH  12  13
ENDBRANCH   1  12
TORSDOF 7
ENDMDL
