MODEL 1
REMARK VINA RESULT:      -7.8      0.000      0.000
REMARK  3 active torsions:
REMARK  status: ('A' for Active; 'I' for Inactive)
REMARK    1  A    between atoms: C_3  and  C_1 
REMARK    2  A    between atoms: C_8  and  C_3 
REMARK    3  A    between atoms: C_10  and  C_4 
ROOT
ATOM      1  C   UNL d   1     -50.078  13.802  22.680  0.00  0.00     0.092 C 
ATOM      2  C   UNL d   1     -50.566  13.651  22.032  0.00  0.00     0.103 C 
ATOM      3  N   UNL d   1     -51.054  13.474  21.373  0.00  0.00    -0.191 NA
ENDROOT
BRANCH   1   4
ATOM      4  C   UNL d   1     -49.610  13.182  22.991  0.00  0.00     0.120 A 
ATOM      5  N   UNL d   1     -48.772  13.108  22.942  0.00  0.00    -0.238 NA
ATOM      6  C   UNL d   1     -48.551  12.408  23.328  0.00  0.00     0.088 A 
ATOM      7  C   UNL d   1     -49.245  12.061  23.607  0.00  0.00     0.056 A 
ATOM      8  S   UNL d   1     -49.869  12.545  23.393  0.00  0.00    -0.065 SA
BRANCH   6   9
ATOM      9  C   UNL d   1     -47.755  12.130  23.403  0.00  0.00     0.018 A 
ATOM     10  C   UNL d   1     -47.131  12.656  23.252  0.00  0.00     0.002 A 
ATOM     11  C   UNL d   1     -46.354  12.393  23.323  0.00  0.00     0.000 A 
ATOM     12  C   UNL d   1     -46.181  11.589  23.550  0.00  0.00     0.000 A 
ATOM     13  C   UNL d   1     -46.811  11.075  23.698  0.00  0.00     0.000 A 
ATOM     14  C   UNL d   1     -47.607  11.354  23.622  0.00  0.00     0.002 A 
ENDBRANCH   6   9
ENDBRANCH   1   4
BRANCH   1  15
ATOM     15  C   UNL d   1     -50.069  14.557  22.999  0.00  0.00     0.012 A 
ATOM     16  C   UNL d   1     -50.402  14.906  23.679  0.00  0.00     0.001 A 
ATOM     17  C   UNL d   1     -50.191  15.696  23.696  0.00  0.00     0.000 A 
ATOM     18  C   UNL d   1     -49.734  15.842  23.039  0.00  0.00     0.000 A 
ATOM     19  C   UNL d   1     -49.655  15.149  22.608  0.00  0.00     0.001 A 
ENDBRANCH   1  15
TORSDOF 3
ENDMDL
MODEL 2
REMARK VINA RESULT:      -7.1      1.433      2.095
REMARK  3 active torsions:
REMARK  status: ('A' for Active; 'I' for Inactive)
REMARK    1  A    between atoms: C_3  and  C_1 
REMARK    2  A    between atoms: C_8  and  C_3 
REMARK    3  A    between atoms: C_10  and  C_4 
ROOT
ATOM      1  C   UNL d   1     -49.788  12.376  22.944  0.00  0.00     0.092 C 
ATOM      2  C   UNL d   1     -50.236  11.791  23.312  0.00  0.00     0.103 C 
ATOM      3  N   UNL d   1     -50.672  11.186  23.698  0.00  0.00    -0.191 NA
ENDROOT
BRANCH   1   4
ATOM      4  C   UNL d   1     -48.964  12.414  23.093  0.00  0.00     0.120 A 
ATOM      5  N   UNL d   1     -48.411  12.940  22.738  0.00  0.00    -0.238 NA
ATOM      6  C   UNL d   1     -47.661  12.778  23.053  0.00  0.00     0.088 A 
ATOM      7  C   UNL d   1     -47.758  12.161  23.592  0.00  0.00     0.056 A 
ATOM      8  S   UNL d   1     -48.551  11.959  23.598  0.00  0.00    -0.065 SA
BRANCH   6   9
ATOM      9  C   UNL d   1     -46.950  13.185  22.841  0.00  0.00     0.018 A 
ATOM     10  C   UNL d   1     -46.891  13.997  23.002  0.00  0.00     0.002 A 
ATOM     11  C   UNL d   1     -46.203  14.402  22.799  0.00  0.00     0.000 A 
ATOM     12  C   UNL d   1     -45.550  13.998  22.426  0.00  0.00     0.000 A 
ATOM     13  C   UNL d   1     -45.620  13.189  22.271  0.00  0.00     0.000 A 
ATOM     14  C   UNL d   1     -46.332  12.782  22.483  0.00  0.00     0.002 A 
ENDBRANCH   6   9
ENDBRANCH   1   4
BRANCH   1  15
ATOM     15  C   UNL d   1     -50.164  12.904  22.442  0.00  0.00     0.012 A 
ATOM     16  C   UNL d   1     -50.215  12.984  21.613  0.00  0.00     0.001 A 
ATOM     17  C   UNL d   1     -50.681  13.633  21.443  0.00  0.00     0.000 A 
ATOM     18  C   UNL d   1     -50.918  13.957  22.150  0.00  0.00     0.000 A 
ATOM     19  C   UNL d   1     -50.605  13.516  22.766  0.00  0.00     0.001 A 
ENDBRANCH   1  15
TORSDOF 3
ENDMDL
MODEL 3
REMARK VINA RESULT:      -6.8      9.120     10.611
REMARK  3 active torsions:
REMARK  status: ('A' for Active; 'I' for Inactive)
REMARK    1  A    between atoms: C_3  and  C_1 
REMARK    2  A    between atoms: C_8  and  C_3 
REMARK    3  A    between atoms: C_10  and  C_4 
ROOT
ATOM      1  C   UNL d   1     -40.312  15.195  17.182  0.00  0.00     0.092 C 
ATOM      2  C   UNL d   1     -41.007  15.412  16.795  0.00  0.00     0.103 C 
ATOM      3  N   UNL d   1     -41.728  15.628  16.423  0.00  0.00    -0.191 NA
ENDROOT
BRANCH   1   4
ATOM      4  C   UNL d   1     -40.345  14.977  17.990  0.00  0.00     0.120 A 
ATOM      5  N   UNL d   1     -40.219  15.479  18.654  0.00  0.00    -0.238 NA
ATOM      6  C   UNL d   1     -40.307  15.026  19.342  0.00  0.00     0.088 A 
ATOM      7  C   UNL d   1     -40.484  14.258  19.099  0.00  0.00     0.056 A 
ATOM      8  S   UNL d   1     -40.502  14.254  18.281  0.00  0.00    -0.065 SA
BRANCH   6   9
ATOM      9  C   UNL d   1     -40.224  15.323  20.130  0.00  0.00     0.018 A 
ATOM     10  C   UNL d   1     -40.895  15.622  20.518  0.00  0.00     0.002 A 
ATOM     11  C   UNL d   1     -40.823  15.913  21.285  0.00  0.00     0.000 A 
ATOM     12  C   UNL d   1     -40.070  15.913  21.687  0.00  0.00     0.000 A 
ATOM     13  C   UNL d   1     -39.409  15.613  21.290  0.00  0.00     0.000 A 
ATOM     14  C   UNL d   1     -39.493  15.315  20.501  0.00  0.00     0.002 A 
ENDBRANCH   6   9
ENDBRANCH   1   4
BRANCH   1  15
ATOM     15  C   UNL d   1     -39.608  15.200  16.761  0.00  0.00     0.012 A 
ATOM     16  C   UNL d   1     -39.103  14.607  16.464  0.00  0.00     0.001 A 
ATOM     17  C   UNL d   1     -38.475  14.966  16.085  0.00  0.00     0.000 A 
ATOM     18  C   UNL d   1     -38.582  15.770  16.140  0.00  0.00     0.000 A 
ATOM     19  C   UNL d   1     -39.274  15.921  16.553  0.00  0.00     0.001 A 
ENDBRANCH   1  15
TORSDOF 3
ENDMDL
MODEL 4
REMARK VINA RESULT:      -6.1      9.936     11.047
REMARK  3 active torsions:
REMARK  status: ('A' for Active; 'I' for Inactive)
REMARK    1  A    between atoms: C_3  and  C_1 
REMARK    2  A    between atoms: C_8  and  C_3 
REMARK    3  A    between atoms: C_10  and  C_4 
ROOT
ATOM      1  C   UNL d   1     -39.467  14.159  18.038  0.00  0.00     0.092 C 
ATOM      2  C   UNL d   1     -40.228  14.370  17.801  0.00  0.00     0.103 C 
ATOM      3  N   UNL d   1     -41.007  14.594  17.582  0.00  0.00    -0.191 NA
ENDROOT
BRANCH   1   4
ATOM      4  C   UNL d   1     -39.212  14.356  18.811  0.00  0.00     0.120 A 
ATOM      5  N   UNL d   1     -39.186  13.845  19.480  0.00  0.00    -0.238 NA
ATOM      6  C   UNL d   1     -38.896  14.277  20.125  0.00  0.00     0.088 A 
ATOM      7  C   UNL d   1     -38.747  15.041  19.852  0.00  0.00     0.056 A 
ATOM      8  S   UNL d   1     -38.945  15.064  19.058  0.00  0.00    -0.065 SA
BRANCH   6   9
ATOM      9  C   UNL d   1     -38.784  13.965  20.904  0.00  0.00     0.018 A 
ATOM     10  C   UNL d   1     -38.070  13.583  21.084  0.00  0.00     0.002 A 
ATOM     11  C   UNL d   1     -37.953  13.276  21.839  0.00  0.00     0.000 A 
ATOM     12  C   UNL d   1     -38.556  13.346  22.440  0.00  0.00     0.000 A 
ATOM     13  C   UNL d   1     -39.263  13.729  22.249  0.00  0.00     0.000 A 
ATOM     14  C   UNL d   1     -39.374  14.041  21.469  0.00  0.00     0.002 A 
ENDBRANCH   6   9
ENDBRANCH   1   4
BRANCH   1  15
ATOM     15  C   UNL d   1     -38.984  13.762  17.508  0.00  0.00     0.012 A 
ATOM     16  C   UNL d   1     -38.702  12.980  17.450  0.00  0.00     0.001 A 
ATOM     17  C   UNL d   1     -38.232  12.921  16.785  0.00  0.00     0.000 A 
ATOM     18  C   UNL d   1     -38.218  13.652  16.429  0.00  0.00     0.000 A 
ATOM     19  C   UNL d   1     -38.676  14.172  16.867  0.00  0.00     0.001 A 
ENDBRANCH   1  15
TORSDOF 3
ENDMDL
MODEL 5
REMARK VINA RESULT:      -5.9      8.515     10.203
REMARK  3 active torsions:
REMARK  status: ('A' for Active; 'I' for Inactive)
REMARK    1  A    between atoms: C_3  and  C_1 
REMARK    2  A    between atoms: C_8  and  C_3 
REMARK    3  A    between atoms: C_10  and  C_4 
ROOT
ATOM      1  C   UNL d   1     -40.625  14.581  20.419  0.00  0.00     0.092 C 
ATOM      2  C   UNL d   1     -41.259  14.138  20.703  0.00  0.00     0.103 C 
ATOM      3  N   UNL d   1     -41.910  13.679  20.970  0.00  0.00    -0.191 NA
ENDROOT
BRANCH   1   4
ATOM      4  C   UNL d   1     -40.462  14.579  19.597  0.00  0.00     0.120 A 
ATOM      5  N   UNL d   1     -39.839  14.169  19.207  0.00  0.00    -0.238 NA
ATOM      6  C   UNL d   1     -39.893  14.328  18.395  0.00  0.00     0.088 A 
ATOM      7  C   UNL d   1     -40.540  14.830  18.294  0.00  0.00     0.056 A 
ATOM      8  S   UNL d   1     -40.866  14.967  19.031  0.00  0.00    -0.065 SA
BRANCH   6   9
ATOM      9  C   UNL d   1     -39.368  14.020  17.807  0.00  0.00     0.018 A 
ATOM     10  C   UNL d   1     -39.205  14.480  17.135  0.00  0.00     0.002 A 
ATOM     11  C   UNL d   1     -38.695  14.188  16.558  0.00  0.00     0.000 A 
ATOM     12  C   UNL d   1     -38.332  13.420  16.640  0.00  0.00     0.000 A 
ATOM     13  C   UNL d   1     -38.502  12.971  17.314  0.00  0.00     0.000 A 
ATOM     14  C   UNL d   1     -39.028  13.280  17.902  0.00  0.00     0.002 A 
ENDBRANCH   6   9
ENDBRANCH   1   4
BRANCH   1  15
ATOM     15  C   UNL d   1     -40.173  15.010  20.951  0.00  0.00     0.012 A 
ATOM     16  C   UNL d   1     -40.072  15.823  21.106  0.00  0.00     0.001 A 
ATOM     17  C   UNL d   1     -39.536  15.907  21.717  0.00  0.00     0.000 A 
ATOM     18  C   UNL d   1     -39.303  15.161  21.943  0.00  0.00     0.000 A 
ATOM     19  C   UNL d   1     -39.689  14.607  21.478  0.00  0.00     0.001 A 
ENDBRANCH   1  15
TORSDOF 3
ENDMDL
