MODEL 1
REMARK VINA RESULT:      28.9      0.000      0.000
REMARK  3 active torsions:
REMARK  status: ('A' for Active; 'I' for Inactive)
REMARK    1  A    between atoms: C_7  and  C_1 
REMARK       I    between atoms: C_6  and  N_9 
REMARK       I    between atoms: N_8  and  C_6 
REMARK    2  A    between atoms: N_9  and  C_7 
REMARK    3  A    between atoms: C_11  and  N_8 
ROOT
ATOM      1  C   UNL d   1      13.151  12.476  -3.887  0.00  0.00     0.369 C 
ATOM      2  N   UNL d   1      13.311  11.781  -3.461  0.00  0.00    -0.191 NA
ATOM      3  N   UNL d   1      13.286  13.211  -3.548  0.00  0.00    -0.189 NA
ATOM      4  O   UNL d   1      12.854  12.427  -4.657  0.00  0.00    -0.242 OA
ENDROOT
BRANCH   3   5
ATOM      5  C   UNL d   1      13.127  13.896  -3.974  0.00  0.00     0.107 C 
BRANCH   5   6
ATOM      6  C   UNL d   1      13.574  14.586  -3.832  0.00  0.00     0.058 A 
ATOM      7  C   UNL d   1      13.767  15.162  -4.393  0.00  0.00     0.104 A 
ATOM      8  N   UNL d   1      14.216  15.748  -4.016  0.00  0.00    -0.165 NA
ATOM      9  C   UNL d   1      13.551  15.153  -5.189  0.00  0.00     0.023 C 
ATOM     10  N   UNL d   1      14.297  15.531  -3.222  0.00  0.00    -0.225 N 
ATOM     11  C   UNL d   1      13.903  14.816  -3.108  0.00  0.00     0.104 A 
ATOM     12  C   UNL d   1      14.700  15.953  -2.649  0.00  0.00     0.121 C 
ENDBRANCH   5   6
ENDBRANCH   3   5
BRANCH   2  13
ATOM     13  C   UNL d   1      13.605  11.840  -2.700  0.00  0.00     0.086 A 
ATOM     14  C   UNL d   1      14.411  11.958  -2.568  0.00  0.00     0.020 A 
ATOM     15  C   UNL d   1      14.689  12.014  -1.791  0.00  0.00     0.013 A 
ATOM     16  C   UNL d   1      14.179  11.955  -1.155  0.00  0.00     0.058 A 
ATOM     17  C   UNL d   1      13.381  11.838  -1.295  0.00  0.00     0.013 A 
ATOM     18 CL   UNL d   1      14.460  12.012  -0.381  0.00  0.00    -0.082 Cl
ATOM     19  C   UNL d   1      13.084  11.779  -2.054  0.00  0.00     0.020 A 
ENDBRANCH   2  13
TORSDOF 3
ENDMDL
MODEL 2
REMARK VINA RESULT:      30.6      2.230      3.609
REMARK  3 active torsions:
REMARK  status: ('A' for Active; 'I' for Inactive)
REMARK    1  A    between atoms: C_7  and  C_1 
REMARK       I    between atoms: C_6  and  N_9 
REMARK       I    between atoms: N_8  and  C_6 
REMARK    2  A    between atoms: N_9  and  C_7 
REMARK    3  A    between atoms: C_11  and  N_8 
ROOT
ATOM      1  C   UNL d   1      14.276  15.001  -2.827  0.00  0.00     0.369 C 
ATOM      2  N   UNL d   1      14.010  14.894  -3.606  0.00  0.00    -0.191 NA
ATOM      3  N   UNL d   1      14.286  14.371  -2.301  0.00  0.00    -0.189 NA
ATOM      4  O   UNL d   1      14.534  15.747  -2.579  0.00  0.00    -0.242 OA
ENDROOT
BRANCH   3   5
ATOM      5  C   UNL d   1      14.552  14.481  -1.531  0.00  0.00     0.107 C 
BRANCH   5   6
ATOM      6  C   UNL d   1      14.686  13.820  -1.041  0.00  0.00     0.058 A 
ATOM      7  C   UNL d   1      15.133  13.816  -0.345  0.00  0.00     0.104 A 
ATOM      8  N   UNL d   1      15.121  13.047  -0.035  0.00  0.00    -0.165 NA
ATOM      9  C   UNL d   1      15.522  14.465  -0.016  0.00  0.00     0.023 C 
ATOM     10  N   UNL d   1      14.665  12.579  -0.544  0.00  0.00    -0.225 N 
ATOM     11  C   UNL d   1      14.398  13.053  -1.162  0.00  0.00     0.104 A 
ATOM     12  C   UNL d   1      14.509  11.782  -0.447  0.00  0.00     0.121 C 
ENDBRANCH   5   6
ENDBRANCH   3   5
BRANCH   2  13
ATOM     13  C   UNL d   1      13.757  14.153  -3.842  0.00  0.00     0.086 A 
ATOM     14  C   UNL d   1      14.227  13.684  -4.332  0.00  0.00     0.020 A 
ATOM     15  C   UNL d   1      13.954  12.937  -4.561  0.00  0.00     0.013 A 
ATOM     16  C   UNL d   1      13.228  12.659  -4.308  0.00  0.00     0.058 A 
ATOM     17  C   UNL d   1      12.769  13.130  -3.823  0.00  0.00     0.013 A 
ATOM     18 CL   UNL d   1      12.959  11.913  -4.538  0.00  0.00    -0.082 Cl
ATOM     19  C   UNL d   1      13.018  13.871  -3.585  0.00  0.00     0.020 A 
ENDBRANCH   2  13
TORSDOF 3
ENDMDL
