MODEL 1
REMARK VINA RESULT:      -5.1      0.000      0.000
REMARK  6 active torsions:
REMARK  status: ('A' for Active; 'I' for Inactive)
REMARK    1  A    between atoms: C_6  and  N_1 
REMARK    2  A    between atoms: C_12  and  C_6 
REMARK    3  A    between atoms: O_18  and  C_7 
REMARK    4  A    between atoms: O_19  and  C_10 
REMARK    5  A    between atoms: C_21  and  O_19 
REMARK    6  A    between atoms: C_23  and  C_21 
ROOT
ATOM      1  C   UNL d   1     -41.328-121.883 -51.772  0.00  0.00     0.117 A 
ATOM      2  C   UNL d   1     -41.255-122.399 -52.415  0.00  0.00     0.122 A 
ATOM      3  C   UNL d   1     -41.311-122.184 -51.009  0.00  0.00     0.028 A 
ATOM      4  C   UNL d   1     -41.223-122.986 -50.884  0.00  0.00     0.020 A 
ATOM      5  C   UNL d   1     -41.166-123.206 -52.287  0.00  0.00     0.027 A 
ATOM      6  C   UNL d   1     -41.150-123.500 -51.516  0.00  0.00     0.004 A 
ENDROOT
BRANCH   4   7
ATOM      7  C   UNL d   1     -41.207-123.280 -50.114  0.00  0.00     0.085 C 
BRANCH   7   8
ATOM      8  N   UNL d   1     -41.914-123.383 -49.700  0.00  0.00    -0.251 N 
ATOM      9  C   UNL d   1     -42.659-123.625 -49.988  0.00  0.00     0.378 A 
ATOM     10  O   UNL d   1     -43.188-123.642 -49.351  0.00  0.00    -0.258 OA
ATOM     11  O   UNL d   1     -42.829-123.811 -50.771  0.00  0.00    -0.237 OA
ATOM     12  C   UNL d   1     -42.774-123.413 -48.670  0.00  0.00     0.121 A 
ATOM     13  C   UNL d   1     -41.987-123.253 -48.885  0.00  0.00     0.092 A 
ATOM     14  C   UNL d   1     -43.003-123.326 -47.880  0.00  0.00     0.026 A 
ATOM     15  C   UNL d   1     -41.440-123.011 -48.322  0.00  0.00     0.020 A 
ATOM     16  C   UNL d   1     -41.679-122.928 -47.536  0.00  0.00     0.002 A 
ATOM     17  C   UNL d   1     -42.457-123.085 -47.316  0.00  0.00     0.002 A 
ATOM     18  C   UNL d   1     -41.124-122.684 -46.971  0.00  0.00     0.000 C 
ENDBRANCH   7   8
ENDBRANCH   4   7
BRANCH   1  19
ATOM     19  O   UNL d   1     -41.417-121.081 -51.901  0.00  0.00    -0.326 OA
ATOM     20  C   UNL d   1     -41.125-120.722 -51.217  0.00  0.00     0.181 C 
ENDBRANCH   1  19
BRANCH   2  21
ATOM     21  O   UNL d   1     -41.271-122.102 -53.181  0.00  0.00    -0.303 OA
BRANCH  21  22
ATOM     22  C   UNL d   1     -41.736-122.465 -53.748  0.00  0.00     0.123 C 
BRANCH  22  23
ATOM     23  C   UNL d   1     -41.662-122.253 -54.542  0.00  0.00     0.027 C 
ATOM     24  C   UNL d   1     -42.332-122.095 -54.992  0.00  0.00     0.002 C 
ENDBRANCH  22  23
ENDBRANCH  21  22
ENDBRANCH   2  21
TORSDOF 6
ENDMDL
MODEL 2
REMARK VINA RESULT:      -3.6      1.200      4.828
REMARK  6 active torsions:
REMARK  status: ('A' for Active; 'I' for Inactive)
REMARK    1  A    between atoms: C_6  and  N_1 
REMARK    2  A    between atoms: C_12  and  C_6 
REMARK    3  A    between atoms: O_18  and  C_7 
REMARK    4  A    between atoms: O_19  and  C_10 
REMARK    5  A    between atoms: C_21  and  O_19 
REMARK    6  A    between atoms: C_23  and  C_21 
ROOT
ATOM      1  C   UNL d   1     -42.833-122.483 -50.290  0.00  0.00     0.117 A 
ATOM      2  C   UNL d   1     -42.253-122.658 -49.724  0.00  0.00     0.122 A 
ATOM      3  C   UNL d   1     -42.605-122.286 -51.052  0.00  0.00     0.028 A 
ATOM      4  C   UNL d   1     -41.814-122.261 -51.253  0.00  0.00     0.020 A 
ATOM      5  C   UNL d   1     -41.457-122.633 -49.929  0.00  0.00     0.027 A 
ATOM      6  C   UNL d   1     -41.238-122.433 -50.699  0.00  0.00     0.004 A 
ENDROOT
BRANCH   4   7
ATOM      7  C   UNL d   1     -41.594-122.061 -52.023  0.00  0.00     0.085 C 
BRANCH   7   8
ATOM      8  N   UNL d   1     -41.511-122.654 -52.592  0.00  0.00    -0.251 N 
ATOM      9  C   UNL d   1     -41.296-123.454 -52.488  0.00  0.00     0.378 A 
ATOM     10  O   UNL d   1     -41.290-123.817 -53.231  0.00  0.00    -0.258 OA
ATOM     11  O   UNL d   1     -41.123-123.810 -51.767  0.00  0.00    -0.237 OA
ATOM     12  C   UNL d   1     -41.500-123.247 -53.795  0.00  0.00     0.121 A 
ATOM     13  C   UNL d   1     -41.636-122.528 -53.401  0.00  0.00     0.092 A 
ATOM     14  C   UNL d   1     -41.587-123.279 -54.618  0.00  0.00     0.026 A 
ATOM     15  C   UNL d   1     -41.854-121.856 -53.819  0.00  0.00     0.020 A 
ATOM     16  C   UNL d   1     -41.938-121.899 -54.640  0.00  0.00     0.002 A 
ATOM     17  C   UNL d   1     -41.805-122.608 -55.037  0.00  0.00     0.002 A 
ATOM     18  C   UNL d   1     -42.159-121.218 -55.058  0.00  0.00     0.000 C 
ENDBRANCH   7   8
ENDBRANCH   4   7
BRANCH   1  19
ATOM     19  O   UNL d   1     -43.623-122.509 -50.085  0.00  0.00    -0.326 OA
ATOM     20  C   UNL d   1     -43.964-121.866 -50.475  0.00  0.00     0.181 C 
ENDBRANCH   1  19
BRANCH   2  21
ATOM     21  O   UNL d   1     -42.476-122.857 -48.958  0.00  0.00    -0.303 OA
BRANCH  21  22
ATOM     22  C   UNL d   1     -41.909-123.093 -48.419  0.00  0.00     0.123 C 
BRANCH  22  23
ATOM     23  C   UNL d   1     -42.137-123.423 -47.697  0.00  0.00     0.027 C 
ATOM     24  C   UNL d   1     -41.984-123.025 -46.994  0.00  0.00     0.002 C 
ENDBRANCH  22  23
ENDBRANCH  21  22
ENDBRANCH   2  21
TORSDOF 6
ENDMDL
