MODEL 1
REMARK VINA RESULT:      -1.5      0.000      0.000
REMARK  8 active torsions:
REMARK  status: ('A' for Active; 'I' for Inactive)
REMARK    1  A    between atoms: C_6  and  C_1 
REMARK    2  A    between atoms: C_7  and  C_2 
REMARK    3  A    between atoms: C_14  and  N_4 
REMARK    4  A    between atoms: C_8  and  C_6 
REMARK    5  A    between atoms: C_9  and  C_8 
REMARK    6  A    between atoms: C_12  and  C_9 
REMARK    7  A    between atoms: C_10  and  C_11 
REMARK    8  A    between atoms: C_11  and  C_14 
ROOT
ATOM      1  C   UNL d   1     -40.570  14.256  20.719  0.00  0.00     0.039 A 
ATOM      2  C   UNL d   1     -40.275  14.074  21.449  0.00  0.00     0.103 A 
ATOM      3  N   UNL d   1     -40.742  13.698  21.992  0.00  0.00    -0.165 NA
ATOM      4  N   UNL d   1     -41.805  13.685  21.069  0.00  0.00    -0.227 N 
ATOM      5  C   UNL d   1     -41.338  14.062  20.526  0.00  0.00     0.102 A 
ENDROOT
BRANCH   1   6
ATOM      6  C   UNL d   1     -40.100  14.640  20.160  0.00  0.00     0.006 C 
BRANCH   6   7
ATOM      7  C   UNL d   1     -40.238  14.534  19.351  0.00  0.00     0.042 C 
BRANCH   7   8
ATOM      8  C   UNL d   1     -40.076  15.149  18.811  0.00  0.00     0.196 C 
ATOM      9  O   UNL d   1     -40.290  15.922  19.003  0.00  0.00    -0.287 OA
BRANCH   8  10
ATOM     10  C   UNL d   1     -39.707  14.785  18.166  0.00  0.00     0.039 A 
ATOM     11  C   UNL d   1     -40.156  14.413  17.580  0.00  0.00     0.004 A 
ATOM     12  C   UNL d   1     -39.787  14.049  16.933  0.00  0.00     0.011 A 
ATOM     13  C   UNL d   1     -38.962  14.056  16.872  0.00  0.00     0.058 A 
ATOM     14  C   UNL d   1     -38.513  14.434  17.469  0.00  0.00     0.011 A 
ATOM     15 CL   UNL d   1     -38.591  13.694  16.229  0.00  0.00    -0.082 Cl
ATOM     16  C   UNL d   1     -38.878  14.798  18.114  0.00  0.00     0.004 A 
ENDBRANCH   8  10
ENDBRANCH   7   8
ENDBRANCH   6   7
ENDBRANCH   1   6
BRANCH   2  17
ATOM     17  C   UNL d   1     -39.506  14.266  21.648  0.00  0.00     0.020 A 
ATOM     18  C   UNL d   1     -39.332  14.996  21.956  0.00  0.00     0.008 A 
ATOM     19  C   UNL d   1     -38.557  15.182  22.154  0.00  0.00     0.035 A 
ATOM     20 BR   UNL d   1     -38.389  15.922  22.464  0.00  0.00    -0.049 Br
ATOM     21  C   UNL d   1     -37.974  14.640  22.041  0.00  0.00     0.007 A 
ATOM     22  C   UNL d   1     -38.154  13.906  21.730  0.00  0.00     0.001 A 
ATOM     23  C   UNL d   1     -38.917  13.719  21.534  0.00  0.00     0.002 A 
ENDBRANCH   2  17
BRANCH   4  24
ATOM     24  C   UNL d   1     -42.571  13.412  21.078  0.00  0.00     0.107 C 
BRANCH  24  25
ATOM     25  C   UNL d   1     -42.524  12.668  21.445  0.00  0.00     0.091 C 
BRANCH  25  26
ATOM     26  C   UNL d   1     -43.309  12.464  21.610  0.00  0.00     0.213 C 
ATOM     27  O   UNL d   1     -43.485  11.869  22.177  0.00  0.00    -0.644 OA
ATOM     28  O   UNL d   1     -43.920  12.845  21.218  0.00  0.00    -0.644 OA
ENDBRANCH  25  26
ENDBRANCH  24  25
ENDBRANCH   4  24
TORSDOF 8
ENDMDL
MODEL 2
REMARK VINA RESULT:      -0.8      6.361      8.671
REMARK  8 active torsions:
REMARK  status: ('A' for Active; 'I' for Inactive)
REMARK    1  A    between atoms: C_6  and  C_1 
REMARK    2  A    between atoms: C_7  and  C_2 
REMARK    3  A    between atoms: C_14  and  N_4 
REMARK    4  A    between atoms: C_8  and  C_6 
REMARK    5  A    between atoms: C_9  and  C_8 
REMARK    6  A    between atoms: C_12  and  C_9 
REMARK    7  A    between atoms: C_10  and  C_11 
REMARK    8  A    between atoms: C_11  and  C_14 
ROOT
ATOM      1  C   UNL d   1     -47.398  12.879  22.907  0.00  0.00     0.039 A 
ATOM      2  C   UNL d   1     -46.806  12.331  22.844  0.00  0.00     0.103 A 
ATOM      3  N   UNL d   1     -46.973  11.544  22.930  0.00  0.00    -0.165 NA
ATOM      4  N   UNL d   1     -48.330  11.855  23.141  0.00  0.00    -0.227 N 
ATOM      5  C   UNL d   1     -48.163  12.642  23.056  0.00  0.00     0.102 A 
ENDROOT
BRANCH   1   6
ATOM      6  C   UNL d   1     -47.235  13.683  22.821  0.00  0.00     0.006 C 
BRANCH   6   7
ATOM      7  C   UNL d   1     -47.783  14.251  23.070  0.00  0.00     0.042 C 
BRANCH   7   8
ATOM      8  C   UNL d   1     -47.833  14.988  22.682  0.00  0.00     0.196 C 
ATOM      9  O   UNL d   1     -47.154  15.312  22.341  0.00  0.00    -0.287 OA
BRANCH   8  10
ATOM     10  C   UNL d   1     -48.624  15.221  22.748  0.00  0.00     0.039 A 
ATOM     11  C   UNL d   1     -49.115  15.237  22.084  0.00  0.00     0.004 A 
ATOM     12  C   UNL d   1     -49.907  15.470  22.149  0.00  0.00     0.011 A 
ATOM     13  C   UNL d   1     -50.212  15.688  22.887  0.00  0.00     0.058 A 
ATOM     14  C   UNL d   1     -49.710  15.669  23.557  0.00  0.00     0.011 A 
ATOM     15 CL   UNL d   1     -51.002  15.921  22.956  0.00  0.00    -0.082 Cl
ATOM     16  C   UNL d   1     -48.920  15.438  23.494  0.00  0.00     0.004 A 
ENDBRANCH   8  10
ENDBRANCH   7   8
ENDBRANCH   6   7
ENDBRANCH   1   6
BRANCH   2  17
ATOM     17  C   UNL d   1     -46.037  12.563  22.695  0.00  0.00     0.020 A 
ATOM     18  C   UNL d   1     -45.753  12.579  21.936  0.00  0.00     0.008 A 
ATOM     19  C   UNL d   1     -44.979  12.813  21.794  0.00  0.00     0.035 A 
ATOM     20 BR   UNL d   1     -44.699  12.826  21.023  0.00  0.00    -0.049 Br
ATOM     21  C   UNL d   1     -44.505  13.025  22.409  0.00  0.00     0.007 A 
ATOM     22  C   UNL d   1     -44.796  13.008  23.172  0.00  0.00     0.001 A 
ATOM     23  C   UNL d   1     -45.559  12.778  23.316  0.00  0.00     0.002 A 
ENDBRANCH   2  17
BRANCH   4  24
ATOM     24  C   UNL d   1     -49.003  11.423  23.288  0.00  0.00     0.107 C 
BRANCH  24  25
ATOM     25  C   UNL d   1     -49.620  11.884  22.976  0.00  0.00     0.091 C 
BRANCH  25  26
ATOM     26  C   UNL d   1     -50.312  11.535  23.268  0.00  0.00     0.213 C 
ATOM     27  O   UNL d   1     -50.286  10.783  23.641  0.00  0.00    -0.644 OA
ATOM     28  O   UNL d   1     -51.028  11.927  23.193  0.00  0.00    -0.644 OA
ENDBRANCH  25  26
ENDBRANCH  24  25
ENDBRANCH   4  24
TORSDOF 8
ENDMDL
MODEL 3
REMARK VINA RESULT:      -0.6      6.877      8.982
REMARK  8 active torsions:
REMARK  status: ('A' for Active; 'I' for Inactive)
REMARK    1  A    between atoms: C_6  and  C_1 
REMARK    2  A    between atoms: C_7  and  C_2 
REMARK    3  A    between atoms: C_14  and  N_4 
REMARK    4  A    between atoms: C_8  and  C_6 
REMARK    5  A    between atoms: C_9  and  C_8 
REMARK    6  A    between atoms: C_12  and  C_9 
REMARK    7  A    between atoms: C_10  and  C_11 
REMARK    8  A    between atoms: C_11  and  C_14 
ROOT
ATOM      1  C   UNL d   1     -48.113  12.022  23.378  0.00  0.00     0.039 A 
ATOM      2  C   UNL d   1     -48.715  11.520  23.183  0.00  0.00     0.103 A 
ATOM      3  N   UNL d   1     -48.572  10.728  23.105  0.00  0.00    -0.165 NA
ATOM      4  N   UNL d   1     -47.216  10.942  23.421  0.00  0.00    -0.227 N 
ATOM      5  C   UNL d   1     -47.360  11.734  23.499  0.00  0.00     0.102 A 
ENDROOT
BRANCH   1   6
ATOM      6  C   UNL d   1     -48.251  12.832  23.459  0.00  0.00     0.006 C 
BRANCH   6   7
ATOM      7  C   UNL d   1     -47.620  13.367  23.467  0.00  0.00     0.042 C 
BRANCH   7   8
ATOM      8  C   UNL d   1     -47.750  14.175  23.308  0.00  0.00     0.196 C 
ATOM      9  O   UNL d   1     -48.480  14.511  23.494  0.00  0.00    -0.287 OA
BRANCH   8  10
ATOM     10  C   UNL d   1     -47.045  14.452  22.974  0.00  0.00     0.039 A 
ATOM     11  C   UNL d   1     -47.059  14.968  22.329  0.00  0.00     0.004 A 
ATOM     12  C   UNL d   1     -46.354  15.245  21.994  0.00  0.00     0.011 A 
ATOM     13  C   UNL d   1     -45.627  15.004  22.308  0.00  0.00     0.058 A 
ATOM     14  C   UNL d   1     -45.620  14.481  22.962  0.00  0.00     0.011 A 
ATOM     15 CL   UNL d   1     -44.922  15.278  21.976  0.00  0.00    -0.082 Cl
ATOM     16  C   UNL d   1     -46.321  14.203  23.297  0.00  0.00     0.004 A 
ENDBRANCH   8  10
ENDBRANCH   7   8
ENDBRANCH   6   7
ENDBRANCH   1   6
BRANCH   2  17
ATOM     17  C   UNL d   1     -49.472  11.803  23.061  0.00  0.00     0.020 A 
ATOM     18  C   UNL d   1     -49.712  12.028  22.320  0.00  0.00     0.008 A 
ATOM     19  C   UNL d   1     -50.474  12.312  22.205  0.00  0.00     0.035 A 
ATOM     20 BR   UNL d   1     -50.709  12.537  21.452  0.00  0.00    -0.049 Br
ATOM     21  C   UNL d   1     -50.979  12.365  22.829  0.00  0.00     0.007 A 
ATOM     22  C   UNL d   1     -50.733  12.138  23.574  0.00  0.00     0.001 A 
ATOM     23  C   UNL d   1     -49.982  11.858  23.690  0.00  0.00     0.002 A 
ENDBRANCH   2  17
BRANCH   4  24
ATOM     24  C   UNL d   1     -46.561  10.466  23.495  0.00  0.00     0.107 C 
BRANCH  24  25
ATOM     25  C   UNL d   1     -45.945  10.988  23.694  0.00  0.00     0.091 C 
BRANCH  25  26
ATOM     26  C   UNL d   1     -45.259  10.527  23.658  0.00  0.00     0.213 C 
ATOM     27  O   UNL d   1     -45.309   9.692  23.580  0.00  0.00    -0.644 OA
ATOM     28  O   UNL d   1     -44.523  10.888  23.698  0.00  0.00    -0.644 OA
ENDBRANCH  25  26
ENDBRANCH  24  25
ENDBRANCH   4  24
TORSDOF 8
ENDMDL
MODEL 4
REMARK VINA RESULT:      -0.5      7.192      8.906
REMARK  8 active torsions:
REMARK  status: ('A' for Active; 'I' for Inactive)
REMARK    1  A    between atoms: C_6  and  C_1 
REMARK    2  A    between atoms: C_7  and  C_2 
REMARK    3  A    between atoms: C_14  and  N_4 
REMARK    4  A    between atoms: C_8  and  C_6 
REMARK    5  A    between atoms: C_9  and  C_8 
REMARK    6  A    between atoms: C_12  and  C_9 
REMARK    7  A    between atoms: C_10  and  C_11 
REMARK    8  A    between atoms: C_11  and  C_14 
ROOT
ATOM      1  C   UNL d   1     -47.241  11.768  23.330  0.00  0.00     0.039 A 
ATOM      2  C   UNL d   1     -47.722  11.190  23.032  0.00  0.00     0.103 A 
ATOM      3  N   UNL d   1     -47.445  10.433  22.956  0.00  0.00    -0.165 NA
ATOM      4  N   UNL d   1     -46.201  10.835  23.479  0.00  0.00    -0.227 N 
ATOM      5  C   UNL d   1     -46.478  11.592  23.555  0.00  0.00     0.102 A 
ENDROOT
BRANCH   1   6
ATOM      6  C   UNL d   1     -47.516  12.541  23.410  0.00  0.00     0.006 C 
BRANCH   6   7
ATOM      7  C   UNL d   1     -47.311  13.119  22.854  0.00  0.00     0.042 C 
BRANCH   7   8
ATOM      8  C   UNL d   1     -47.112  13.891  23.102  0.00  0.00     0.196 C 
ATOM      9  O   UNL d   1     -46.519  13.994  23.667  0.00  0.00    -0.287 OA
BRANCH   8  10
ATOM     10  C   UNL d   1     -47.608  14.396  22.674  0.00  0.00     0.039 A 
ATOM     11  C   UNL d   1     -48.208  14.818  23.054  0.00  0.00     0.004 A 
ATOM     12  C   UNL d   1     -48.706  15.323  22.627  0.00  0.00     0.011 A 
ATOM     13  C   UNL d   1     -48.603  15.408  21.810  0.00  0.00     0.058 A 
ATOM     14  C   UNL d   1     -47.993  14.978  21.430  0.00  0.00     0.011 A 
ATOM     15 CL   UNL d   1     -49.097  15.912  21.380  0.00  0.00    -0.082 Cl
ATOM     16  C   UNL d   1     -47.496  14.474  21.854  0.00  0.00     0.004 A 
ENDBRANCH   8  10
ENDBRANCH   7   8
ENDBRANCH   6   7
ENDBRANCH   1   6
BRANCH   2  17
ATOM     17  C   UNL d   1     -48.488  11.361  22.805  0.00  0.00     0.020 A 
ATOM     18  C   UNL d   1     -49.066  11.472  23.362  0.00  0.00     0.008 A 
ATOM     19  C   UNL d   1     -49.834  11.643  23.126  0.00  0.00     0.035 A 
ATOM     20 BR   UNL d   1     -50.413  11.754  23.695  0.00  0.00    -0.049 Br
ATOM     21  C   UNL d   1     -50.009  11.699  22.343  0.00  0.00     0.007 A 
ATOM     22  C   UNL d   1     -49.423  11.586  21.785  0.00  0.00     0.001 A 
ATOM     23  C   UNL d   1     -48.665  11.417  22.014  0.00  0.00     0.002 A 
ENDBRANCH   2  17
BRANCH   4  24
ATOM     24  C   UNL d   1     -45.497  10.462  23.639  0.00  0.00     0.107 C 
BRANCH  24  25
ATOM     25  C   UNL d   1     -44.929  11.069  23.623  0.00  0.00     0.091 C 
BRANCH  25  26
ATOM     26  C   UNL d   1     -44.209  10.681  23.499  0.00  0.00     0.213 C 
ATOM     27  O   UNL d   1     -43.525  11.114  23.271  0.00  0.00    -0.644 OA
ATOM     28  O   UNL d   1     -44.161   9.869  23.598  0.00  0.00    -0.644 OA
ENDBRANCH  25  26
ENDBRANCH  24  25
ENDBRANCH   4  24
TORSDOF 8
ENDMDL
MODEL 5
REMARK VINA RESULT:      -0.4      6.686      9.060
REMARK  8 active torsions:
REMARK  status: ('A' for Active; 'I' for Inactive)
REMARK    1  A    between atoms: C_6  and  C_1 
REMARK    2  A    between atoms: C_7  and  C_2 
REMARK    3  A    between atoms: C_14  and  N_4 
REMARK    4  A    between atoms: C_8  and  C_6 
REMARK    5  A    between atoms: C_9  and  C_8 
REMARK    6  A    between atoms: C_12  and  C_9 
REMARK    7  A    between atoms: C_10  and  C_11 
REMARK    8  A    between atoms: C_11  and  C_14 
ROOT
ATOM      1  C   UNL d   1     -48.909  13.406  23.201  0.00  0.00     0.039 A 
ATOM      2  C   UNL d   1     -49.717  13.380  23.186  0.00  0.00     0.103 A 
ATOM      3  N   UNL d   1     -50.100  12.676  23.296  0.00  0.00    -0.165 NA
ATOM      4  N   UNL d   1     -48.861  12.022  23.435  0.00  0.00    -0.227 N 
ATOM      5  C   UNL d   1     -48.478  12.726  23.326  0.00  0.00     0.102 A 
ENDROOT
BRANCH   1   6
ATOM      6  C   UNL d   1     -48.511  14.120  23.090  0.00  0.00     0.006 C 
BRANCH   6   7
ATOM      7  C   UNL d   1     -47.685  14.152  23.135  0.00  0.00     0.042 C 
BRANCH   7   8
ATOM      8  C   UNL d   1     -47.252  14.636  22.611  0.00  0.00     0.196 C 
ATOM      9  O   UNL d   1     -47.562  15.367  22.387  0.00  0.00    -0.287 OA
BRANCH   8  10
ATOM     10  C   UNL d   1     -46.561  14.214  22.439  0.00  0.00     0.039 A 
ATOM     11  C   UNL d   1     -45.972  14.121  23.011  0.00  0.00     0.004 A 
ATOM     12  C   UNL d   1     -45.280  13.699  22.840  0.00  0.00     0.011 A 
ATOM     13  C   UNL d   1     -45.176  13.367  22.089  0.00  0.00     0.058 A 
ATOM     14  C   UNL d   1     -45.776  13.465  21.514  0.00  0.00     0.011 A 
ATOM     15 CL   UNL d   1     -44.487  12.946  21.915  0.00  0.00    -0.082 Cl
ATOM     16  C   UNL d   1     -46.467  13.885  21.682  0.00  0.00     0.004 A 
ENDBRANCH   8  10
ENDBRANCH   7   8
ENDBRANCH   6   7
ENDBRANCH   1   6
BRANCH   2  17
ATOM     17  C   UNL d   1     -50.154  14.059  23.061  0.00  0.00     0.020 A 
ATOM     18  C   UNL d   1     -50.390  14.264  22.313  0.00  0.00     0.008 A 
ATOM     19  C   UNL d   1     -50.829  14.947  22.196  0.00  0.00     0.035 A 
ATOM     20 BR   UNL d   1     -51.064  15.148  21.436  0.00  0.00    -0.049 Br
ATOM     21  C   UNL d   1     -51.024  15.411  22.824  0.00  0.00     0.007 A 
ATOM     22  C   UNL d   1     -50.784  15.201  23.576  0.00  0.00     0.001 A 
ATOM     23  C   UNL d   1     -50.351  14.527  23.695  0.00  0.00     0.002 A 
ENDBRANCH   2  17
BRANCH   4  24
ATOM     24  C   UNL d   1     -48.628  11.255  23.570  0.00  0.00     0.107 C 
BRANCH  24  25
ATOM     25  C   UNL d   1     -47.808  11.305  23.695  0.00  0.00     0.091 C 
BRANCH  25  26
ATOM     26  C   UNL d   1     -47.500  10.616  23.354  0.00  0.00     0.213 C 
ATOM     27  O   UNL d   1     -46.789  10.276  23.646  0.00  0.00    -0.644 OA
ATOM     28  O   UNL d   1     -47.892  10.262  22.727  0.00  0.00    -0.644 OA
ENDBRANCH  25  26
ENDBRANCH  24  25
ENDBRANCH   4  24
TORSDOF 8
ENDMDL
MODEL 6
REMARK VINA RESULT:       0.9      5.947      8.401
REMARK  8 active torsions:
REMARK  status: ('A' for Active; 'I' for Inactive)
REMARK    1  A    between atoms: C_6  and  C_1 
REMARK    2  A    between atoms: C_7  and  C_2 
REMARK    3  A    between atoms: C_14  and  N_4 
REMARK    4  A    between atoms: C_8  and  C_6 
REMARK    5  A    between atoms: C_9  and  C_8 
REMARK    6  A    between atoms: C_12  and  C_9 
REMARK    7  A    between atoms: C_10  and  C_11 
REMARK    8  A    between atoms: C_11  and  C_14 
ROOT
ATOM      1  C   UNL d   1     -48.237  13.270  22.593  0.00  0.00     0.039 A 
ATOM      2  C   UNL d   1     -48.705  12.612  22.551  0.00  0.00     0.103 A 
ATOM      3  N   UNL d   1     -49.479  12.680  22.325  0.00  0.00    -0.165 NA
ATOM      4  N   UNL d   1     -49.316  14.071  22.181  0.00  0.00    -0.227 N 
ATOM      5  C   UNL d   1     -48.542  14.003  22.407  0.00  0.00     0.102 A 
ENDROOT
BRANCH   1   6
ATOM      6  C   UNL d   1     -47.447  13.209  22.823  0.00  0.00     0.006 C 
BRANCH   6   7
ATOM      7  C   UNL d   1     -46.853  13.584  22.386  0.00  0.00     0.042 C 
BRANCH   7   8
ATOM      8  C   UNL d   1     -46.178  13.891  22.769  0.00  0.00     0.196 C 
ATOM      9  O   UNL d   1     -46.273  14.456  23.363  0.00  0.00    -0.287 OA
BRANCH   8  10
ATOM     10  C   UNL d   1     -45.532  13.512  22.417  0.00  0.00     0.039 A 
ATOM     11  C   UNL d   1     -45.225  13.783  21.699  0.00  0.00     0.004 A 
ATOM     12  C   UNL d   1     -44.579  13.404  21.346  0.00  0.00     0.011 A 
ATOM     13  C   UNL d   1     -44.235  12.748  21.715  0.00  0.00     0.058 A 
ATOM     14  C   UNL d   1     -44.551  12.478  22.442  0.00  0.00     0.011 A 
ATOM     15 CL   UNL d   1     -43.590  12.367  21.366  0.00  0.00    -0.082 Cl
ATOM     16  C   UNL d   1     -45.195  12.854  22.795  0.00  0.00     0.004 A 
ENDBRANCH   8  10
ENDBRANCH   7   8
ENDBRANCH   6   7
ENDBRANCH   1   6
BRANCH   2  17
ATOM     17  C   UNL d   1     -48.405  11.874  22.735  0.00  0.00     0.020 A 
ATOM     18  C   UNL d   1     -48.268  11.329  22.151  0.00  0.00     0.008 A 
ATOM     19  C   UNL d   1     -47.966  10.590  22.345  0.00  0.00     0.035 A 
ATOM     20 BR   UNL d   1     -47.830  10.044  21.748  0.00  0.00    -0.049 Br
ATOM     21  C   UNL d   1     -47.809  10.411  23.112  0.00  0.00     0.007 A 
ATOM     22  C   UNL d   1     -47.948  10.963  23.698  0.00  0.00     0.001 A 
ATOM     23  C   UNL d   1     -48.246  11.693  23.511  0.00  0.00     0.002 A 
ENDBRANCH   2  17
BRANCH   4  24
ATOM     24  C   UNL d   1     -49.799  14.687  21.962  0.00  0.00     0.107 C 
BRANCH  24  25
ATOM     25  C   UNL d   1     -49.881  15.144  22.651  0.00  0.00     0.091 C 
BRANCH  25  26
ATOM     26  C   UNL d   1     -50.605  15.534  22.561  0.00  0.00     0.213 C 
ATOM     27  O   UNL d   1     -51.000  15.860  23.227  0.00  0.00    -0.644 OA
ATOM     28  O   UNL d   1     -50.941  15.602  21.816  0.00  0.00    -0.644 OA
ENDBRANCH  25  26
ENDBRANCH  24  25
ENDBRANCH   4  24
TORSDOF 8
ENDMDL
MODEL 7
REMARK VINA RESULT:       1.0      3.557      5.718
REMARK  8 active torsions:
REMARK  status: ('A' for Active; 'I' for Inactive)
REMARK    1  A    between atoms: C_6  and  C_1 
REMARK    2  A    between atoms: C_7  and  C_2 
REMARK    3  A    between atoms: C_14  and  N_4 
REMARK    4  A    between atoms: C_8  and  C_6 
REMARK    5  A    between atoms: C_9  and  C_8 
REMARK    6  A    between atoms: C_12  and  C_9 
REMARK    7  A    between atoms: C_10  and  C_11 
REMARK    8  A    between atoms: C_11  and  C_14 
ROOT
ATOM      1  C   UNL d   1     -45.104  12.571  22.595  0.00  0.00     0.039 A 
ATOM      2  C   UNL d   1     -45.419  12.059  23.135  0.00  0.00     0.103 A 
ATOM      3  N   UNL d   1     -46.067  12.276  23.568  0.00  0.00    -0.165 NA
ATOM      4  N   UNL d   1     -46.086  13.523  22.914  0.00  0.00    -0.227 N 
ATOM      5  C   UNL d   1     -45.437  13.306  22.482  0.00  0.00     0.102 A 
ENDROOT
BRANCH   1   6
ATOM      6  C   UNL d   1     -44.443  12.357  22.150  0.00  0.00     0.006 C 
BRANCH   6   7
ATOM      7  C   UNL d   1     -43.939  12.936  21.841  0.00  0.00     0.042 C 
BRANCH   7   8
ATOM      8  C   UNL d   1     -43.564  12.820  21.105  0.00  0.00     0.196 C 
ATOM      9  O   UNL d   1     -43.917  12.327  20.545  0.00  0.00    -0.287 OA
BRANCH   8  10
ATOM     10  C   UNL d   1     -42.873  13.273  21.135  0.00  0.00     0.039 A 
ATOM     11  C   UNL d   1     -42.909  14.099  21.121  0.00  0.00     0.004 A 
ATOM     12  C   UNL d   1     -42.218  14.553  21.151  0.00  0.00     0.011 A 
ATOM     13  C   UNL d   1     -41.480  14.179  21.196  0.00  0.00     0.058 A 
ATOM     14  C   UNL d   1     -41.450  13.342  21.209  0.00  0.00     0.011 A 
ATOM     15 CL   UNL d   1     -40.789  14.629  21.226  0.00  0.00    -0.082 Cl
ATOM     16  C   UNL d   1     -42.138  12.887  21.180  0.00  0.00     0.004 A 
ENDBRANCH   8  10
ENDBRANCH   7   8
ENDBRANCH   6   7
ENDBRANCH   1   6
BRANCH   2  17
ATOM     17  C   UNL d   1     -45.089  11.320  23.252  0.00  0.00     0.020 A 
ATOM     18  C   UNL d   1     -44.299  11.245  23.416  0.00  0.00     0.008 A 
ATOM     19  C   UNL d   1     -43.975  10.499  23.532  0.00  0.00     0.035 A 
ATOM     20 BR   UNL d   1     -43.174  10.432  23.698  0.00  0.00    -0.049 Br
ATOM     21  C   UNL d   1     -44.443   9.847  23.483  0.00  0.00     0.007 A 
ATOM     22  C   UNL d   1     -45.239   9.928  23.318  0.00  0.00     0.001 A 
ATOM     23  C   UNL d   1     -45.562  10.662  23.203  0.00  0.00     0.002 A 
ENDBRANCH   2  17
BRANCH   4  24
ATOM     24  C   UNL d   1     -46.554  14.186  22.955  0.00  0.00     0.107 C 
BRANCH  24  25
ATOM     25  C   UNL d   1     -47.246  13.980  22.543  0.00  0.00     0.091 C 
BRANCH  25  26
ATOM     26  C   UNL d   1     -47.764  14.612  22.670  0.00  0.00     0.213 C 
ATOM     27  O   UNL d   1     -47.499  15.405  22.579  0.00  0.00    -0.644 OA
ATOM     28  O   UNL d   1     -48.542  14.466  22.884  0.00  0.00    -0.644 OA
ENDBRANCH  25  26
ENDBRANCH  24  25
ENDBRANCH   4  24
TORSDOF 8
ENDMDL
