MODEL 1
REMARK VINA RESULT:      -5.3      0.000      0.000
REMARK  6 active torsions:
REMARK  status: ('A' for Active; 'I' for Inactive)
REMARK       I    between atoms: C_2  and  N_1 
REMARK    1  A    between atoms: C_3  and  C_2 
REMARK    2  A    between atoms: C_12  and  C_4 
REMARK       I    between atoms: C_5  and  N_8 
REMARK    3  A    between atoms: C_6  and  C_5 
REMARK       I    between atoms: N_9  and  C_6 
REMARK    4  A    between atoms: N_8  and  C_12 
REMARK    5  A    between atoms: C_19  and  N_9 
REMARK    6  A    between atoms: C_21  and  C_19 
ROOT
ATOM      1  C   UNL d   1     -43.413  11.879  22.249  0.00  0.00     0.337 C 
ATOM      2  N   UNL d   1     -44.104  11.820  22.686  0.00  0.00    -0.199 NA
ATOM      3  O   UNL d   1     -42.779  11.381  22.415  0.00  0.00    -0.260 OA
ENDROOT
BRANCH   2   4
ATOM      4  C   UNL d   1     -44.737  12.319  22.519  0.00  0.00     0.146 C 
BRANCH   4   5
ATOM      5  C   UNL d   1     -45.457  12.217  22.922  0.00  0.00     0.190 A 
ATOM      6  N   UNL d   1     -46.098  12.731  22.877  0.00  0.00    -0.250 N 
ATOM      7  C   UNL d   1     -46.217  13.438  22.460  0.00  0.00     0.272 C 
ATOM      8  C   UNL d   1     -46.691  12.418  23.363  0.00  0.00     0.112 A 
ATOM      9  O   UNL d   1     -45.614  13.738  21.980  0.00  0.00    -0.266 OA
ATOM     10  C   UNL d   1     -46.412  11.722  23.697  0.00  0.00     0.144 A 
ATOM     11  O   UNL d   1     -45.641  11.604  23.417  0.00  0.00    -0.285 OA
BRANCH   7  12
ATOM     12  C   UNL d   1     -46.930  13.843  22.522  0.00  0.00     0.086 A 
ATOM     13  S   UNL d   1     -47.704  13.623  22.318  0.00  0.00    -0.082 SA
ATOM     14  C   UNL d   1     -48.205  14.266  22.509  0.00  0.00     0.036 A 
ATOM     15  C   UNL d   1     -47.733  14.865  22.825  0.00  0.00     0.008 A 
ATOM     16  C   UNL d   1     -46.951  14.611  22.835  0.00  0.00     0.012 A 
ENDBRANCH   7  12
ENDBRANCH   4   5
ENDBRANCH   2   4
BRANCH   1  17
ATOM     17  C   UNL d   1     -43.345  12.436  21.642  0.00  0.00     0.337 C 
ATOM     18  N   UNL d   1     -42.735  12.972  21.644  0.00  0.00    -0.202 NA
ATOM     19  O   UNL d   1     -43.900  12.444  21.034  0.00  0.00    -0.260 OA
BRANCH  18  20
ATOM     20  C   UNL d   1     -42.667  13.529  21.036  0.00  0.00     0.102 C 
BRANCH  20  21
ATOM     21  C   UNL d   1     -42.013  14.020  20.993  0.00  0.00     0.019 A 
ATOM     22  C   UNL d   1     -41.263  13.717  20.873  0.00  0.00     0.002 A 
ATOM     23  C   UNL d   1     -40.607  14.195  20.828  0.00  0.00     0.011 A 
ATOM     24  C   UNL d   1     -40.701  15.021  20.907  0.00  0.00     0.058 A 
ATOM     25  C   UNL d   1     -41.448  15.342  21.027  0.00  0.00     0.011 A 
ATOM     26 CL   UNL d   1     -40.033  15.518  20.862  0.00  0.00    -0.082 Cl
ATOM     27  C   UNL d   1     -42.106  14.846  21.071  0.00  0.00     0.002 A 
ENDBRANCH  20  21
ENDBRANCH  18  20
ENDBRANCH   1  17
TORSDOF 6
ENDMDL
MODEL 2
REMARK VINA RESULT:      -5.3      3.278      6.058
REMARK  6 active torsions:
REMARK  status: ('A' for Active; 'I' for Inactive)
REMARK       I    between atoms: C_2  and  N_1 
REMARK    1  A    between atoms: C_3  and  C_2 
REMARK    2  A    between atoms: C_12  and  C_4 
REMARK       I    between atoms: C_5  and  N_8 
REMARK    3  A    between atoms: C_6  and  C_5 
REMARK       I    between atoms: N_9  and  C_6 
REMARK    4  A    between atoms: N_8  and  C_12 
REMARK    5  A    between atoms: C_19  and  N_9 
REMARK    6  A    between atoms: C_21  and  C_19 
ROOT
ATOM      1  C   UNL d   1     -49.052  11.176  23.298  0.00  0.00     0.337 C 
ATOM      2  N   UNL d   1     -48.249  11.095  23.441  0.00  0.00    -0.199 NA
ATOM      3  O   UNL d   1     -49.590  10.695  23.695  0.00  0.00    -0.260 OA
ENDROOT
BRANCH   2   4
ATOM      4  C   UNL d   1     -47.712  11.576  23.044  0.00  0.00     0.146 C 
BRANCH   4   5
ATOM      5  C   UNL d   1     -46.900  11.513  23.215  0.00  0.00     0.190 A 
ATOM      6  N   UNL d   1     -46.320  12.026  22.937  0.00  0.00    -0.250 N 
ATOM      7  C   UNL d   1     -46.357  12.697  22.451  0.00  0.00     0.272 C 
ATOM      8  C   UNL d   1     -45.598  11.758  23.241  0.00  0.00     0.112 A 
ATOM      9  O   UNL d   1     -47.086  12.951  22.157  0.00  0.00    -0.266 OA
ATOM     10  C   UNL d   1     -45.739  11.090  23.696  0.00  0.00     0.144 A 
ATOM     11  O   UNL d   1     -46.555  10.944  23.675  0.00  0.00    -0.285 OA
BRANCH   7  12
ATOM     12  C   UNL d   1     -45.672  13.110  22.261  0.00  0.00     0.086 A 
ATOM     13  S   UNL d   1     -45.002  12.890  21.823  0.00  0.00    -0.082 SA
ATOM     14  C   UNL d   1     -44.481  13.544  21.816  0.00  0.00     0.036 A 
ATOM     15  C   UNL d   1     -44.837  14.152  22.247  0.00  0.00     0.008 A 
ATOM     16  C   UNL d   1     -45.567  13.891  22.522  0.00  0.00     0.012 A 
ENDBRANCH   7  12
ENDBRANCH   4   5
ENDBRANCH   2   4
BRANCH   1  17
ATOM     17  C   UNL d   1     -49.328  11.737  22.757  0.00  0.00     0.337 C 
ATOM     18  N   UNL d   1     -49.637  12.441  23.019  0.00  0.00    -0.202 NA
ATOM     19  O   UNL d   1     -49.289  11.578  21.951  0.00  0.00    -0.260 OA
BRANCH  18  20
ATOM     20  C   UNL d   1     -49.914  13.003  22.478  0.00  0.00     0.102 C 
BRANCH  20  21
ATOM     21  C   UNL d   1     -50.194  13.727  22.737  0.00  0.00     0.019 A 
ATOM     22  C   UNL d   1     -50.034  14.414  22.326  0.00  0.00     0.002 A 
ATOM     23  C   UNL d   1     -50.308  15.139  22.574  0.00  0.00     0.011 A 
ATOM     24  C   UNL d   1     -50.767  15.183  23.270  0.00  0.00     0.058 A 
ATOM     25  C   UNL d   1     -50.937  14.500  23.695  0.00  0.00     0.011 A 
ATOM     26 CL   UNL d   1     -51.051  15.921  23.531  0.00  0.00    -0.082 Cl
ATOM     27  C   UNL d   1     -50.653  13.771  23.434  0.00  0.00     0.002 A 
ENDBRANCH  20  21
ENDBRANCH  18  20
ENDBRANCH   1  17
TORSDOF 6
ENDMDL
MODEL 3
REMARK VINA RESULT:      -5.2      0.959      1.270
REMARK  6 active torsions:
REMARK  status: ('A' for Active; 'I' for Inactive)
REMARK       I    between atoms: C_2  and  N_1 
REMARK    1  A    between atoms: C_3  and  C_2 
REMARK    2  A    between atoms: C_12  and  C_4 
REMARK       I    between atoms: C_5  and  N_8 
REMARK    3  A    between atoms: C_6  and  C_5 
REMARK       I    between atoms: N_9  and  C_6 
REMARK    4  A    between atoms: N_8  and  C_12 
REMARK    5  A    between atoms: C_19  and  N_9 
REMARK    6  A    between atoms: C_21  and  C_19 
ROOT
ATOM      1  C   UNL d   1     -43.908  12.274  22.135  0.00  0.00     0.337 C 
ATOM      2  N   UNL d   1     -44.661  12.424  22.421  0.00  0.00    -0.199 NA
ATOM      3  O   UNL d   1     -43.435  11.708  22.500  0.00  0.00    -0.260 OA
ENDROOT
BRANCH   2   4
ATOM      4  C   UNL d   1     -45.133  12.990  22.055  0.00  0.00     0.146 C 
BRANCH   4   5
ATOM      5  C   UNL d   1     -45.716  13.386  22.497  0.00  0.00     0.190 A 
ATOM      6  N   UNL d   1     -46.524  13.355  22.345  0.00  0.00    -0.250 N 
ATOM      7  C   UNL d   1     -46.967  12.960  21.766  0.00  0.00     0.272 C 
ATOM      8  C   UNL d   1     -46.893  13.828  22.915  0.00  0.00     0.112 A 
ATOM      9  O   UNL d   1     -46.582  12.492  21.204  0.00  0.00    -0.266 OA
ATOM     10  C   UNL d   1     -46.316  14.142  23.407  0.00  0.00     0.144 A 
ATOM     11  O   UNL d   1     -45.583  13.861  23.138  0.00  0.00    -0.285 OA
BRANCH   7  12
ATOM     12  C   UNL d   1     -47.786  13.031  21.748  0.00  0.00     0.086 A 
ATOM     13  S   UNL d   1     -48.276  13.666  21.532  0.00  0.00    -0.082 SA
ATOM     14  C   UNL d   1     -49.068  13.413  21.626  0.00  0.00     0.036 A 
ATOM     15  C   UNL d   1     -49.051  12.633  21.896  0.00  0.00     0.008 A 
ATOM     16  C   UNL d   1     -48.267  12.394  21.972  0.00  0.00     0.012 A 
ENDBRANCH   7  12
ENDBRANCH   4   5
ENDBRANCH   2   4
BRANCH   1  17
ATOM     17  C   UNL d   1     -43.617  12.687  21.480  0.00  0.00     0.337 C 
ATOM     18  N   UNL d   1     -42.947  13.142  21.548  0.00  0.00    -0.202 NA
ATOM     19  O   UNL d   1     -44.010  12.635  20.759  0.00  0.00    -0.260 OA
BRANCH  18  20
ATOM     20  C   UNL d   1     -42.656  13.556  20.893  0.00  0.00     0.102 C 
BRANCH  20  21
ATOM     21  C   UNL d   1     -41.971  14.001  20.953  0.00  0.00     0.019 A 
ATOM     22  C   UNL d   1     -41.237  13.645  20.992  0.00  0.00     0.002 A 
ATOM     23  C   UNL d   1     -40.551  14.077  21.052  0.00  0.00     0.011 A 
ATOM     24  C   UNL d   1     -40.597  14.910  21.073  0.00  0.00     0.058 A 
ATOM     25  C   UNL d   1     -41.328  15.284  21.034  0.00  0.00     0.011 A 
ATOM     26 CL   UNL d   1     -39.898  15.360  21.134  0.00  0.00    -0.082 Cl
ATOM     27  C   UNL d   1     -42.017  14.834  20.974  0.00  0.00     0.002 A 
ENDBRANCH  20  21
ENDBRANCH  18  20
ENDBRANCH   1  17
TORSDOF 6
ENDMDL
MODEL 4
REMARK VINA RESULT:      -5.1      5.761      7.007
REMARK  6 active torsions:
REMARK  status: ('A' for Active; 'I' for Inactive)
REMARK       I    between atoms: C_2  and  N_1 
REMARK    1  A    between atoms: C_3  and  C_2 
REMARK    2  A    between atoms: C_12  and  C_4 
REMARK       I    between atoms: C_5  and  N_8 
REMARK    3  A    between atoms: C_6  and  C_5 
REMARK       I    between atoms: N_9  and  C_6 
REMARK    4  A    between atoms: N_8  and  C_12 
REMARK    5  A    between atoms: C_19  and  N_9 
REMARK    6  A    between atoms: C_21  and  C_19 
ROOT
ATOM      1  C   UNL d   1     -40.262  14.446  18.524  0.00  0.00     0.337 C 
ATOM      2  N   UNL d   1     -40.358  14.485  19.337  0.00  0.00    -0.199 NA
ATOM      3  O   UNL d   1     -40.906  14.269  18.043  0.00  0.00    -0.260 OA
ENDROOT
BRANCH   2   4
ATOM      4  C   UNL d   1     -39.714  14.662  19.818  0.00  0.00     0.146 C 
BRANCH   4   5
ATOM      5  C   UNL d   1     -39.840  15.028  20.554  0.00  0.00     0.190 A 
ATOM      6  N   UNL d   1     -39.511  14.778  21.265  0.00  0.00    -0.250 N 
ATOM      7  C   UNL d   1     -39.004  14.149  21.454  0.00  0.00     0.272 C 
ATOM      8  C   UNL d   1     -39.781  15.298  21.850  0.00  0.00     0.112 A 
ATOM      9  O   UNL d   1     -38.743  13.639  20.858  0.00  0.00    -0.266 OA
ATOM     10  C   UNL d   1     -40.268  15.856  21.497  0.00  0.00     0.144 A 
ATOM     11  O   UNL d   1     -40.299  15.681  20.687  0.00  0.00    -0.285 OA
BRANCH   7  12
ATOM     12  C   UNL d   1     -38.760  14.030  22.230  0.00  0.00     0.086 A 
ATOM     13  S   UNL d   1     -38.279  14.487  22.730  0.00  0.00    -0.082 SA
ATOM     14  C   UNL d   1     -38.225  14.085  23.462  0.00  0.00     0.036 A 
ATOM     15  C   UNL d   1     -38.670  13.392  23.400  0.00  0.00     0.008 A 
ATOM     16  C   UNL d   1     -39.000  13.354  22.647  0.00  0.00     0.012 A 
ENDBRANCH   7  12
ENDBRANCH   4   5
ENDBRANCH   2   4
BRANCH   1  17
ATOM     17  C   UNL d   1     -39.522  14.583  18.181  0.00  0.00     0.337 C 
ATOM     18  N   UNL d   1     -39.260  14.113  17.573  0.00  0.00    -0.202 NA
ATOM     19  O   UNL d   1     -39.053  15.199  18.460  0.00  0.00    -0.260 OA
BRANCH  18  20
ATOM     20  C   UNL d   1     -38.519  14.250  17.230  0.00  0.00     0.102 C 
BRANCH  20  21
ATOM     21  C   UNL d   1     -38.375  14.037  16.453  0.00  0.00     0.019 A 
ATOM     22  C   UNL d   1     -38.091  13.294  16.263  0.00  0.00     0.002 A 
ATOM     23  C   UNL d   1     -37.944  13.072  15.495  0.00  0.00     0.011 A 
ATOM     24  C   UNL d   1     -38.087  13.618  14.880  0.00  0.00     0.058 A 
ATOM     25  C   UNL d   1     -38.373  14.369  15.054  0.00  0.00     0.011 A 
ATOM     26 CL   UNL d   1     -37.940  13.398  14.090  0.00  0.00    -0.082 Cl
ATOM     27  C   UNL d   1     -38.518  14.583  15.838  0.00  0.00     0.002 A 
ENDBRANCH  20  21
ENDBRANCH  18  20
ENDBRANCH   1  17
TORSDOF 6
ENDMDL
MODEL 5
REMARK VINA RESULT:      -4.9      2.870      5.741
REMARK  6 active torsions:
REMARK  status: ('A' for Active; 'I' for Inactive)
REMARK       I    between atoms: C_2  and  N_1 
REMARK    1  A    between atoms: C_3  and  C_2 
REMARK    2  A    between atoms: C_12  and  C_4 
REMARK       I    between atoms: C_5  and  N_8 
REMARK    3  A    between atoms: C_6  and  C_5 
REMARK       I    between atoms: N_9  and  C_6 
REMARK    4  A    between atoms: N_8  and  C_12 
REMARK    5  A    between atoms: C_19  and  N_9 
REMARK    6  A    between atoms: C_21  and  C_19 
ROOT
ATOM      1  C   UNL d   1     -42.424  12.746  21.655  0.00  0.00     0.337 C 
ATOM      2  N   UNL d   1     -41.827  13.226  21.363  0.00  0.00    -0.199 NA
ATOM      3  O   UNL d   1     -42.261  12.209  22.256  0.00  0.00    -0.260 OA
ENDROOT
BRANCH   2   4
ATOM      4  C   UNL d   1     -41.991  13.763  20.761  0.00  0.00     0.146 C 
BRANCH   4   5
ATOM      5  C   UNL d   1     -41.524  14.446  20.682  0.00  0.00     0.190 A 
ATOM      6  N   UNL d   1     -41.101  14.651  20.007  0.00  0.00    -0.250 N 
ATOM      7  C   UNL d   1     -41.016  14.281  19.269  0.00  0.00     0.272 C 
ATOM      8  C   UNL d   1     -40.719  15.367  20.171  0.00  0.00     0.112 A 
ATOM      9  O   UNL d   1     -41.404  13.566  19.122  0.00  0.00    -0.266 OA
ATOM     10  C   UNL d   1     -40.908  15.593  20.937  0.00  0.00     0.144 A 
ATOM     11  O   UNL d   1     -41.411  15.012  21.249  0.00  0.00    -0.285 OA
BRANCH   7  12
ATOM     12  C   UNL d   1     -40.547  14.620  18.685  0.00  0.00     0.086 A 
ATOM     13  S   UNL d   1     -39.722  14.685  18.613  0.00  0.00    -0.082 SA
ATOM     14  C   UNL d   1     -39.565  15.089  17.897  0.00  0.00     0.036 A 
ATOM     15  C   UNL d   1     -40.290  15.264  17.545  0.00  0.00     0.008 A 
ATOM     16  C   UNL d   1     -40.895  14.979  18.024  0.00  0.00     0.012 A 
ENDBRANCH   7  12
ENDBRANCH   4   5
ENDBRANCH   2   4
BRANCH   1  17
ATOM     17  C   UNL d   1     -43.191  12.795  21.349  0.00  0.00     0.337 C 
ATOM     18  N   UNL d   1     -43.811  12.998  21.832  0.00  0.00    -0.202 NA
ATOM     19  O   UNL d   1     -43.321  12.637  20.552  0.00  0.00    -0.260 OA
BRANCH  18  20
ATOM     20  C   UNL d   1     -44.579  13.047  21.526  0.00  0.00     0.102 C 
BRANCH  20  21
ATOM     21  C   UNL d   1     -45.220  13.145  22.026  0.00  0.00     0.019 A 
ATOM     22  C   UNL d   1     -45.577  12.504  22.386  0.00  0.00     0.002 A 
ATOM     23  C   UNL d   1     -46.215  12.589  22.884  0.00  0.00     0.011 A 
ATOM     24  C   UNL d   1     -46.515  13.354  23.032  0.00  0.00     0.058 A 
ATOM     25  C   UNL d   1     -46.167  14.009  22.677  0.00  0.00     0.011 A 
ATOM     26 CL   UNL d   1     -47.167  13.450  23.540  0.00  0.00    -0.082 Cl
ATOM     27  C   UNL d   1     -45.520  13.910  22.174  0.00  0.00     0.002 A 
ENDBRANCH  20  21
ENDBRANCH  18  20
ENDBRANCH   1  17
TORSDOF 6
ENDMDL
MODEL 6
REMARK VINA RESULT:      -4.3      4.886      6.609
REMARK  6 active torsions:
REMARK  status: ('A' for Active; 'I' for Inactive)
REMARK       I    between atoms: C_2  and  N_1 
REMARK    1  A    between atoms: C_3  and  C_2 
REMARK    2  A    between atoms: C_12  and  C_4 
REMARK       I    between atoms: C_5  and  N_8 
REMARK    3  A    between atoms: C_6  and  C_5 
REMARK       I    between atoms: N_9  and  C_6 
REMARK    4  A    between atoms: N_8  and  C_12 
REMARK    5  A    between atoms: C_19  and  N_9 
REMARK    6  A    between atoms: C_21  and  C_19 
ROOT
ATOM      1  C   UNL d   1     -40.872  15.128  18.130  0.00  0.00     0.337 C 
ATOM      2  N   UNL d   1     -41.056  15.332  18.902  0.00  0.00    -0.199 NA
ATOM      3  O   UNL d   1     -41.467  15.099  17.561  0.00  0.00    -0.260 OA
ENDROOT
BRANCH   2   4
ATOM      4  C   UNL d   1     -40.462  15.362  19.471  0.00  0.00     0.146 C 
BRANCH   4   5
ATOM      5  C   UNL d   1     -40.654  15.248  20.272  0.00  0.00     0.190 A 
ATOM      6  N   UNL d   1     -40.144  15.387  20.902  0.00  0.00    -0.250 N 
ATOM      7  C   UNL d   1     -39.360  15.657  20.935  0.00  0.00     0.272 C 
ATOM      8  C   UNL d   1     -40.560  15.201  21.593  0.00  0.00     0.112 A 
ATOM      9  O   UNL d   1     -38.958  15.838  20.236  0.00  0.00    -0.266 OA
ATOM     10  C   UNL d   1     -41.313  14.953  21.384  0.00  0.00     0.144 A 
ATOM     11  O   UNL d   1     -41.364  14.984  20.556  0.00  0.00    -0.285 OA
BRANCH   7  12
ATOM     12  C   UNL d   1     -38.981  15.745  21.659  0.00  0.00     0.086 A 
ATOM     13  S   UNL d   1     -39.280  15.880  22.422  0.00  0.00    -0.082 SA
ATOM     14  C   UNL d   1     -38.627  15.921  22.943  0.00  0.00     0.036 A 
ATOM     15  C   UNL d   1     -37.942  15.811  22.495  0.00  0.00     0.008 A 
ATOM     16  C   UNL d   1     -38.154  15.703  21.707  0.00  0.00     0.012 A 
ENDBRANCH   7  12
ENDBRANCH   4   5
ENDBRANCH   2   4
BRANCH   1  17
ATOM     17  C   UNL d   1     -40.094  14.951  17.916  0.00  0.00     0.337 C 
ATOM     18  N   UNL d   1     -39.839  14.180  17.899  0.00  0.00    -0.202 NA
ATOM     19  O   UNL d   1     -39.578  15.561  17.720  0.00  0.00    -0.260 OA
BRANCH  18  20
ATOM     20  C   UNL d   1     -39.060  14.002  17.685  0.00  0.00     0.102 C 
BRANCH  20  21
ATOM     21  C   UNL d   1     -38.781  13.234  17.727  0.00  0.00     0.019 A 
ATOM     22  C   UNL d   1     -38.405  12.956  18.397  0.00  0.00     0.002 A 
ATOM     23  C   UNL d   1     -38.125  12.194  18.449  0.00  0.00     0.011 A 
ATOM     24  C   UNL d   1     -38.224  11.680  17.799  0.00  0.00     0.058 A 
ATOM     25  C   UNL d   1     -38.600  11.944  17.118  0.00  0.00     0.011 A 
ATOM     26 CL   UNL d   1     -37.940  10.898  17.845  0.00  0.00    -0.082 Cl
ATOM     27  C   UNL d   1     -38.881  12.719  17.077  0.00  0.00     0.002 A 
ENDBRANCH  20  21
ENDBRANCH  18  20
ENDBRANCH   1  17
TORSDOF 6
ENDMDL
MODEL 7
REMARK VINA RESULT:      -4.1      3.999      6.987
REMARK  6 active torsions:
REMARK  status: ('A' for Active; 'I' for Inactive)
REMARK       I    between atoms: C_2  and  N_1 
REMARK    1  A    between atoms: C_3  and  C_2 
REMARK    2  A    between atoms: C_12  and  C_4 
REMARK       I    between atoms: C_5  and  N_8 
REMARK    3  A    between atoms: C_6  and  C_5 
REMARK       I    between atoms: N_9  and  C_6 
REMARK    4  A    between atoms: N_8  and  C_12 
REMARK    5  A    between atoms: C_19  and  N_9 
REMARK    6  A    between atoms: C_21  and  C_19 
ROOT
ATOM      1  C   UNL d   1     -40.860  15.300  20.513  0.00  0.00     0.337 C 
ATOM      2  N   UNL d   1     -40.604  15.483  19.757  0.00  0.00    -0.199 NA
ATOM      3  O   UNL d   1     -41.032  15.904  21.045  0.00  0.00    -0.260 OA
ENDROOT
BRANCH   2   4
ATOM      4  C   UNL d   1     -40.433  14.878  19.225  0.00  0.00     0.146 C 
BRANCH   4   5
ATOM      5  C   UNL d   1     -40.466  15.028  18.407  0.00  0.00     0.190 A 
ATOM      6  N   UNL d   1     -39.920  14.755  17.857  0.00  0.00    -0.250 N 
ATOM      7  C   UNL d   1     -39.235  14.292  17.933  0.00  0.00     0.272 C 
ATOM      8  C   UNL d   1     -40.166  15.033  17.117  0.00  0.00     0.112 A 
ATOM      9  O   UNL d   1     -39.004  14.023  18.679  0.00  0.00    -0.266 OA
ATOM     10  C   UNL d   1     -40.853  15.469  17.219  0.00  0.00     0.144 A 
ATOM     11  O   UNL d   1     -41.034  15.462  18.028  0.00  0.00    -0.285 OA
BRANCH   7  12
ATOM     12  C   UNL d   1     -38.787  14.101  17.271  0.00  0.00     0.086 A 
ATOM     13  S   UNL d   1     -38.371  14.578  16.734  0.00  0.00    -0.082 SA
ATOM     14  C   UNL d   1     -38.017  14.071  16.170  0.00  0.00     0.036 A 
ATOM     15  C   UNL d   1     -38.220  13.296  16.370  0.00  0.00     0.008 A 
ATOM     16  C   UNL d   1     -38.692  13.309  17.044  0.00  0.00     0.012 A 
ENDBRANCH   7  12
ENDBRANCH   4   5
ENDBRANCH   2   4
BRANCH   1  17
ATOM     17  C   UNL d   1     -40.949  14.512  20.749  0.00  0.00     0.337 C 
ATOM     18  N   UNL d   1     -41.690  14.188  20.822  0.00  0.00    -0.202 NA
ATOM     19  O   UNL d   1     -40.281  14.058  20.908  0.00  0.00    -0.260 OA
BRANCH  18  20
ATOM     20  C   UNL d   1     -41.779  13.399  21.057  0.00  0.00     0.102 C 
BRANCH  20  21
ATOM     21  C   UNL d   1     -42.506  13.120  21.311  0.00  0.00     0.019 A 
ATOM     22  C   UNL d   1     -43.202  13.475  21.073  0.00  0.00     0.002 A 
ATOM     23  C   UNL d   1     -43.929  13.206  21.319  0.00  0.00     0.011 A 
ATOM     24  C   UNL d   1     -43.966  12.547  21.831  0.00  0.00     0.058 A 
ATOM     25  C   UNL d   1     -43.274  12.179  22.080  0.00  0.00     0.011 A 
ATOM     26 CL   UNL d   1     -44.707  12.266  22.088  0.00  0.00    -0.082 Cl
ATOM     27  C   UNL d   1     -42.542  12.461  21.823  0.00  0.00     0.002 A 
ENDBRANCH  20  21
ENDBRANCH  18  20
ENDBRANCH   1  17
TORSDOF 6
ENDMDL
MODEL 8
REMARK VINA RESULT:      -3.4      2.559      5.408
REMARK  6 active torsions:
REMARK  status: ('A' for Active; 'I' for Inactive)
REMARK       I    between atoms: C_2  and  N_1 
REMARK    1  A    between atoms: C_3  and  C_2 
REMARK    2  A    between atoms: C_12  and  C_4 
REMARK       I    between atoms: C_5  and  N_8 
REMARK    3  A    between atoms: C_6  and  C_5 
REMARK       I    between atoms: N_9  and  C_6 
REMARK    4  A    between atoms: N_8  and  C_12 
REMARK    5  A    between atoms: C_19  and  N_9 
REMARK    6  A    between atoms: C_21  and  C_19 
ROOT
ATOM      1  C   UNL d   1     -46.691  11.821  23.421  0.00  0.00     0.337 C 
ATOM      2  N   UNL d   1     -45.959  11.496  23.244  0.00  0.00    -0.199 NA
ATOM      3  O   UNL d   1     -47.297  11.338  23.698  0.00  0.00    -0.260 OA
ENDROOT
BRANCH   2   4
ATOM      4  C   UNL d   1     -45.353  11.979  22.967  0.00  0.00     0.146 C 
BRANCH   4   5
ATOM      5  C   UNL d   1     -44.582  11.674  22.904  0.00  0.00     0.190 A 
ATOM      6  N   UNL d   1     -43.983  12.002  22.444  0.00  0.00    -0.250 N 
ATOM      7  C   UNL d   1     -43.961  12.668  21.950  0.00  0.00     0.272 C 
ATOM      8  C   UNL d   1     -43.315  11.524  22.546  0.00  0.00     0.112 A 
ATOM      9  O   UNL d   1     -44.638  13.134  21.859  0.00  0.00    -0.266 OA
ATOM     10  C   UNL d   1     -43.506  10.915  23.061  0.00  0.00     0.144 A 
ATOM     11  O   UNL d   1     -44.300  11.016  23.280  0.00  0.00    -0.285 OA
BRANCH   7  12
ATOM     12  C   UNL d   1     -43.271  12.866  21.550  0.00  0.00     0.086 A 
ATOM     13  S   UNL d   1     -42.508  13.042  21.827  0.00  0.00    -0.082 SA
ATOM     14  C   UNL d   1     -42.030  13.203  21.160  0.00  0.00     0.036 A 
ATOM     15  C   UNL d   1     -42.504  13.124  20.488  0.00  0.00     0.008 A 
ATOM     16  C   UNL d   1     -43.265  12.918  20.722  0.00  0.00     0.012 A 
ENDBRANCH   7  12
ENDBRANCH   4   5
ENDBRANCH   2   4
BRANCH   1  17
ATOM     17  C   UNL d   1     -46.826  12.631  23.324  0.00  0.00     0.337 C 
ATOM     18  N   UNL d   1     -47.442  12.890  22.864  0.00  0.00    -0.202 NA
ATOM     19  O   UNL d   1     -46.332  13.173  23.697  0.00  0.00    -0.260 OA
BRANCH  18  20
ATOM     20  C   UNL d   1     -47.578  13.701  22.766  0.00  0.00     0.102 C 
BRANCH  20  21
ATOM     21  C   UNL d   1     -48.315  13.976  22.540  0.00  0.00     0.019 A 
ATOM     22  C   UNL d   1     -48.594  14.700  22.795  0.00  0.00     0.002 A 
ATOM     23  C   UNL d   1     -49.325  14.982  22.576  0.00  0.00     0.011 A 
ATOM     24  C   UNL d   1     -49.805  14.518  22.075  0.00  0.00     0.058 A 
ATOM     25  C   UNL d   1     -49.539  13.788  21.810  0.00  0.00     0.011 A 
ATOM     26 CL   UNL d   1     -50.555  14.801  21.847  0.00  0.00    -0.082 Cl
ATOM     27  C   UNL d   1     -48.796  13.512  22.039  0.00  0.00     0.002 A 
ENDBRANCH  20  21
ENDBRANCH  18  20
ENDBRANCH   1  17
TORSDOF 6
ENDMDL
MODEL 9
REMARK VINA RESULT:      -3.2      2.712      5.851
REMARK  6 active torsions:
REMARK  status: ('A' for Active; 'I' for Inactive)
REMARK       I    between atoms: C_2  and  N_1 
REMARK    1  A    between atoms: C_3  and  C_2 
REMARK    2  A    between atoms: C_12  and  C_4 
REMARK       I    between atoms: C_5  and  N_8 
REMARK    3  A    between atoms: C_6  and  C_5 
REMARK       I    between atoms: N_9  and  C_6 
REMARK    4  A    between atoms: N_8  and  C_12 
REMARK    5  A    between atoms: C_19  and  N_9 
REMARK    6  A    between atoms: C_21  and  C_19 
ROOT
ATOM      1  C   UNL d   1     -42.990  12.902  20.715  0.00  0.00     0.337 C 
ATOM      2  N   UNL d   1     -42.335  13.385  20.614  0.00  0.00    -0.199 NA
ATOM      3  O   UNL d   1     -43.323  12.523  20.065  0.00  0.00    -0.260 OA
ENDROOT
BRANCH   2   4
ATOM      4  C   UNL d   1     -42.002  13.764  21.264  0.00  0.00     0.146 C 
BRANCH   4   5
ATOM      5  C   UNL d   1     -41.595  14.481  21.158  0.00  0.00     0.190 A 
ATOM      6  N   UNL d   1     -40.796  14.596  21.315  0.00  0.00    -0.250 N 
ATOM      7  C   UNL d   1     -40.205  14.088  21.600  0.00  0.00     0.272 C 
ATOM      8  C   UNL d   1     -40.627  15.385  21.132  0.00  0.00     0.112 A 
ATOM      9  O   UNL d   1     -40.391  13.303  21.779  0.00  0.00    -0.266 OA
ATOM     10  C   UNL d   1     -41.315  15.744  20.866  0.00  0.00     0.144 A 
ATOM     11  O   UNL d   1     -41.916  15.172  20.885  0.00  0.00    -0.285 OA
BRANCH   7  12
ATOM     12  C   UNL d   1     -39.437  14.361  21.706  0.00  0.00     0.086 A 
ATOM     13  S   UNL d   1     -39.111  14.874  22.271  0.00  0.00    -0.082 SA
ATOM     14  C   UNL d   1     -38.295  14.948  22.100  0.00  0.00     0.036 A 
ATOM     15  C   UNL d   1     -38.135  14.483  21.437  0.00  0.00     0.008 A 
ATOM     16  C   UNL d   1     -38.832  14.121  21.192  0.00  0.00     0.012 A 
ENDBRANCH   7  12
ENDBRANCH   4   5
ENDBRANCH   2   4
BRANCH   1  17
ATOM     17  C   UNL d   1     -43.320  12.792  21.465  0.00  0.00     0.337 C 
ATOM     18  N   UNL d   1     -44.074  13.049  21.622  0.00  0.00    -0.202 NA
ATOM     19  O   UNL d   1     -42.879  12.420  22.052  0.00  0.00    -0.260 OA
BRANCH  18  20
ATOM     20  C   UNL d   1     -44.405  12.939  22.373  0.00  0.00     0.102 C 
BRANCH  20  21
ATOM     21  C   UNL d   1     -45.191  13.120  22.512  0.00  0.00     0.019 A 
ATOM     22  C   UNL d   1     -45.470  13.883  22.431  0.00  0.00     0.002 A 
ATOM     23  C   UNL d   1     -46.249  14.074  22.567  0.00  0.00     0.011 A 
ATOM     24  C   UNL d   1     -46.780  13.472  22.797  0.00  0.00     0.058 A 
ATOM     25  C   UNL d   1     -46.515  12.699  22.882  0.00  0.00     0.011 A 
ATOM     26 CL   UNL d   1     -47.580  13.659  22.938  0.00  0.00    -0.082 Cl
ATOM     27  C   UNL d   1     -45.722  12.517  22.742  0.00  0.00     0.002 A 
ENDBRANCH  20  21
ENDBRANCH  18  20
ENDBRANCH   1  17
TORSDOF 6
ENDMDL
