MODEL 1
REMARK VINA RESULT:     -10.9      0.000      0.000
REMARK  4 active torsions:
REMARK  status: ('A' for Active; 'I' for Inactive)
REMARK    1  A    between atoms: C_6  and  N_1 
REMARK    2  A    between atoms: C_10  and  C_4 
REMARK    3  A    between atoms: C_8  and  C_6 
REMARK    4  A    between atoms: C_9  and  C_8 
ROOT
ATOM      1  N   UNL d   1      53.012  32.884  53.460  0.00  0.00    -0.305 N 
ATOM      2  C   UNL d   1      53.364  33.832  54.343  0.00  0.00     0.057 A 
ATOM      3  C   UNL d   1      53.577  33.089  54.026  0.00  0.00     0.067 A 
ATOM      4  C   UNL d   1      52.461  33.481  53.422  0.00  0.00     0.064 A 
ATOM      5  C   UNL d   1      52.672  34.073  53.966  0.00  0.00     0.022 A 
ATOM      6  C   UNL d   1      53.830  34.180  54.925  0.00  0.00     0.197 A 
ATOM      7  O   UNL d   1      53.618  34.923  55.242  0.00  0.00    -0.286 OA
ATOM      8  C   UNL d   1      54.253  32.704  54.297  0.00  0.00     0.018 A 
ATOM      9  C   UNL d   1      54.505  33.795  55.196  0.00  0.00     0.042 A 
ATOM     10  C   UNL d   1      54.714  33.065  54.885  0.00  0.00     0.005 A 
ENDROOT
BRANCH   4  11
ATOM     11  C   UNL d   1      51.755  33.726  53.038  0.00  0.00     0.016 A 
ATOM     12  C   UNL d   1      51.029  33.612  53.402  0.00  0.00     0.001 A 
ATOM     13  C   UNL d   1      50.337  33.850  53.028  0.00  0.00     0.000 A 
ATOM     14  C   UNL d   1      50.388  34.205  52.281  0.00  0.00     0.000 A 
ATOM     15  C   UNL d   1      51.111  34.323  51.911  0.00  0.00     0.000 A 
ATOM     16  C   UNL d   1      51.802  34.082  52.290  0.00  0.00     0.001 A 
ENDBRANCH   4  11
BRANCH   1  17
ATOM     17  C   UNL d   1      52.986  32.195  52.995  0.00  0.00     0.086 C 
BRANCH  17  18
ATOM     18  C   UNL d   1      52.932  31.457  53.374  0.00  0.00     0.089 C 
BRANCH  18  19
ATOM     19  C   UNL d   1      52.781  30.769  52.946  0.00  0.00     0.213 C 
ATOM     20  O   UNL d   1      52.355  30.157  53.288  0.00  0.00    -0.644 OA
ATOM     21  O   UNL d   1      53.046  30.671  52.175  0.00  0.00    -0.644 OA
ENDBRANCH  18  19
ENDBRANCH  17  18
ENDBRANCH   1  17
TORSDOF 4
ENDMDL
MODEL 2
REMARK VINA RESULT:     -10.3      1.359      3.649
REMARK  4 active torsions:
REMARK  status: ('A' for Active; 'I' for Inactive)
REMARK    1  A    between atoms: C_6  and  N_1 
REMARK    2  A    between atoms: C_10  and  C_4 
REMARK    3  A    between atoms: C_8  and  C_6 
REMARK    4  A    between atoms: C_9  and  C_8 
ROOT
ATOM      1  N   UNL d   1      53.129  32.174  53.355  0.00  0.00    -0.305 N 
ATOM      2  C   UNL d   1      53.479  30.924  53.693  0.00  0.00     0.057 A 
ATOM      3  C   UNL d   1      52.967  31.377  53.213  0.00  0.00     0.067 A 
ATOM      4  C   UNL d   1      53.724  32.220  53.906  0.00  0.00     0.064 A 
ATOM      5  C   UNL d   1      53.948  31.449  54.122  0.00  0.00     0.022 A 
ATOM      6  C   UNL d   1      53.445  30.102  53.670  0.00  0.00     0.197 A 
ATOM      7  O   UNL d   1      53.957  29.649  54.150  0.00  0.00    -0.286 OA
ATOM      8  C   UNL d   1      52.428  31.001  52.717  0.00  0.00     0.018 A 
ATOM      9  C   UNL d   1      52.907  29.727  53.174  0.00  0.00     0.042 A 
ATOM     10  C   UNL d   1      52.404  30.172  52.703  0.00  0.00     0.005 A 
ENDROOT
BRANCH   4  11
ATOM     11  C   UNL d   1      54.201  32.757  54.343  0.00  0.00     0.016 A 
ATOM     12  C   UNL d   1      54.033  32.908  55.132  0.00  0.00     0.001 A 
ATOM     13  C   UNL d   1      54.497  33.432  55.561  0.00  0.00     0.000 A 
ATOM     14  C   UNL d   1      55.135  33.803  55.182  0.00  0.00     0.000 A 
ATOM     15  C   UNL d   1      55.309  33.657  54.395  0.00  0.00     0.000 A 
ATOM     16  C   UNL d   1      54.841  33.131  53.968  0.00  0.00     0.001 A 
ENDBRANCH   4  11
BRANCH   1  17
ATOM     17  C   UNL d   1      52.762  32.835  53.008  0.00  0.00     0.086 C 
BRANCH  17  18
ATOM     18  C   UNL d   1      51.955  32.970  53.155  0.00  0.00     0.089 C 
BRANCH  18  19
ATOM     19  C   UNL d   1      51.586  33.662  52.901  0.00  0.00     0.213 C 
ATOM     20  O   UNL d   1      50.970  33.984  53.337  0.00  0.00    -0.644 OA
ATOM     21  O   UNL d   1      51.815  34.048  52.213  0.00  0.00    -0.644 OA
ENDBRANCH  18  19
ENDBRANCH  17  18
ENDBRANCH   1  17
TORSDOF 4
ENDMDL
MODEL 3
REMARK VINA RESULT:      -9.9      0.702      2.853
REMARK  4 active torsions:
REMARK  status: ('A' for Active; 'I' for Inactive)
REMARK    1  A    between atoms: C_6  and  N_1 
REMARK    2  A    between atoms: C_10  and  C_4 
REMARK    3  A    between atoms: C_8  and  C_6 
REMARK    4  A    between atoms: C_9  and  C_8 
ROOT
ATOM      1  N   UNL d   1      53.149  32.731  53.548  0.00  0.00    -0.305 N 
ATOM      2  C   UNL d   1      52.775  31.501  53.166  0.00  0.00     0.057 A 
ATOM      3  C   UNL d   1      53.378  31.938  53.544  0.00  0.00     0.067 A 
ATOM      4  C   UNL d   1      52.425  32.790  53.183  0.00  0.00     0.064 A 
ATOM      5  C   UNL d   1      52.185  32.032  52.943  0.00  0.00     0.022 A 
ATOM      6  C   UNL d   1      52.850  30.685  53.080  0.00  0.00     0.197 A 
ATOM      7  O   UNL d   1      52.248  30.248  52.702  0.00  0.00    -0.286 OA
ATOM      8  C   UNL d   1      54.048  31.554  53.831  0.00  0.00     0.018 A 
ATOM      9  C   UNL d   1      53.519  30.302  53.366  0.00  0.00     0.042 A 
ATOM     10  C   UNL d   1      54.111  30.731  53.738  0.00  0.00     0.005 A 
ENDROOT
BRANCH   4  11
ATOM     11  C   UNL d   1      51.825  33.333  52.957  0.00  0.00     0.016 A 
ATOM     12  C   UNL d   1      51.936  33.819  52.305  0.00  0.00     0.001 A 
ATOM     13  C   UNL d   1      51.351  34.351  52.082  0.00  0.00     0.000 A 
ATOM     14  C   UNL d   1      50.651  34.384  52.524  0.00  0.00     0.000 A 
ATOM     15  C   UNL d   1      50.533  33.901  53.176  0.00  0.00     0.000 A 
ATOM     16  C   UNL d   1      51.122  33.370  53.397  0.00  0.00     0.001 A 
ENDBRANCH   4  11
BRANCH   1  17
ATOM     17  C   UNL d   1      53.567  33.378  53.863  0.00  0.00     0.086 C 
BRANCH  17  18
ATOM     18  C   UNL d   1      53.719  33.398  54.680  0.00  0.00     0.089 C 
BRANCH  18  19
ATOM     19  C   UNL d   1      54.093  34.046  55.028  0.00  0.00     0.213 C 
ATOM     20  O   UNL d   1      53.650  34.684  55.291  0.00  0.00    -0.644 OA
ATOM     21  O   UNL d   1      54.908  34.076  55.122  0.00  0.00    -0.644 OA
ENDBRANCH  18  19
ENDBRANCH  17  18
ENDBRANCH   1  17
TORSDOF 4
ENDMDL
MODEL 4
REMARK VINA RESULT:      -9.6      0.862      2.947
REMARK  4 active torsions:
REMARK  status: ('A' for Active; 'I' for Inactive)
REMARK    1  A    between atoms: C_6  and  N_1 
REMARK    2  A    between atoms: C_10  and  C_4 
REMARK    3  A    between atoms: C_8  and  C_6 
REMARK    4  A    between atoms: C_9  and  C_8 
ROOT
ATOM      1  N   UNL d   1      52.790  32.896  53.236  0.00  0.00    -0.305 N 
ATOM      2  C   UNL d   1      52.092  34.029  53.404  0.00  0.00     0.057 A 
ATOM      3  C   UNL d   1      52.108  33.297  53.001  0.00  0.00     0.067 A 
ATOM      4  C   UNL d   1      53.190  33.361  53.770  0.00  0.00     0.064 A 
ATOM      5  C   UNL d   1      52.764  34.066  53.880  0.00  0.00     0.022 A 
ATOM      6  C   UNL d   1      51.470  34.554  53.279  0.00  0.00     0.197 A 
ATOM      7  O   UNL d   1      51.454  35.286  53.681  0.00  0.00    -0.286 OA
ATOM      8  C   UNL d   1      51.503  33.101  52.479  0.00  0.00     0.018 A 
ATOM      9  C   UNL d   1      50.865  34.357  52.757  0.00  0.00     0.042 A 
ATOM     10  C   UNL d   1      50.881  33.639  52.362  0.00  0.00     0.005 A 
ENDROOT
BRANCH   4  11
ATOM     11  C   UNL d   1      53.875  33.397  54.255  0.00  0.00     0.016 A 
ATOM     12  C   UNL d   1      53.814  33.261  55.062  0.00  0.00     0.001 A 
ATOM     13  C   UNL d   1      54.483  33.295  55.539  0.00  0.00     0.000 A 
ATOM     14  C   UNL d   1      55.214  33.469  55.189  0.00  0.00     0.000 A 
ATOM     15  C   UNL d   1      55.282  33.606  54.383  0.00  0.00     0.000 A 
ATOM     16  C   UNL d   1      54.610  33.570  53.910  0.00  0.00     0.001 A 
ENDBRANCH   4  11
BRANCH   1  17
ATOM     17  C   UNL d   1      53.048  32.145  52.987  0.00  0.00     0.086 C 
BRANCH  17  18
ATOM     18  C   UNL d   1      52.590  31.479  53.180  0.00  0.00     0.089 C 
BRANCH  18  19
ATOM     19  C   UNL d   1      52.852  30.717  53.004  0.00  0.00     0.213 C 
ATOM     20  O   UNL d   1      52.963  30.170  53.606  0.00  0.00    -0.644 OA
ATOM     21  O   UNL d   1      53.007  30.479  52.234  0.00  0.00    -0.644 OA
ENDBRANCH  18  19
ENDBRANCH  17  18
ENDBRANCH   1  17
TORSDOF 4
ENDMDL
MODEL 5
REMARK VINA RESULT:      -9.2      1.379      3.431
REMARK  4 active torsions:
REMARK  status: ('A' for Active; 'I' for Inactive)
REMARK    1  A    between atoms: C_6  and  N_1 
REMARK    2  A    between atoms: C_10  and  C_4 
REMARK    3  A    between atoms: C_8  and  C_6 
REMARK    4  A    between atoms: C_9  and  C_8 
ROOT
ATOM      1  N   UNL d   1      53.300  32.991  53.587  0.00  0.00    -0.305 N 
ATOM      2  C   UNL d   1      52.024  33.201  53.232  0.00  0.00     0.057 A 
ATOM      3  C   UNL d   1      52.738  33.578  53.444  0.00  0.00     0.067 A 
ATOM      4  C   UNL d   1      52.950  32.267  53.468  0.00  0.00     0.064 A 
ATOM      5  C   UNL d   1      52.158  32.387  53.248  0.00  0.00     0.022 A 
ATOM      6  C   UNL d   1      51.357  33.650  53.056  0.00  0.00     0.197 A 
ATOM      7  O   UNL d   1      50.643  33.273  52.844  0.00  0.00    -0.286 OA
ATOM      8  C   UNL d   1      52.776  34.400  53.477  0.00  0.00     0.018 A 
ATOM      9  C   UNL d   1      51.395  34.471  53.089  0.00  0.00     0.042 A 
ATOM     10  C   UNL d   1      52.096  34.842  53.297  0.00  0.00     0.005 A 
ENDROOT
BRANCH   4  11
ATOM     11  C   UNL d   1      53.088  31.438  53.484  0.00  0.00     0.016 A 
ATOM     12  C   UNL d   1      53.114  31.041  54.202  0.00  0.00     0.001 A 
ATOM     13  C   UNL d   1      53.249  30.230  54.221  0.00  0.00     0.000 A 
ATOM     14  C   UNL d   1      53.358  29.826  53.505  0.00  0.00     0.000 A 
ATOM     15  C   UNL d   1      53.333  30.217  52.784  0.00  0.00     0.000 A 
ATOM     16  C   UNL d   1      53.197  31.029  52.770  0.00  0.00     0.001 A 
ENDBRANCH   4  11
BRANCH   1  17
ATOM     17  C   UNL d   1      54.094  33.093  53.814  0.00  0.00     0.086 C 
BRANCH  17  18
ATOM     18  C   UNL d   1      54.260  33.494  54.523  0.00  0.00     0.089 C 
BRANCH  18  19
ATOM     19  C   UNL d   1      55.034  33.570  54.798  0.00  0.00     0.213 C 
ATOM     20  O   UNL d   1      55.176  33.723  55.591  0.00  0.00    -0.644 OA
ATOM     21  O   UNL d   1      55.681  33.497  54.297  0.00  0.00    -0.644 OA
ENDBRANCH  18  19
ENDBRANCH  17  18
ENDBRANCH   1  17
TORSDOF 4
ENDMDL
MODEL 6
REMARK VINA RESULT:      -8.8      1.477      2.804
REMARK  4 active torsions:
REMARK  status: ('A' for Active; 'I' for Inactive)
REMARK    1  A    between atoms: C_6  and  N_1 
REMARK    2  A    between atoms: C_10  and  C_4 
REMARK    3  A    between atoms: C_8  and  C_6 
REMARK    4  A    between atoms: C_9  and  C_8 
ROOT
ATOM      1  N   UNL d   1      52.872  33.088  53.469  0.00  0.00    -0.305 N 
ATOM      2  C   UNL d   1      53.750  33.110  54.482  0.00  0.00     0.057 A 
ATOM      3  C   UNL d   1      53.264  33.585  53.998  0.00  0.00     0.067 A 
ATOM      4  C   UNL d   1      53.104  32.323  53.617  0.00  0.00     0.064 A 
ATOM      5  C   UNL d   1      53.649  32.327  54.244  0.00  0.00     0.022 A 
ATOM      6  C   UNL d   1      54.213  33.456  55.069  0.00  0.00     0.197 A 
ATOM      7  O   UNL d   1      54.699  32.980  55.553  0.00  0.00    -0.286 OA
ATOM      8  C   UNL d   1      53.247  34.402  54.106  0.00  0.00     0.018 A 
ATOM      9  C   UNL d   1      54.196  34.271  55.177  0.00  0.00     0.042 A 
ATOM     10  C   UNL d   1      53.719  34.739  54.701  0.00  0.00     0.005 A 
ENDROOT
BRANCH   4  11
ATOM     11  C   UNL d   1      53.000  31.526  53.372  0.00  0.00     0.016 A 
ATOM     12  C   UNL d   1      52.372  31.086  53.665  0.00  0.00     0.001 A 
ATOM     13  C   UNL d   1      52.268  30.306  53.428  0.00  0.00     0.000 A 
ATOM     14  C   UNL d   1      52.807  29.976  52.891  0.00  0.00     0.000 A 
ATOM     15  C   UNL d   1      53.436  30.410  52.594  0.00  0.00     0.000 A 
ATOM     16  C   UNL d   1      53.536  31.191  52.835  0.00  0.00     0.001 A 
ENDBRANCH   4  11
BRANCH   1  17
ATOM     17  C   UNL d   1      52.328  33.304  52.877  0.00  0.00     0.086 C 
BRANCH  17  18
ATOM     18  C   UNL d   1      51.664  33.758  53.089  0.00  0.00     0.089 C 
BRANCH  18  19
ATOM     19  C   UNL d   1      51.088  33.954  52.533  0.00  0.00     0.213 C 
ATOM     20  O   UNL d   1      50.295  33.955  52.746  0.00  0.00    -0.644 OA
ATOM     21  O   UNL d   1      51.280  34.152  51.760  0.00  0.00    -0.644 OA
ENDBRANCH  18  19
ENDBRANCH  17  18
ENDBRANCH   1  17
TORSDOF 4
ENDMDL
