MODEL 1
REMARK VINA RESULT:      14.7      0.000      0.000
REMARK  4 active torsions:
REMARK  status: ('A' for Active; 'I' for Inactive)
REMARK    1  A    between atoms: N_4  and  C_1 
REMARK    2  A    between atoms: S_8  and  C_2 
REMARK    3  A    between atoms: N_6  and  C_9 
REMARK    4  A    between atoms: C_16  and  S_8 
ROOT
ATOM      1  S   UNL d   1      45.048 -13.664  44.632  0.00  0.00    -0.066 SA
ENDROOT
BRANCH   1   2
ATOM      2  C   UNL d   1      45.348 -13.053  44.163  0.00  0.00     0.136 A 
ATOM      3  C   UNL d   1      45.044 -12.653  43.508  0.00  0.00     0.232 A 
ATOM      4  N   UNL d   1      45.618 -12.093  43.285  0.00  0.00    -0.201 NA
ATOM      5  C   UNL d   1      46.260 -12.157  43.804  0.00  0.00     0.185 A 
ATOM      6  N   UNL d   1      46.074 -12.747  44.328  0.00  0.00    -0.279 N 
ATOM      7  C   UNL d   1      46.568 -12.997  44.949  0.00  0.00     0.101 C 
BRANCH   3   8
ATOM      8  N   UNL d   1      44.313 -12.779  43.140  0.00  0.00    -0.093 N 
ATOM      9  O   UNL d   1      44.211 -12.587  42.342  0.00  0.00    -0.530 OA
ATOM     10  O   UNL d   1      43.675 -13.101  43.570  0.00  0.00    -0.530 OA
ENDBRANCH   3   8
ENDBRANCH   1   2
BRANCH   1  11
ATOM     11  C   UNL d   1      45.287 -14.438  44.543  0.00  0.00     0.031 A 
ATOM     12  C   UNL d   1      44.829 -15.041  44.885  0.00  0.00     0.008 A 
ATOM     13  C   UNL d   1      45.063 -15.830  44.800  0.00  0.00     0.024 A 
ATOM     14  C   UNL d   1      45.735 -16.012  44.386  0.00  0.00     0.127 A 
ATOM     15  C   UNL d   1      46.190 -15.406  44.046  0.00  0.00     0.024 A 
ATOM     16  C   UNL d   1      45.961 -14.641  44.130  0.00  0.00     0.008 A 
BRANCH  14  17
ATOM     17  N   UNL d   1      45.967 -16.798  44.303  0.00  0.00    -0.114 N 
ATOM     18  O   UNL d   1      45.919 -17.307  44.951  0.00  0.00    -0.532 OA
ATOM     19  O   UNL d   1      46.245 -17.074  43.581  0.00  0.00    -0.532 OA
ENDBRANCH  14  17
ENDBRANCH   1  11
TORSDOF 4
ENDMDL
MODEL 2
REMARK VINA RESULT:      17.5      2.981      5.332
REMARK  4 active torsions:
REMARK  status: ('A' for Active; 'I' for Inactive)
REMARK    1  A    between atoms: N_4  and  C_1 
REMARK    2  A    between atoms: S_8  and  C_2 
REMARK    3  A    between atoms: N_6  and  C_9 
REMARK    4  A    between atoms: C_16  and  S_8 
ROOT
ATOM      1  S   UNL d   1      46.646 -18.686  43.611  0.00  0.00    -0.066 SA
ENDROOT
BRANCH   1   2
ATOM      2  C   UNL d   1      46.119 -19.310  43.485  0.00  0.00     0.136 A 
ATOM      3  C   UNL d   1      45.760 -19.608  42.805  0.00  0.00     0.232 A 
ATOM      4  N   UNL d   1      45.284 -20.246  43.047  0.00  0.00    -0.201 NA
ATOM      5  C   UNL d   1      45.359 -20.330  43.868  0.00  0.00     0.185 A 
ATOM      6  N   UNL d   1      45.871 -19.751  44.112  0.00  0.00    -0.279 N 
ATOM      7  C   UNL d   1      46.104 -19.632  44.902  0.00  0.00     0.101 C 
BRANCH   3   8
ATOM      8  N   UNL d   1      45.851 -19.331  42.030  0.00  0.00    -0.093 N 
ATOM      9  O   UNL d   1      45.187 -19.110  41.587  0.00  0.00    -0.530 OA
ATOM     10  O   UNL d   1      46.610 -19.272  41.690  0.00  0.00    -0.530 OA
ENDBRANCH   3   8
ENDBRANCH   1   2
BRANCH   1  11
ATOM     11  C   UNL d   1      46.397 -17.946  43.843  0.00  0.00     0.031 A 
ATOM     12  C   UNL d   1      46.487 -17.308  43.317  0.00  0.00     0.008 A 
ATOM     13  C   UNL d   1      46.237 -16.554  43.544  0.00  0.00     0.024 A 
ATOM     14  C   UNL d   1      45.906 -16.437  44.275  0.00  0.00     0.127 A 
ATOM     15  C   UNL d   1      45.818 -17.077  44.797  0.00  0.00     0.024 A 
ATOM     16  C   UNL d   1      46.061 -17.808  44.575  0.00  0.00     0.008 A 
BRANCH  14  17
ATOM     17  N   UNL d   1      45.657 -15.684  44.499  0.00  0.00    -0.114 N 
ATOM     18  O   UNL d   1      44.866 -15.471  44.398  0.00  0.00    -0.532 OA
ATOM     19  O   UNL d   1      46.191 -15.150  44.819  0.00  0.00    -0.532 OA
ENDBRANCH  14  17
ENDBRANCH   1  11
TORSDOF 4
ENDMDL
