MODEL 1
REMARK VINA RESULT:      48.2      0.000      0.000
REMARK  2 active torsions:
REMARK  status: ('A' for Active; 'I' for Inactive)
REMARK    1  A    between atoms: C_9  and  C_2 
REMARK    2  A    between atoms: C_12  and  C_7 
ROOT
ATOM      1  N   UNL d   1     -58.506 -98.797 -44.713  0.00  0.00    -0.186 N 
ATOM      2  C   UNL d   1     -59.188 -98.793 -45.186  0.00  0.00     0.187 A 
ATOM      3  N   UNL d   1     -57.711 -98.808 -44.907  0.00  0.00    -0.162 NA
ATOM      4  C   UNL d   1     -58.745 -98.787 -43.921  0.00  0.00     0.217 A 
ATOM      5  N   UNL d   1     -59.840 -98.781 -44.683  0.00  0.00    -0.127 NA
ATOM      6  N   UNL d   1     -59.566 -98.778 -43.902  0.00  0.00    -0.120 NA
ATOM      7  C   UNL d   1     -57.135 -98.810 -44.312  0.00  0.00     0.108 A 
ATOM      8  S   UNL d   1     -58.178 -98.789 -43.323  0.00  0.00    -0.045 SA
ATOM      9  C   UNL d   1     -57.370 -98.800 -43.518  0.00  0.00     0.059 A 
ENDROOT
BRANCH   2  10
ATOM     10  C   UNL d   1     -59.201 -98.800 -46.017  0.00  0.00     0.038 A 
ATOM     11  C   UNL d   1     -58.490 -98.821 -46.436  0.00  0.00     0.003 A 
ATOM     12  C   UNL d   1     -58.495 -98.828 -47.252  0.00  0.00     0.000 A 
ATOM     13  C   UNL d   1     -57.787 -98.848 -47.663  0.00  0.00     0.000 C 
ATOM     14  C   UNL d   1     -59.219 -98.813 -47.648  0.00  0.00     0.000 A 
ATOM     15  C   UNL d   1     -59.928 -98.793 -47.233  0.00  0.00     0.000 A 
ATOM     16  C   UNL d   1     -59.915 -98.786 -46.414  0.00  0.00     0.003 A 
ENDBRANCH   2  10
BRANCH   7  17
ATOM     17  C   UNL d   1     -56.335 -98.821 -44.504  0.00  0.00     0.020 A 
ATOM     18  C   UNL d   1     -56.100 -98.851 -45.296  0.00  0.00     0.002 A 
ATOM     19  C   UNL d   1     -55.295 -98.861 -45.480  0.00  0.00     0.000 A 
ATOM     20  C   UNL d   1     -54.730 -98.842 -44.886  0.00  0.00     0.000 A 
ATOM     21  C   UNL d   1     -54.966 -98.812 -44.093  0.00  0.00     0.000 A 
ATOM     22  C   UNL d   1     -55.775 -98.801 -43.900  0.00  0.00     0.002 A 
ENDBRANCH   7  17
TORSDOF 2
ENDMDL
MODEL 2
REMARK VINA RESULT:      50.8      1.438      3.880
REMARK  2 active torsions:
REMARK  status: ('A' for Active; 'I' for Inactive)
REMARK    1  A    between atoms: C_9  and  C_2 
REMARK    2  A    between atoms: C_12  and  C_7 
ROOT
ATOM      1  N   UNL d   1     -57.665 -99.089 -44.908  0.00  0.00    -0.186 N 
ATOM      2  C   UNL d   1     -56.880 -99.133 -45.174  0.00  0.00     0.187 A 
ATOM      3  N   UNL d   1     -57.998 -99.231 -44.174  0.00  0.00    -0.162 NA
ATOM      4  C   UNL d   1     -58.138 -98.857 -45.546  0.00  0.00     0.217 A 
ATOM      5  N   UNL d   1     -56.876 -98.928 -45.971  0.00  0.00    -0.127 NA
ATOM      6  N   UNL d   1     -57.652 -98.758 -46.201  0.00  0.00    -0.120 NA
ATOM      7  C   UNL d   1     -58.813 -99.143 -44.060  0.00  0.00     0.108 A 
ATOM      8  S   UNL d   1     -58.950 -98.768 -45.441  0.00  0.00    -0.045 SA
ATOM      9  C   UNL d   1     -59.290 -98.911 -44.696  0.00  0.00     0.059 A 
ENDROOT
BRANCH   2  10
ATOM     10  C   UNL d   1     -56.223 -99.346 -44.711  0.00  0.00     0.038 A 
ATOM     11  C   UNL d   1     -55.975-100.134 -44.693  0.00  0.00     0.003 A 
ATOM     12  C   UNL d   1     -55.331-100.350 -44.241  0.00  0.00     0.000 A 
ATOM     13  C   UNL d   1     -55.089-101.132 -44.226  0.00  0.00     0.000 C 
ATOM     14  C   UNL d   1     -54.935 -99.772 -43.805  0.00  0.00     0.000 A 
ATOM     15  C   UNL d   1     -55.180 -98.988 -43.822  0.00  0.00     0.000 A 
ATOM     16  C   UNL d   1     -55.827 -98.777 -44.278  0.00  0.00     0.003 A 
ENDBRANCH   2  10
BRANCH   7  17
ATOM     17  C   UNL d   1     -59.152 -99.284 -43.323  0.00  0.00     0.020 A 
ATOM     18  C   UNL d   1     -59.625 -99.953 -43.207  0.00  0.00     0.002 A 
ATOM     19  C   UNL d   1     -59.961-100.088 -42.465  0.00  0.00     0.000 A 
ATOM     20  C   UNL d   1     -59.829 -99.567 -41.846  0.00  0.00     0.000 A 
ATOM     21  C   UNL d   1     -59.355 -98.897 -41.963  0.00  0.00     0.000 A 
ATOM     22  C   UNL d   1     -59.013 -98.755 -42.707  0.00  0.00     0.002 A 
ENDBRANCH   7  17
TORSDOF 2
ENDMDL
