MODEL 1
REMARK VINA RESULT:     112.4      0.000      0.000
REMARK  3 active torsions:
REMARK  status: ('A' for Active; 'I' for Inactive)
REMARK       I    between atoms: C_6  and  N_1 
REMARK    1  A    between atoms: C_11  and  C_5 
REMARK    2  A    between atoms: C_12  and  C_6 
REMARK    3  A    between atoms: C_14  and  C_15 
ROOT
ATOM      1  N   UNL d   1     -51.406  26.058  33.465  0.00  0.00    -0.264 N 
ATOM      2  C   UNL d   1     -51.892  25.387  33.457  0.00  0.00     0.198 A 
ATOM      3  C   UNL d   1     -50.633  25.811  33.524  0.00  0.00     0.138 A 
ATOM      4  N   UNL d   1     -51.417  24.727  33.511  0.00  0.00    -0.243 NA
ATOM      5  C   UNL d   1     -50.633  24.987  33.552  0.00  0.00     0.105 A 
ATOM      6  C   UNL d   1     -51.645  26.858  33.422  0.00  0.00     0.263 C 
ATOM      7  C   UNL d   1     -52.226  24.636  33.461  0.00  0.00     0.041 A 
ATOM      8  C   UNL d   1     -52.375  26.051  33.402  0.00  0.00     0.041 A 
ATOM      9  S   UNL d   1     -49.964  26.302  33.550  0.00  0.00    -0.058 SA
ATOM     10  N   UNL d   1     -53.536  25.210  33.356  0.00  0.00    -0.302 N 
ATOM     11  O   UNL d   1     -52.442  27.047  33.364  0.00  0.00    -0.267 OA
ATOM     12  C   UNL d   1     -53.202  25.962  33.352  0.00  0.00     0.080 A 
ATOM     13  C   UNL d   1     -53.053  24.547  33.411  0.00  0.00     0.080 A 
ATOM     14  C   UNL d   1     -54.355  25.122  33.306  0.00  0.00     0.100 C 
ENDROOT
BRANCH   6  15
ATOM     15  C   UNL d   1     -51.079  27.449  33.438  0.00  0.00     0.056 A 
ATOM     16  C   UNL d   1     -51.298  28.228  33.581  0.00  0.00     0.004 A 
ATOM     17  C   UNL d   1     -50.728  28.819  33.597  0.00  0.00    -0.004 A 
ATOM     18  C   UNL d   1     -49.934  28.630  33.468  0.00  0.00    -0.023 A 
ATOM     19  C   UNL d   1     -49.716  27.851  33.325  0.00  0.00    -0.004 A 
ATOM     20  C   UNL d   1     -50.290  27.260  33.310  0.00  0.00     0.004 A 
BRANCH  18  21
ATOM     21  C   UNL d   1     -49.360  29.225  33.484  0.00  0.00     0.019 C 
ATOM     22  C   UNL d   1     -48.778  28.655  33.645  0.00  0.00     0.004 C 
ATOM     23  C   UNL d   1     -49.933  29.788  33.324  0.00  0.00     0.004 C 
ATOM     24  C   UNL d   1     -48.782  29.820  33.500  0.00  0.00     0.004 C 
ENDBRANCH  18  21
ENDBRANCH   6  15
BRANCH   5  25
ATOM     25  C   UNL d   1     -49.947  24.541  33.612  0.00  0.00     0.020 A 
ATOM     26  C   UNL d   1     -49.964  23.794  33.969  0.00  0.00     0.004 A 
ATOM     27  C   UNL d   1     -49.271  23.350  34.027  0.00  0.00     0.030 A 
ATOM     28  C   UNL d   1     -48.560  23.649  33.729  0.00  0.00     0.140 A 
ATOM     29  C   UNL d   1     -48.547  24.395  33.374  0.00  0.00     0.030 A 
ATOM     30  F   UNL d   1     -47.863  23.198  33.790  0.00  0.00    -0.204 F 
ATOM     31  C   UNL d   1     -49.232  24.841  33.314  0.00  0.00     0.004 A 
ENDBRANCH   5  25
TORSDOF 3
ENDMDL
