MODEL 1
REMARK VINA RESULT:      84.5      0.000      0.000
REMARK  3 active torsions:
REMARK  status: ('A' for Active; 'I' for Inactive)
REMARK    1  A    between atoms: N_5  and  C_2 
REMARK    2  A    between atoms: C_8  and  C_3 
REMARK       I    between atoms: C_7  and  N_5 
REMARK    3  A    between atoms: C_10  and  C_7 
ROOT
ATOM      1  N   UNL d   1     -51.755  26.172  39.254  0.00  0.00    -0.200 NA
ATOM      2  C   UNL d   1     -52.035  25.598  38.735  0.00  0.00     0.216 A 
ATOM      3  C   UNL d   1     -51.683  26.885  38.827  0.00  0.00     0.172 A 
ATOM      4  N   UNL d   1     -51.924  26.728  38.046  0.00  0.00    -0.187 NA
ATOM      5  S   UNL d   1     -52.139  25.931  38.001  0.00  0.00     0.054 SA
ENDROOT
BRANCH   2   6
ATOM      6  N   UNL d   1     -52.189  24.797  38.930  0.00  0.00    -0.181 NA
ATOM      7  C   UNL d   1     -52.880  24.427  38.685  0.00  0.00     0.281 C 
ATOM      8  O   UNL d   1     -53.016  23.639  38.885  0.00  0.00    -0.265 OA
BRANCH   7   9
ATOM      9  C   UNL d   1     -53.434  24.846  38.241  0.00  0.00     0.058 C 
ATOM     10  C   UNL d   1     -53.971  24.444  37.761  0.00  0.00     0.005 C 
ATOM     11  C   UNL d   1     -53.451  25.669  38.279  0.00  0.00     0.005 C 
ENDBRANCH   7   9
ENDBRANCH   2   6
BRANCH   3  12
ATOM     12  C   UNL d   1     -51.426  27.621  39.095  0.00  0.00     0.036 A 
ATOM     13  C   UNL d   1     -51.521  28.296  38.618  0.00  0.00     0.003 A 
ATOM     14  C   UNL d   1     -51.264  29.032  38.886  0.00  0.00     0.000 A 
ATOM     15  C   UNL d   1     -50.910  29.102  39.634  0.00  0.00     0.000 A 
ATOM     16  C   UNL d   1     -50.816  28.429  40.111  0.00  0.00     0.000 A 
ATOM     17  C   UNL d   1     -51.073  27.691  39.843  0.00  0.00     0.003 A 
ENDBRANCH   3  12
TORSDOF 3
ENDMDL
MODEL 2
REMARK VINA RESULT:      87.4      6.680      7.881
REMARK  3 active torsions:
REMARK  status: ('A' for Active; 'I' for Inactive)
REMARK    1  A    between atoms: N_5  and  C_2 
REMARK    2  A    between atoms: C_8  and  C_3 
REMARK       I    between atoms: C_7  and  N_5 
REMARK    3  A    between atoms: C_10  and  C_7 
ROOT
ATOM      1  N   UNL d   1     -47.920  31.413  35.370  0.00  0.00    -0.200 NA
ATOM      2  C   UNL d   1     -47.403  30.914  35.771  0.00  0.00     0.216 A 
ATOM      3  C   UNL d   1     -47.464  31.894  34.864  0.00  0.00     0.172 A 
ATOM      4  N   UNL d   1     -46.668  31.676  34.968  0.00  0.00    -0.187 NA
ATOM      5  S   UNL d   1     -46.641  31.070  35.530  0.00  0.00     0.054 SA
ENDROOT
BRANCH   2   6
ATOM      6  N   UNL d   1     -47.622  30.337  36.337  0.00  0.00    -0.181 NA
ATOM      7  C   UNL d   1     -47.696  29.546  36.129  0.00  0.00     0.281 C 
ATOM      8  O   UNL d   1     -47.912  28.990  36.699  0.00  0.00    -0.265 OA
BRANCH   7   9
ATOM      9  C   UNL d   1     -47.553  29.310  35.352  0.00  0.00     0.058 C 
ATOM     10  C   UNL d   1     -48.182  29.135  34.849  0.00  0.00     0.005 C 
ATOM     11  C   UNL d   1     -46.777  29.251  35.079  0.00  0.00     0.005 C 
ENDBRANCH   7   9
ENDBRANCH   2   6
BRANCH   3  12
ATOM     12  C   UNL d   1     -47.719  32.484  34.346  0.00  0.00     0.036 A 
ATOM     13  C   UNL d   1     -47.169  32.904  33.887  0.00  0.00     0.003 A 
ATOM     14  C   UNL d   1     -47.424  33.493  33.369  0.00  0.00     0.000 A 
ATOM     15  C   UNL d   1     -48.233  33.669  33.305  0.00  0.00     0.000 A 
ATOM     16  C   UNL d   1     -48.784  33.249  33.764  0.00  0.00     0.000 A 
ATOM     17  C   UNL d   1     -48.529  32.659  34.283  0.00  0.00     0.003 A 
ENDBRANCH   3  12
TORSDOF 3
ENDMDL
