MODEL 1
REMARK VINA RESULT:       3.8      0.000      0.000
REMARK  2 active torsions:
REMARK  status: ('A' for Active; 'I' for Inactive)
REMARK    1  A    between atoms: C_4  and  N_1 
REMARK    2  A    between atoms: C_7  and  C_9 
ROOT
ATOM      1  C   UNL d   1      45.325 -13.648  44.385  0.00  0.00     0.070 A 
ATOM      2  C   UNL d   1      45.097 -13.358  43.643  0.00  0.00     0.024 A 
ATOM      3  C   UNL d   1      45.243 -12.578  43.445  0.00  0.00     0.066 A 
ATOM      4  C   UNL d   1      45.700 -13.158  44.929  0.00  0.00     0.018 A 
ATOM      5  C   UNL d   1      45.620 -12.081  43.992  0.00  0.00     0.006 A 
ATOM      6  C   UNL d   1      45.849 -12.370  44.734  0.00  0.00     0.002 A 
ENDROOT
BRANCH   1   7
ATOM      7  N   UNL d   1      45.180 -14.434  44.588  0.00  0.00    -0.242 N 
ATOM      8  C   UNL d   1      45.752 -15.041  44.620  0.00  0.00     0.267 A 
ATOM      9  C   UNL d   1      45.376 -15.739  44.845  0.00  0.00     0.066 A 
ATOM     10  O   UNL d   1      46.562 -14.993  44.461  0.00  0.00    -0.267 OA
ATOM     11  C   UNL d   1      44.572 -15.571  44.954  0.00  0.00     0.066 A 
ATOM     12  C   UNL d   1      44.455 -14.774  44.797  0.00  0.00     0.267 A 
ATOM     13  O   UNL d   1      43.706 -14.414  44.853  0.00  0.00    -0.267 OA
ENDBRANCH   1   7
BRANCH   3  14
ATOM     14  C   UNL d   1      45.022 -12.279  42.714  0.00  0.00     0.211 C 
ATOM     15  O   UNL d   1      45.575 -12.176  42.118  0.00  0.00    -0.644 OA
ATOM     16  O   UNL d   1      44.226 -12.080  42.583  0.00  0.00    -0.644 OA
ENDBRANCH   3  14
TORSDOF 2
ENDMDL
