MODEL 1
REMARK VINA RESULT:       4.0      0.000      0.000
REMARK  7 active torsions:
REMARK  status: ('A' for Active; 'I' for Inactive)
REMARK    1  A    between atoms: C_12  and  N_3 
REMARK    2  A    between atoms: C_10  and  C_4 
REMARK    3  A    between atoms: C_15  and  C_12 
REMARK    4  A    between atoms: N_14  and  C_21 
REMARK    5  A    between atoms: C_22  and  N_14 
REMARK    6  A    between atoms: C_21  and  C_15 
REMARK    7  A    between atoms: C_20  and  C_22 
ROOT
ATOM      1  C   UNL d   1     -41.574-121.780 -53.566  0.00  0.00     0.137 A 
ATOM      2  N   UNL d   1     -41.734-121.037 -53.916  0.00  0.00    -0.259 N 
ATOM      3  N   UNL d   1     -41.384-121.824 -52.759  0.00  0.00    -0.287 N 
ATOM      4  C   UNL d   1     -41.605-122.469 -54.024  0.00  0.00     0.054 A 
ATOM      5  C   UNL d   1     -41.926-120.982 -54.726  0.00  0.00     0.266 A 
ATOM      6  C   UNL d   1     -41.511-120.396 -52.641  0.00  0.00     0.084 A 
ATOM      7  C   UNL d   1     -41.353-121.136 -52.301  0.00  0.00     0.082 A 
ATOM      8  C   UNL d   1     -41.796-122.424 -54.837  0.00  0.00     0.009 A 
ATOM      9  C   UNL d   1     -41.957-121.680 -55.188  0.00  0.00     0.061 A 
ATOM     10  O   UNL d   1     -42.084-120.249 -55.071  0.00  0.00    -0.267 OA
ATOM     11  C   UNL d   1     -41.480-119.711 -52.186  0.00  0.00     0.019 A 
ATOM     12  C   UNL d   1     -41.827-123.109 -55.291  0.00  0.00     0.000 C 
ATOM     13  C   UNL d   1     -41.163-121.179 -51.493  0.00  0.00     0.019 A 
ATOM     14  C   UNL d   1     -41.292-119.757 -51.386  0.00  0.00     0.002 A 
ATOM     15  C   UNL d   1     -41.133-120.493 -51.039  0.00  0.00     0.002 A 
ENDROOT
BRANCH   3  16
ATOM     16  C   UNL d   1     -41.228-122.559 -52.421  0.00  0.00     0.126 C 
BRANCH  16  17
ATOM     17  C   UNL d   1     -41.740-122.861 -51.850  0.00  0.00     0.232 C 
ATOM     18  O   UNL d   1     -42.539-122.651 -51.848  0.00  0.00    -0.283 OA
BRANCH  17  19
ATOM     19  C   UNL d   1     -41.457-123.377 -51.272  0.00  0.00     0.142 C 
BRANCH  19  20
ATOM     20  N   UNL d   1     -41.876-123.475 -50.566  0.00  0.00    -0.239 NA
BRANCH  20  21
ATOM     21  C   UNL d   1     -41.508-123.812 -49.912  0.00  0.00     0.099 C 
BRANCH  21  22
ATOM     22  C   UNL d   1     -41.816-123.687 -49.158  0.00  0.00     0.019 A 
ATOM     23  C   UNL d   1     -42.630-123.618 -49.043  0.00  0.00     0.002 A 
ATOM     24  C   UNL d   1     -42.933-123.494 -48.290  0.00  0.00     0.000 A 
ATOM     25  C   UNL d   1     -42.418-123.437 -47.641  0.00  0.00     0.000 A 
ATOM     26  C   UNL d   1     -41.604-123.507 -47.761  0.00  0.00     0.000 A 
ATOM     27  C   UNL d   1     -41.305-123.631 -48.513  0.00  0.00     0.002 A 
ENDBRANCH  21  22
ENDBRANCH  20  21
ENDBRANCH  19  20
ENDBRANCH  17  19
ENDBRANCH  16  17
ENDBRANCH   3  16
BRANCH   4  28
ATOM     28  C   UNL d   1     -41.448-123.200 -53.679  0.00  0.00     0.125 C 
ATOM     29  N   UNL d   1     -41.140-123.817 -54.142  0.00  0.00    -0.146 N 
ENDBRANCH   4  28
TORSDOF 7
ENDMDL
