MODEL 1
REMARK VINA RESULT:      -5.8      0.000      0.000
REMARK  4 active torsions:
REMARK  status: ('A' for Active; 'I' for Inactive)
REMARK    1  A    between atoms: N_7  and  C_1 
REMARK    2  A    between atoms: C_9  and  N_3 
REMARK       I    between atoms: C_11  and  N_7 
REMARK    3  A    between atoms: C_15  and  C_11 
REMARK    4  A    between atoms: C_17  and  C_15 
ROOT
ATOM      1  C   UNL d   1     -39.397  14.650  19.059  0.00  0.00     0.169 A 
ATOM      2  C   UNL d   1     -39.134  14.380  18.316  0.00  0.00     0.065 A 
ATOM      3  N   UNL d   1     -40.225  14.663  19.055  0.00  0.00    -0.212 N 
ATOM      4  N   UNL d   1     -40.476  14.401  18.309  0.00  0.00    -0.163 NA
ATOM      5  C   UNL d   1     -39.804  14.228  17.856  0.00  0.00     0.114 A 
ATOM      6  S   UNL d   1     -38.725  13.945  17.116  0.00  0.00     0.091 S 
ATOM      7  C   UNL d   1     -39.553  13.958  17.112  0.00  0.00     0.090 A 
ATOM      8  C   UNL d   1     -38.470  14.207  17.863  0.00  0.00     0.073 A 
ATOM      9  O   UNL d   1     -38.236  13.713  16.489  0.00  0.00    -0.247 OA
ENDROOT
BRANCH   1  10
ATOM     10  N   UNL d   1     -38.908  14.867  19.692  0.00  0.00    -0.189 NA
ATOM     11  C   UNL d   1     -38.427  14.312  20.057  0.00  0.00     0.281 C 
ATOM     12  O   UNL d   1     -38.427  13.519  19.793  0.00  0.00    -0.265 OA
BRANCH  11  13
ATOM     13  C   UNL d   1     -37.940  14.526  20.688  0.00  0.00     0.063 C 
BRANCH  13  14
ATOM     14  C   UNL d   1     -38.016  14.134  21.407  0.00  0.00     0.005 A 
ATOM     15  C   UNL d   1     -38.169  14.567  22.090  0.00  0.00     0.003 A 
ATOM     16  C   UNL d   1     -38.246  14.176  22.813  0.00  0.00     0.030 A 
ATOM     17  C   UNL d   1     -38.170  13.352  22.851  0.00  0.00     0.140 A 
ATOM     18  C   UNL d   1     -38.018  12.928  22.165  0.00  0.00     0.030 A 
ATOM     19  F   UNL d   1     -38.247  12.960  23.574  0.00  0.00    -0.204 F 
ATOM     20  C   UNL d   1     -37.940  13.315  21.441  0.00  0.00     0.003 A 
ENDBRANCH  13  14
ENDBRANCH  11  13
ENDBRANCH   1  10
BRANCH   3  21
ATOM     21  C   UNL d   1     -40.714  14.894  19.679  0.00  0.00     0.085 A 
ATOM     22  C   UNL d   1     -41.099  14.317  20.127  0.00  0.00     0.031 A 
ATOM     23  C   UNL d   1     -41.578  14.552  20.739  0.00  0.00     0.059 A 
ATOM     24 CL   UNL d   1     -41.964  13.988  21.191  0.00  0.00    -0.082 Cl
ATOM     25  C   UNL d   1     -41.682  15.352  20.912  0.00  0.00     0.011 A 
ATOM     26  C   UNL d   1     -41.302  15.922  20.467  0.00  0.00     0.002 A 
ATOM     27  C   UNL d   1     -40.813  15.692  19.844  0.00  0.00     0.019 A 
ENDBRANCH   3  21
TORSDOF 4
ENDMDL
MODEL 2
REMARK VINA RESULT:      -5.5      7.745      9.564
REMARK  4 active torsions:
REMARK  status: ('A' for Active; 'I' for Inactive)
REMARK    1  A    between atoms: N_7  and  C_1 
REMARK    2  A    between atoms: C_9  and  N_3 
REMARK       I    between atoms: C_11  and  N_7 
REMARK    3  A    between atoms: C_15  and  C_11 
REMARK    4  A    between atoms: C_17  and  C_15 
ROOT
ATOM      1  C   UNL d   1     -46.981  13.106  22.830  0.00  0.00     0.169 A 
ATOM      2  C   UNL d   1     -46.200  13.185  22.550  0.00  0.00     0.065 A 
ATOM      3  N   UNL d   1     -47.257  12.353  22.626  0.00  0.00    -0.212 N 
ATOM      4  N   UNL d   1     -46.649  11.964  22.219  0.00  0.00    -0.163 NA
ATOM      5  C   UNL d   1     -45.999  12.478  22.173  0.00  0.00     0.114 A 
ATOM      6  S   UNL d   1     -44.945  13.298  22.094  0.00  0.00     0.091 S 
ATOM      7  C   UNL d   1     -45.222  12.545  21.890  0.00  0.00     0.090 A 
ATOM      8  C   UNL d   1     -45.553  13.691  22.502  0.00  0.00     0.073 A 
ATOM      9  O   UNL d   1     -44.195  13.608  21.923  0.00  0.00    -0.247 OA
ENDROOT
BRANCH   1  10
ATOM     10  N   UNL d   1     -47.404  13.688  23.243  0.00  0.00    -0.189 NA
ATOM     11  C   UNL d   1     -47.553  14.417  22.901  0.00  0.00     0.281 C 
ATOM     12  O   UNL d   1     -47.277  14.582  22.128  0.00  0.00    -0.265 OA
BRANCH  11  13
ATOM     13  C   UNL d   1     -47.974  14.998  23.309  0.00  0.00     0.063 C 
BRANCH  13  14
ATOM     14  C   UNL d   1     -48.744  15.173  23.080  0.00  0.00     0.005 A 
ATOM     15  C   UNL d   1     -49.348  15.154  23.640  0.00  0.00     0.003 A 
ATOM     16  C   UNL d   1     -50.122  15.330  23.412  0.00  0.00     0.030 A 
ATOM     17  C   UNL d   1     -50.291  15.523  22.624  0.00  0.00     0.140 A 
ATOM     18  C   UNL d   1     -49.682  15.539  22.072  0.00  0.00     0.030 A 
ATOM     19  F   UNL d   1     -51.064  15.699  22.396  0.00  0.00    -0.204 F 
ATOM     20  C   UNL d   1     -48.909  15.365  22.297  0.00  0.00     0.003 A 
ENDBRANCH  13  14
ENDBRANCH  11  13
ENDBRANCH   1  10
BRANCH   3  21
ATOM     21  C   UNL d   1     -48.004  12.043  22.795  0.00  0.00     0.085 A 
ATOM     22  C   UNL d   1     -48.597  12.078  22.222  0.00  0.00     0.031 A 
ATOM     23  C   UNL d   1     -49.329  11.771  22.396  0.00  0.00     0.059 A 
ATOM     24 CL   UNL d   1     -49.925  11.801  21.835  0.00  0.00    -0.082 Cl
ATOM     25  C   UNL d   1     -49.479  11.429  23.132  0.00  0.00     0.011 A 
ATOM     26  C   UNL d   1     -48.892  11.394  23.698  0.00  0.00     0.002 A 
ATOM     27  C   UNL d   1     -48.146  11.704  23.529  0.00  0.00     0.019 A 
ENDBRANCH   3  21
TORSDOF 4
ENDMDL
MODEL 3
REMARK VINA RESULT:      -5.1      8.316      9.937
REMARK  4 active torsions:
REMARK  status: ('A' for Active; 'I' for Inactive)
REMARK    1  A    between atoms: N_7  and  C_1 
REMARK    2  A    between atoms: C_9  and  N_3 
REMARK       I    between atoms: C_11  and  N_7 
REMARK    3  A    between atoms: C_15  and  C_11 
REMARK    4  A    between atoms: C_17  and  C_15 
ROOT
ATOM      1  C   UNL d   1     -49.207  13.622  23.185  0.00  0.00     0.169 A 
ATOM      2  C   UNL d   1     -49.772  14.223  23.073  0.00  0.00     0.065 A 
ATOM      3  N   UNL d   1     -49.540  12.902  22.948  0.00  0.00    -0.212 N 
ATOM      4  N   UNL d   1     -50.312  13.056  22.689  0.00  0.00    -0.163 NA
ATOM      5  C   UNL d   1     -50.453  13.870  22.767  0.00  0.00     0.114 A 
ATOM      6  S   UNL d   1     -50.691  15.180  22.888  0.00  0.00     0.091 S 
ATOM      7  C   UNL d   1     -51.025  14.460  22.651  0.00  0.00     0.090 A 
ATOM      8  C   UNL d   1     -49.917  15.030  23.148  0.00  0.00     0.073 A 
ATOM      9  O   UNL d   1     -51.063  15.922  22.870  0.00  0.00    -0.247 OA
ENDROOT
BRANCH   1  10
ATOM     10  N   UNL d   1     -48.441  13.732  23.483  0.00  0.00    -0.189 NA
ATOM     11  C   UNL d   1     -47.885  14.159  23.058  0.00  0.00     0.281 C 
ATOM     12  O   UNL d   1     -48.087  14.488  22.316  0.00  0.00    -0.265 OA
BRANCH  11  13
ATOM     13  C   UNL d   1     -47.122  14.269  23.352  0.00  0.00     0.063 C 
BRANCH  13  14
ATOM     14  C   UNL d   1     -46.486  13.922  22.964  0.00  0.00     0.005 A 
ATOM     15  C   UNL d   1     -46.259  14.204  22.224  0.00  0.00     0.003 A 
ATOM     16  C   UNL d   1     -45.621  13.857  21.832  0.00  0.00     0.030 A 
ATOM     17  C   UNL d   1     -45.210  13.228  22.181  0.00  0.00     0.140 A 
ATOM     18  C   UNL d   1     -45.442  12.953  22.919  0.00  0.00     0.030 A 
ATOM     19  F   UNL d   1     -44.571  12.881  21.789  0.00  0.00    -0.204 F 
ATOM     20  C   UNL d   1     -46.079  13.298  23.313  0.00  0.00     0.003 A 
ENDBRANCH  13  14
ENDBRANCH  11  13
ENDBRANCH   1  10
BRANCH   3  21
ATOM     21  C   UNL d   1     -49.172  12.163  22.965  0.00  0.00     0.085 A 
ATOM     22  C   UNL d   1     -48.907  11.825  22.259  0.00  0.00     0.031 A 
ATOM     23  C   UNL d   1     -48.546  11.098  22.285  0.00  0.00     0.059 A 
ATOM     24 CL   UNL d   1     -48.280  10.754  21.590  0.00  0.00    -0.082 Cl
ATOM     25  C   UNL d   1     -48.444  10.701  23.001  0.00  0.00     0.011 A 
ATOM     26  C   UNL d   1     -48.707  11.035  23.698  0.00  0.00     0.002 A 
ATOM     27  C   UNL d   1     -49.074  11.774  23.681  0.00  0.00     0.019 A 
ENDBRANCH   3  21
TORSDOF 4
ENDMDL
MODEL 4
REMARK VINA RESULT:      -4.6      2.913      4.663
REMARK  4 active torsions:
REMARK  status: ('A' for Active; 'I' for Inactive)
REMARK    1  A    between atoms: N_7  and  C_1 
REMARK    2  A    between atoms: C_9  and  N_3 
REMARK       I    between atoms: C_11  and  N_7 
REMARK    3  A    between atoms: C_15  and  C_11 
REMARK    4  A    between atoms: C_17  and  C_15 
ROOT
ATOM      1  C   UNL d   1     -39.785  15.372  17.714  0.00  0.00     0.169 A 
ATOM      2  C   UNL d   1     -40.489  15.527  17.298  0.00  0.00     0.065 A 
ATOM      3  N   UNL d   1     -39.962  15.334  18.522  0.00  0.00    -0.212 N 
ATOM      4  N   UNL d   1     -40.776  15.465  18.607  0.00  0.00    -0.163 NA
ATOM      5  C   UNL d   1     -41.098  15.584  17.852  0.00  0.00     0.114 A 
ATOM      6  S   UNL d   1     -41.629  15.778  16.639  0.00  0.00     0.091 S 
ATOM      7  C   UNL d   1     -41.806  15.739  17.447  0.00  0.00     0.090 A 
ATOM      8  C   UNL d   1     -40.813  15.646  16.551  0.00  0.00     0.073 A 
ATOM      9  O   UNL d   1     -42.168  15.922  16.026  0.00  0.00    -0.247 OA
ENDROOT
BRANCH   1  10
ATOM     10  N   UNL d   1     -39.035  15.273  17.373  0.00  0.00    -0.189 NA
ATOM     11  C   UNL d   1     -38.904  14.683  16.819  0.00  0.00     0.281 C 
ATOM     12  O   UNL d   1     -39.528  14.173  16.593  0.00  0.00    -0.265 OA
BRANCH  11  13
ATOM     13  C   UNL d   1     -38.160  14.582  16.478  0.00  0.00     0.063 C 
BRANCH  13  14
ATOM     14  C   UNL d   1     -38.105  14.307  15.705  0.00  0.00     0.005 A 
ATOM     15  C   UNL d   1     -38.116  13.497  15.560  0.00  0.00     0.003 A 
ATOM     16  C   UNL d   1     -38.061  13.218  14.785  0.00  0.00     0.030 A 
ATOM     17  C   UNL d   1     -37.995  13.752  14.155  0.00  0.00     0.140 A 
ATOM     18  C   UNL d   1     -37.985  14.559  14.307  0.00  0.00     0.030 A 
ATOM     19  F   UNL d   1     -37.941  13.474  13.379  0.00  0.00    -0.204 F 
ATOM     20  C   UNL d   1     -38.040  14.839  15.080  0.00  0.00     0.003 A 
ENDBRANCH  13  14
ENDBRANCH  11  13
ENDBRANCH   1  10
BRANCH   3  21
ATOM     21  C   UNL d   1     -39.427  15.190  19.135  0.00  0.00     0.085 A 
ATOM     22  C   UNL d   1     -39.299  14.415  19.389  0.00  0.00     0.031 A 
ATOM     23  C   UNL d   1     -38.771  14.282  19.992  0.00  0.00     0.059 A 
ATOM     24 CL   UNL d   1     -38.638  13.517  20.252  0.00  0.00    -0.082 Cl
ATOM     25  C   UNL d   1     -38.368  14.908  20.346  0.00  0.00     0.011 A 
ATOM     26  C   UNL d   1     -38.495  15.675  20.095  0.00  0.00     0.002 A 
ATOM     27  C   UNL d   1     -39.029  15.819  19.482  0.00  0.00     0.019 A 
ENDBRANCH   3  21
TORSDOF 4
ENDMDL
MODEL 5
REMARK VINA RESULT:      -4.3      8.266      9.844
REMARK  4 active torsions:
REMARK  status: ('A' for Active; 'I' for Inactive)
REMARK    1  A    between atoms: N_7  and  C_1 
REMARK    2  A    between atoms: C_9  and  N_3 
REMARK       I    between atoms: C_11  and  N_7 
REMARK    3  A    between atoms: C_15  and  C_11 
REMARK    4  A    between atoms: C_17  and  C_15 
ROOT
ATOM      1  C   UNL d   1     -49.073  13.016  23.389  0.00  0.00     0.169 A 
ATOM      2  C   UNL d   1     -49.454  12.278  23.447  0.00  0.00     0.065 A 
ATOM      3  N   UNL d   1     -49.594  13.553  23.036  0.00  0.00    -0.212 N 
ATOM      4  N   UNL d   1     -50.300  13.149  22.875  0.00  0.00    -0.163 NA
ATOM      5  C   UNL d   1     -50.212  12.364  23.128  0.00  0.00     0.114 A 
ATOM      6  S   UNL d   1     -50.080  11.096  23.534  0.00  0.00     0.091 S 
ATOM      7  C   UNL d   1     -50.602  11.633  23.181  0.00  0.00     0.090 A 
ATOM      8  C   UNL d   1     -49.371  11.498  23.697  0.00  0.00     0.073 A 
ATOM      9  O   UNL d   1     -50.235  10.298  23.697  0.00  0.00    -0.247 OA
ENDROOT
BRANCH   1  10
ATOM     10  N   UNL d   1     -48.300  13.179  23.644  0.00  0.00    -0.189 NA
ATOM     11  C   UNL d   1     -47.676  12.699  23.416  0.00  0.00     0.281 C 
ATOM     12  O   UNL d   1     -47.814  12.037  22.923  0.00  0.00    -0.265 OA
BRANCH  11  13
ATOM     13  C   UNL d   1     -46.907  12.859  23.668  0.00  0.00     0.063 C 
BRANCH  13  14
ATOM     14  C   UNL d   1     -46.302  12.902  23.113  0.00  0.00     0.005 A 
ATOM     15  C   UNL d   1     -45.878  12.223  22.922  0.00  0.00     0.003 A 
ATOM     16  C   UNL d   1     -45.270  12.264  22.364  0.00  0.00     0.030 A 
ATOM     17  C   UNL d   1     -45.087  12.984  21.999  0.00  0.00     0.140 A 
ATOM     18  C   UNL d   1     -45.516  13.657  22.195  0.00  0.00     0.030 A 
ATOM     19  F   UNL d   1     -44.480  13.026  21.441  0.00  0.00    -0.204 F 
ATOM     20  C   UNL d   1     -46.123  13.620  22.751  0.00  0.00     0.003 A 
ENDBRANCH  13  14
ENDBRANCH  11  13
ENDBRANCH   1  10
BRANCH   3  21
ATOM     21  C   UNL d   1     -49.442  14.348  22.873  0.00  0.00     0.085 A 
ATOM     22  C   UNL d   1     -49.085  14.554  22.157  0.00  0.00     0.031 A 
ATOM     23  C   UNL d   1     -48.939  15.339  22.004  0.00  0.00     0.059 A 
ATOM     24 CL   UNL d   1     -48.585  15.554  21.297  0.00  0.00    -0.082 Cl
ATOM     25  C   UNL d   1     -49.142  15.921  22.552  0.00  0.00     0.011 A 
ATOM     26  C   UNL d   1     -49.495  15.717  23.259  0.00  0.00     0.002 A 
ATOM     27  C   UNL d   1     -49.647  14.922  23.423  0.00  0.00     0.019 A 
ENDBRANCH   3  21
TORSDOF 4
ENDMDL
MODEL 6
REMARK VINA RESULT:      -3.8      2.251      3.271
REMARK  4 active torsions:
REMARK  status: ('A' for Active; 'I' for Inactive)
REMARK    1  A    between atoms: N_7  and  C_1 
REMARK    2  A    between atoms: C_9  and  N_3 
REMARK       I    between atoms: C_11  and  N_7 
REMARK    3  A    between atoms: C_15  and  C_11 
REMARK    4  A    between atoms: C_17  and  C_15 
ROOT
ATOM      1  C   UNL d   1     -40.595  15.411  17.650  0.00  0.00     0.169 A 
ATOM      2  C   UNL d   1     -41.192  15.514  17.078  0.00  0.00     0.065 A 
ATOM      3  N   UNL d   1     -40.015  14.910  17.335  0.00  0.00    -0.212 N 
ATOM      4  N   UNL d   1     -40.252  14.702  16.569  0.00  0.00    -0.163 NA
ATOM      5  C   UNL d   1     -40.977  15.075  16.412  0.00  0.00     0.114 A 
ATOM      6  S   UNL d   1     -42.145  15.671  16.149  0.00  0.00     0.091 S 
ATOM      7  C   UNL d   1     -41.565  15.170  15.835  0.00  0.00     0.090 A 
ATOM      8  C   UNL d   1     -41.911  15.881  16.918  0.00  0.00     0.073 A 
ATOM      9  O   UNL d   1     -42.838  15.920  15.767  0.00  0.00    -0.247 OA
ENDROOT
BRANCH   1  10
ATOM     10  N   UNL d   1     -40.588  15.754  18.405  0.00  0.00    -0.189 NA
ATOM     11  C   UNL d   1     -41.126  15.516  18.976  0.00  0.00     0.281 C 
ATOM     12  O   UNL d   1     -41.688  14.922  18.801  0.00  0.00    -0.265 OA
BRANCH  11  13
ATOM     13  C   UNL d   1     -41.121  15.856  19.728  0.00  0.00     0.063 C 
BRANCH  13  14
ATOM     14  C   UNL d   1     -40.881  15.405  20.372  0.00  0.00     0.005 A 
ATOM     15  C   UNL d   1     -40.243  15.656  20.829  0.00  0.00     0.003 A 
ATOM     16  C   UNL d   1     -40.001  15.204  21.476  0.00  0.00     0.030 A 
ATOM     17  C   UNL d   1     -40.396  14.502  21.666  0.00  0.00     0.140 A 
ATOM     18  C   UNL d   1     -41.032  14.258  21.205  0.00  0.00     0.030 A 
ATOM     19  F   UNL d   1     -40.154  14.050  22.313  0.00  0.00    -0.204 F 
ATOM     20  C   UNL d   1     -41.276  14.707  20.558  0.00  0.00     0.003 A 
ENDBRANCH  13  14
ENDBRANCH  11  13
ENDBRANCH   1  10
BRANCH   3  21
ATOM     21  C   UNL d   1     -39.325  14.662  17.715  0.00  0.00     0.085 A 
ATOM     22  C   UNL d   1     -39.237  13.865  17.914  0.00  0.00     0.031 A 
ATOM     23  C   UNL d   1     -38.555  13.628  18.287  0.00  0.00     0.059 A 
ATOM     24 CL   UNL d   1     -38.457  12.840  18.489  0.00  0.00    -0.082 Cl
ATOM     25  C   UNL d   1     -37.960  14.171  18.464  0.00  0.00     0.011 A 
ATOM     26  C   UNL d   1     -38.048  14.958  18.267  0.00  0.00     0.002 A 
ATOM     27  C   UNL d   1     -38.737  15.207  17.888  0.00  0.00     0.019 A 
ENDBRANCH   3  21
TORSDOF 4
ENDMDL
MODEL 7
REMARK VINA RESULT:      -3.3      2.595      4.358
REMARK  4 active torsions:
REMARK  status: ('A' for Active; 'I' for Inactive)
REMARK    1  A    between atoms: N_7  and  C_1 
REMARK    2  A    between atoms: C_9  and  N_3 
REMARK       I    between atoms: C_11  and  N_7 
REMARK    3  A    between atoms: C_15  and  C_11 
REMARK    4  A    between atoms: C_17  and  C_15 
ROOT
ATOM      1  C   UNL d   1     -40.816  14.347  20.819  0.00  0.00     0.169 A 
ATOM      2  C   UNL d   1     -41.521  13.914  20.917  0.00  0.00     0.065 A 
ATOM      3  N   UNL d   1     -40.251  14.050  21.346  0.00  0.00    -0.212 N 
ATOM      4  N   UNL d   1     -40.604  13.432  21.771  0.00  0.00    -0.163 NA
ATOM      5  C   UNL d   1     -41.386  13.350  21.505  0.00  0.00     0.114 A 
ATOM      6  S   UNL d   1     -42.648  13.209  21.084  0.00  0.00     0.091 S 
ATOM      7  C   UNL d   1     -42.083  12.911  21.611  0.00  0.00     0.090 A 
ATOM      8  C   UNL d   1     -42.297  13.828  20.656  0.00  0.00     0.073 A 
ATOM      9  O   UNL d   1     -43.427  12.938  20.997  0.00  0.00    -0.247 OA
ENDROOT
BRANCH   1  10
ATOM     10  N   UNL d   1     -40.705  14.970  20.282  0.00  0.00    -0.189 NA
ATOM     11  C   UNL d   1     -40.769  14.841  19.475  0.00  0.00     0.281 C 
ATOM     12  O   UNL d   1     -40.948  14.077  19.185  0.00  0.00    -0.265 OA
BRANCH  11  13
ATOM     13  C   UNL d   1     -40.659  15.459  18.939  0.00  0.00     0.063 C 
BRANCH  13  14
ATOM     14  C   UNL d   1     -40.240  15.321  18.246  0.00  0.00     0.005 A 
ATOM     15  C   UNL d   1     -39.487  15.640  18.156  0.00  0.00     0.003 A 
ATOM     16  C   UNL d   1     -39.064  15.502  17.461  0.00  0.00     0.030 A 
ATOM     17  C   UNL d   1     -39.396  15.045  16.855  0.00  0.00     0.140 A 
ATOM     18  C   UNL d   1     -40.149  14.730  16.952  0.00  0.00     0.030 A 
ATOM     19  F   UNL d   1     -38.974  14.907  16.158  0.00  0.00    -0.204 F 
ATOM     20  C   UNL d   1     -40.573  14.866  17.646  0.00  0.00     0.003 A 
ENDBRANCH  13  14
ENDBRANCH  11  13
ENDBRANCH   1  10
BRANCH   3  21
ATOM     21  C   UNL d   1     -39.475  14.318  21.434  0.00  0.00     0.085 A 
ATOM     22  C   UNL d   1     -39.329  14.994  21.885  0.00  0.00     0.031 A 
ATOM     23  C   UNL d   1     -38.562  15.251  21.967  0.00  0.00     0.059 A 
ATOM     24 CL   UNL d   1     -38.406  15.922  22.412  0.00  0.00    -0.082 Cl
ATOM     25  C   UNL d   1     -37.940  14.847  21.608  0.00  0.00     0.011 A 
ATOM     26  C   UNL d   1     -38.085  14.179  21.163  0.00  0.00     0.002 A 
ATOM     27  C   UNL d   1     -38.861  13.910  21.074  0.00  0.00     0.019 A 
ENDBRANCH   3  21
TORSDOF 4
ENDMDL
MODEL 8
REMARK VINA RESULT:      -3.2      7.632      9.389
REMARK  4 active torsions:
REMARK  status: ('A' for Active; 'I' for Inactive)
REMARK    1  A    between atoms: N_7  and  C_1 
REMARK    2  A    between atoms: C_9  and  N_3 
REMARK       I    between atoms: C_11  and  N_7 
REMARK    3  A    between atoms: C_15  and  C_11 
REMARK    4  A    between atoms: C_17  and  C_15 
ROOT
ATOM      1  C   UNL d   1     -46.446  12.364  23.363  0.00  0.00     0.169 A 
ATOM      2  C   UNL d   1     -45.942  11.704  23.421  0.00  0.00     0.065 A 
ATOM      3  N   UNL d   1     -46.041  12.969  22.969  0.00  0.00    -0.212 N 
ATOM      4  N   UNL d   1     -45.286  12.684  22.782  0.00  0.00    -0.163 NA
ATOM      5  C   UNL d   1     -45.227  11.905  23.061  0.00  0.00     0.114 A 
ATOM      6  S   UNL d   1     -45.121  10.649  23.507  0.00  0.00     0.091 S 
ATOM      7  C   UNL d   1     -44.716  11.253  23.112  0.00  0.00     0.090 A 
ATOM      8  C   UNL d   1     -45.879  10.931  23.696  0.00  0.00     0.073 A 
ATOM      9  O   UNL d   1     -44.825   9.894  23.683  0.00  0.00    -0.247 OA
ENDROOT
BRANCH   1  10
ATOM     10  N   UNL d   1     -47.222  12.404  23.654  0.00  0.00    -0.189 NA
ATOM     11  C   UNL d   1     -47.811  11.930  23.336  0.00  0.00     0.281 C 
ATOM     12  O   UNL d   1     -47.632  11.400  22.714  0.00  0.00    -0.265 OA
BRANCH  11  13
ATOM     13  C   UNL d   1     -48.584  11.967  23.623  0.00  0.00     0.063 C 
BRANCH  13  14
ATOM     14  C   UNL d   1     -49.202  12.103  23.098  0.00  0.00     0.005 A 
ATOM     15  C   UNL d   1     -49.244  11.669  22.400  0.00  0.00     0.003 A 
ATOM     16  C   UNL d   1     -49.864  11.803  21.872  0.00  0.00     0.030 A 
ATOM     17  C   UNL d   1     -50.442  12.372  22.043  0.00  0.00     0.140 A 
ATOM     18  C   UNL d   1     -50.392  12.801  22.742  0.00  0.00     0.030 A 
ATOM     19  F   UNL d   1     -51.062  12.507  21.515  0.00  0.00    -0.204 F 
ATOM     20  C   UNL d   1     -49.774  12.669  23.271  0.00  0.00     0.003 A 
ENDBRANCH  13  14
ENDBRANCH  11  13
ENDBRANCH   1  10
BRANCH   3  21
ATOM     21  C   UNL d   1     -46.334  13.721  22.792  0.00  0.00     0.085 A 
ATOM     22  C   UNL d   1     -46.875  13.810  22.175  0.00  0.00     0.031 A 
ATOM     23  C   UNL d   1     -47.159  14.553  22.008  0.00  0.00     0.059 A 
ATOM     24 CL   UNL d   1     -47.696  14.653  21.397  0.00  0.00    -0.082 Cl
ATOM     25  C   UNL d   1     -46.913  15.208  22.445  0.00  0.00     0.011 A 
ATOM     26  C   UNL d   1     -46.378  15.119  23.055  0.00  0.00     0.002 A 
ATOM     27  C   UNL d   1     -46.084  14.368  23.232  0.00  0.00     0.019 A 
ENDBRANCH   3  21
TORSDOF 4
ENDMDL
MODEL 9
REMARK VINA RESULT:      -3.0      2.364      3.834
REMARK  4 active torsions:
REMARK  status: ('A' for Active; 'I' for Inactive)
REMARK    1  A    between atoms: N_7  and  C_1 
REMARK    2  A    between atoms: C_9  and  N_3 
REMARK       I    between atoms: C_11  and  N_7 
REMARK    3  A    between atoms: C_15  and  C_11 
REMARK    4  A    between atoms: C_17  and  C_15 
ROOT
ATOM      1  C   UNL d   1     -39.884  14.554  19.960  0.00  0.00     0.169 A 
ATOM      2  C   UNL d   1     -40.470  14.960  19.529  0.00  0.00     0.065 A 
ATOM      3  N   UNL d   1     -40.019  14.679  20.767  0.00  0.00    -0.212 N 
ATOM      4  N   UNL d   1     -40.689  15.163  20.838  0.00  0.00    -0.163 NA
ATOM      5  C   UNL d   1     -40.965  15.335  20.075  0.00  0.00     0.114 A 
ATOM      6  S   UNL d   1     -41.419  15.617  18.848  0.00  0.00     0.091 S 
ATOM      7  C   UNL d   1     -41.554  15.743  19.655  0.00  0.00     0.090 A 
ATOM      8  C   UNL d   1     -40.748  15.132  18.774  0.00  0.00     0.073 A 
ATOM      9  O   UNL d   1     -41.871  15.920  18.223  0.00  0.00    -0.247 OA
ENDROOT
BRANCH   1  10
ATOM     10  N   UNL d   1     -39.272  14.102  19.631  0.00  0.00    -0.189 NA
ATOM     11  C   UNL d   1     -38.759  14.432  19.083  0.00  0.00     0.281 C 
ATOM     12  O   UNL d   1     -38.850  15.230  18.851  0.00  0.00    -0.265 OA
BRANCH  11  13
ATOM     13  C   UNL d   1     -38.148  13.984  18.754  0.00  0.00     0.063 C 
BRANCH  13  14
ATOM     14  C   UNL d   1     -38.136  13.855  17.942  0.00  0.00     0.005 A 
ATOM     15  C   UNL d   1     -38.303  13.105  17.648  0.00  0.00     0.003 A 
ATOM     16  C   UNL d   1     -38.291  12.973  16.833  0.00  0.00     0.030 A 
ATOM     17  C   UNL d   1     -38.112  13.593  16.313  0.00  0.00     0.140 A 
ATOM     18  C   UNL d   1     -37.946  14.339  16.615  0.00  0.00     0.030 A 
ATOM     19  F   UNL d   1     -38.100  13.462  15.498  0.00  0.00    -0.204 F 
ATOM     20  C   UNL d   1     -37.957  14.473  17.428  0.00  0.00     0.003 A 
ENDBRANCH  13  14
ENDBRANCH  11  13
ENDBRANCH   1  10
BRANCH   3  21
ATOM     21  C   UNL d   1     -39.570  14.379  21.392  0.00  0.00     0.085 A 
ATOM     22  C   UNL d   1     -38.973  14.844  21.722  0.00  0.00     0.031 A 
ATOM     23  C   UNL d   1     -38.535  14.540  22.336  0.00  0.00     0.059 A 
ATOM     24 CL   UNL d   1     -37.940  14.994  22.671  0.00  0.00    -0.082 Cl
ATOM     25  C   UNL d   1     -38.682  13.783  22.626  0.00  0.00     0.011 A 
ATOM     26  C   UNL d   1     -39.273  13.324  22.299  0.00  0.00     0.002 A 
ATOM     27  C   UNL d   1     -39.722  13.624  21.675  0.00  0.00     0.019 A 
ENDBRANCH   3  21
TORSDOF 4
ENDMDL
