MODEL 1
REMARK VINA RESULT:      47.9      0.000      0.000
REMARK  6 active torsions:
REMARK  status: ('A' for Active; 'I' for Inactive)
REMARK    1  A    between atoms: N_2  and  S_1 
REMARK    2  A    between atoms: C_4  and  S_1 
REMARK    3  A    between atoms: C_3  and  N_2 
REMARK    4  A    between atoms: N_7  and  C_3 
REMARK    5  A    between atoms: C_11  and  N_7 
REMARK    6  A    between atoms: C_15  and  C_14 
ROOT
ATOM      1  S   UNL d   1     -49.811  26.764  33.565  0.00  0.00     0.287 S 
ATOM      2  O   UNL d   1     -49.136  26.322  33.735  0.00  0.00    -0.198 OA
ATOM      3  O   UNL d   1     -50.490  27.208  33.394  0.00  0.00    -0.198 OA
ENDROOT
BRANCH   1   4
ATOM      4  N   UNL d   1     -49.368  27.463  33.624  0.00  0.00    -0.128 NA
BRANCH   4   5
ATOM      5  C   UNL d   1     -49.119  28.104  34.081  0.00  0.00     0.232 C 
ATOM      6  S   UNL d   1     -49.295  28.875  33.847  0.00  0.00    -0.036 SA
BRANCH   5   7
ATOM      7  N   UNL d   1     -48.693  27.969  34.773  0.00  0.00    -0.217 NA
BRANCH   7   8
ATOM      8  C   UNL d   1     -48.169  28.547  35.045  0.00  0.00     0.084 A 
ATOM      9  C   UNL d   1     -48.466  29.255  35.342  0.00  0.00     0.019 A 
ATOM     10  C   UNL d   1     -47.951  29.835  35.615  0.00  0.00     0.002 A 
ATOM     11  C   UNL d   1     -47.144  29.709  35.590  0.00  0.00     0.000 A 
ATOM     12  C   UNL d   1     -46.850  28.999  35.291  0.00  0.00     0.002 A 
ATOM     13  C   UNL d   1     -47.362  28.422  35.021  0.00  0.00     0.019 A 
ENDBRANCH   7   8
ENDBRANCH   5   7
ENDBRANCH   4   5
ENDBRANCH   1   4
BRANCH   1  14
ATOM     14  C   UNL d   1     -50.255  26.061  33.505  0.00  0.00     0.105 A 
ATOM     15  C   UNL d   1     -49.868  25.346  33.369  0.00  0.00     0.013 A 
ATOM     16  C   UNL d   1     -50.312  24.643  33.309  0.00  0.00     0.001 A 
ATOM     17  C   UNL d   1     -51.143  24.661  33.386  0.00  0.00     0.000 A 
ATOM     18  C   UNL d   1     -51.526  25.384  33.523  0.00  0.00     0.001 A 
ATOM     19  C   UNL d   1     -51.086  26.079  33.582  0.00  0.00     0.013 A 
BRANCH  17  20
ATOM     20  C   UNL d   1     -51.572  23.959  33.326  0.00  0.00     0.000 C 
ATOM     21  C   UNL d   1     -52.336  23.916  33.619  0.00  0.00     0.000 C 
ENDBRANCH  17  20
ENDBRANCH   1  14
TORSDOF 6
ENDMDL
