MODEL 1
REMARK VINA RESULT:      79.5      0.000      0.000
REMARK  4 active torsions:
REMARK  status: ('A' for Active; 'I' for Inactive)
REMARK    1  A    between atoms: C_3  and  N_1 
REMARK       I    between atoms: C_2  and  N_5 
REMARK       I    between atoms: N_4  and  C_2 
REMARK    2  A    between atoms: C_17  and  N_4 
REMARK    3  A    between atoms: N_5  and  C_16 
REMARK    4  A    between atoms: C_8  and  C_9 
ROOT
ATOM      1  C   UNL d   1      61.602  46.467  49.786  0.00  0.00     0.369 C 
ATOM      2  N   UNL d   1      61.348  47.247  49.586  0.00  0.00    -0.191 NA
ATOM      3  N   UNL d   1      61.789  45.937  49.211  0.00  0.00    -0.191 NA
ATOM      4  O   UNL d   1      61.648  46.280  50.581  0.00  0.00    -0.242 OA
ENDROOT
BRANCH   3   5
ATOM      5  C   UNL d   1      62.040  45.163  49.452  0.00  0.00     0.086 A 
ATOM      6  C   UNL d   1      61.490  44.615  49.735  0.00  0.00     0.021 A 
ATOM      7  C   UNL d   1      61.720  43.859  49.973  0.00  0.00     0.025 A 
ATOM      8  C   UNL d   1      62.517  43.679  49.915  0.00  0.00     0.127 A 
ATOM      9  C   UNL d   1      63.107  44.212  49.630  0.00  0.00     0.025 A 
ATOM     10  C   UNL d   1      62.831  44.956  49.404  0.00  0.00     0.021 A 
BRANCH   8  11
ATOM     11  N   UNL d   1      62.758  42.873  50.169  0.00  0.00    -0.114 N 
ATOM     12  O   UNL d   1      63.096  42.775  50.915  0.00  0.00    -0.532 OA
ATOM     13  O   UNL d   1      62.647  42.226  49.663  0.00  0.00    -0.532 OA
ENDBRANCH   8  11
ENDBRANCH   3   5
BRANCH   2  14
ATOM     14  C   UNL d   1      61.153  47.800  50.164  0.00  0.00     0.086 A 
ATOM     15  C   UNL d   1      61.350  48.595  50.056  0.00  0.00     0.019 A 
ATOM     16  C   UNL d   1      61.159  49.139  50.623  0.00  0.00     0.005 A 
ATOM     17  C   UNL d   1      60.758  48.917  51.334  0.00  0.00     0.039 A 
ATOM     18  C   UNL d   1      60.570  48.125  51.426  0.00  0.00     0.005 A 
ATOM     19  C   UNL d   1      60.766  47.569  50.844  0.00  0.00     0.019 A 
BRANCH  17  20
ATOM     20  C   UNL d   1      60.559  49.438  51.909  0.00  0.00     0.196 C 
ATOM     21  O   UNL d   1      61.113  49.705  52.427  0.00  0.00    -0.287 OA
ATOM     22  C   UNL d   1      59.789  49.707  51.983  0.00  0.00     0.045 C 
ENDBRANCH  17  20
ENDBRANCH   2  14
TORSDOF 4
ENDMDL
MODEL 2
REMARK VINA RESULT:      80.4      1.171      5.266
REMARK  4 active torsions:
REMARK  status: ('A' for Active; 'I' for Inactive)
REMARK    1  A    between atoms: C_3  and  N_1 
REMARK       I    between atoms: C_2  and  N_5 
REMARK       I    between atoms: N_4  and  C_2 
REMARK    2  A    between atoms: C_17  and  N_4 
REMARK    3  A    between atoms: N_5  and  C_16 
REMARK    4  A    between atoms: C_8  and  C_9 
ROOT
ATOM      1  C   UNL d   1      61.769  46.977  49.727  0.00  0.00     0.369 C 
ATOM      2  N   UNL d   1      62.196  46.516  49.162  0.00  0.00    -0.191 NA
ATOM      3  N   UNL d   1      61.781  47.781  49.693  0.00  0.00    -0.191 NA
ATOM      4  O   UNL d   1      61.349  46.572  50.301  0.00  0.00    -0.242 OA
ENDROOT
BRANCH   3   5
ATOM      5  C   UNL d   1      61.339  48.208  50.278  0.00  0.00     0.086 A 
ATOM      6  C   UNL d   1      61.249  49.028  50.216  0.00  0.00     0.021 A 
ATOM      7  C   UNL d   1      60.822  49.457  50.777  0.00  0.00     0.025 A 
ATOM      8  C   UNL d   1      60.494  49.033  51.396  0.00  0.00     0.127 A 
ATOM      9  C   UNL d   1      60.565  48.196  51.492  0.00  0.00     0.025 A 
ATOM     10  C   UNL d   1      61.000  47.809  50.907  0.00  0.00     0.021 A 
BRANCH   8  11
ATOM     11  N   UNL d   1      60.040  49.492  51.992  0.00  0.00    -0.114 N 
ATOM     12  O   UNL d   1      59.263  49.708  51.822  0.00  0.00    -0.532 OA
ATOM     13  O   UNL d   1      60.392  49.702  52.713  0.00  0.00    -0.532 OA
ENDBRANCH   8  11
ENDBRANCH   3   5
BRANCH   2  14
ATOM     14  C   UNL d   1      62.193  45.693  49.184  0.00  0.00     0.086 A 
ATOM     15  C   UNL d   1      61.492  45.281  49.045  0.00  0.00     0.019 A 
ATOM     16  C   UNL d   1      61.487  44.472  49.066  0.00  0.00     0.005 A 
ATOM     17  C   UNL d   1      62.189  44.029  49.230  0.00  0.00     0.039 A 
ATOM     18  C   UNL d   1      62.876  44.453  49.367  0.00  0.00     0.005 A 
ATOM     19  C   UNL d   1      62.879  45.281  49.344  0.00  0.00     0.019 A 
BRANCH  17  20
ATOM     20  C   UNL d   1      62.210  43.228  49.257  0.00  0.00     0.196 C 
ATOM     21  O   UNL d   1      61.684  42.793  48.831  0.00  0.00    -0.287 OA
ATOM     22  C   UNL d   1      62.763  42.838  49.716  0.00  0.00     0.045 C 
ENDBRANCH  17  20
ENDBRANCH   2  14
TORSDOF 4
ENDMDL
