MODEL 1
REMARK VINA RESULT:     -10.3      0.000      0.000
REMARK  6 active torsions:
REMARK  status: ('A' for Active; 'I' for Inactive)
REMARK    1  A    between atoms: C_13  and  C_4 
REMARK    2  A    between atoms: C_20  and  C_7 
REMARK    3  A    between atoms: C_8  and  C_12 
REMARK       I    between atoms: N_9  and  C_8 
REMARK    4  A    between atoms: C_11  and  N_9 
REMARK       I    between atoms: C_12  and  N_19 
REMARK    5  A    between atoms: N_19  and  C_23 
REMARK    6  A    between atoms: C_23  and  C_20 
ROOT
ATOM      1  C   UNL d   1      50.545  34.059  52.831  0.00  0.00     0.041 C 
ENDROOT
BRANCH   1   2
ATOM      2  C   UNL d   1      51.366  34.082  52.908  0.00  0.00     0.093 A 
ATOM      3  N   UNL d   1      51.863  33.436  53.014  0.00  0.00    -0.205 N 
ATOM      4  C   UNL d   1      52.643  33.706  53.065  0.00  0.00     0.197 A 
ATOM      5  N   UNL d   1      51.878  32.606  53.089  0.00  0.00    -0.144 NA
ATOM      6  N   UNL d   1      53.136  33.051  53.171  0.00  0.00    -0.200 NA
ATOM      7  S   UNL d   1      52.627  34.527  52.990  0.00  0.00    -0.046 SA
ATOM      8  C   UNL d   1      52.667  32.373  53.186  0.00  0.00     0.184 A 
ATOM      9  C   UNL d   1      51.839  34.759  52.893  0.00  0.00     0.058 A 
BRANCH   8  10
ATOM     10  C   UNL d   1      52.938  31.601  53.281  0.00  0.00     0.038 A 
ATOM     11  C   UNL d   1      53.487  31.428  53.867  0.00  0.00     0.003 A 
ATOM     12  C   UNL d   1      53.765  32.024  54.357  0.00  0.00     0.000 C 
ATOM     13  C   UNL d   1      53.759  30.651  53.962  0.00  0.00     0.000 A 
ATOM     14  C   UNL d   1      53.473  30.054  53.462  0.00  0.00     0.000 A 
ATOM     15  C   UNL d   1      52.924  30.228  52.876  0.00  0.00     0.000 A 
ATOM     16  C   UNL d   1      52.653  31.005  52.781  0.00  0.00     0.003 A 
ENDBRANCH   8  10
ENDBRANCH   1   2
BRANCH   1  17
ATOM     17  C   UNL d   1      50.184  34.392  52.169  0.00  0.00     0.104 C 
BRANCH  17  18
ATOM     18  N   UNL d   1      49.398  34.611  52.199  0.00  0.00    -0.202 NA
ATOM     19  C   UNL d   1      48.978  34.739  51.503  0.00  0.00     0.337 C 
ATOM     20  O   UNL d   1      49.354  34.646  50.775  0.00  0.00    -0.260 OA
BRANCH  19  21
ATOM     21  C   UNL d   1      48.192  34.958  51.533  0.00  0.00     0.337 C 
ATOM     22  N   UNL d   1      47.967  35.693  51.847  0.00  0.00    -0.204 NA
ATOM     23  O   UNL d   1      47.599  34.440  51.244  0.00  0.00    -0.260 OA
BRANCH  22  24
ATOM     24  C   UNL d   1      47.173  35.914  51.878  0.00  0.00     0.085 A 
ATOM     25  C   UNL d   1      46.904  36.401  52.499  0.00  0.00     0.018 A 
ATOM     26  C   UNL d   1      46.126  36.632  52.550  0.00  0.00     0.002 A 
ATOM     27  C   UNL d   1      47.430  36.656  53.076  0.00  0.00     0.002 C 
ATOM     28  C   UNL d   1      45.578  36.377  51.966  0.00  0.00     0.000 A 
ATOM     29  C   UNL d   1      45.850  35.885  51.338  0.00  0.00     0.002 A 
ATOM     30  C   UNL d   1      46.652  35.659  51.304  0.00  0.00     0.019 A 
ATOM     31  C   UNL d   1      45.325  35.631  50.764  0.00  0.00     0.000 C 
ENDBRANCH  22  24
ENDBRANCH  19  21
ENDBRANCH  17  18
ENDBRANCH   1  17
TORSDOF 6
ENDMDL
MODEL 2
REMARK VINA RESULT:      -9.8      1.957      6.913
REMARK  6 active torsions:
REMARK  status: ('A' for Active; 'I' for Inactive)
REMARK    1  A    between atoms: C_13  and  C_4 
REMARK    2  A    between atoms: C_20  and  C_7 
REMARK    3  A    between atoms: C_8  and  C_12 
REMARK       I    between atoms: N_9  and  C_8 
REMARK    4  A    between atoms: C_11  and  N_9 
REMARK       I    between atoms: C_12  and  N_19 
REMARK    5  A    between atoms: N_19  and  C_23 
REMARK    6  A    between atoms: C_23  and  C_20 
ROOT
ATOM      1  C   UNL d   1      49.183  35.220  53.105  0.00  0.00     0.041 C 
ENDROOT
BRANCH   1   2
ATOM      2  C   UNL d   1      48.497  35.499  52.741  0.00  0.00     0.093 A 
ATOM      3  N   UNL d   1      47.789  35.683  53.113  0.00  0.00    -0.205 N 
ATOM      4  C   UNL d   1      47.249  35.942  52.544  0.00  0.00     0.197 A 
ATOM      5  N   UNL d   1      47.406  35.709  53.853  0.00  0.00    -0.144 NA
ATOM      6  N   UNL d   1      46.539  36.126  52.926  0.00  0.00    -0.200 NA
ATOM      7  S   UNL d   1      47.627  35.917  51.811  0.00  0.00    -0.046 SA
ATOM      8  C   UNL d   1      46.634  35.983  53.731  0.00  0.00     0.184 A 
ATOM      9  C   UNL d   1      48.399  35.643  51.934  0.00  0.00     0.058 A 
BRANCH   8  10
ATOM     10  C   UNL d   1      46.060  36.095  54.313  0.00  0.00     0.038 A 
ATOM     11  C   UNL d   1      45.338  35.709  54.255  0.00  0.00     0.003 A 
ATOM     12  C   UNL d   1      45.187  35.213  53.618  0.00  0.00     0.000 C 
ATOM     13  C   UNL d   1      44.761  35.821  54.839  0.00  0.00     0.000 A 
ATOM     14  C   UNL d   1      44.921  36.324  55.479  0.00  0.00     0.000 A 
ATOM     15  C   UNL d   1      45.644  36.709  55.537  0.00  0.00     0.000 A 
ATOM     16  C   UNL d   1      46.220  36.597  54.951  0.00  0.00     0.003 A 
ENDBRANCH   8  10
ENDBRANCH   1   2
BRANCH   1  17
ATOM     17  C   UNL d   1      49.739  34.795  52.669  0.00  0.00     0.104 C 
BRANCH  17  18
ATOM     18  N   UNL d   1      50.313  34.359  53.052  0.00  0.00    -0.202 NA
ATOM     19  C   UNL d   1      50.996  34.134  52.652  0.00  0.00     0.337 C 
ATOM     20  O   UNL d   1      51.099  34.350  51.864  0.00  0.00    -0.260 OA
BRANCH  19  21
ATOM     21  C   UNL d   1      51.571  33.698  53.036  0.00  0.00     0.337 C 
ATOM     22  N   UNL d   1      52.311  34.030  53.210  0.00  0.00    -0.204 NA
ATOM     23  O   UNL d   1      51.418  32.904  53.258  0.00  0.00    -0.260 OA
BRANCH  22  24
ATOM     24  C   UNL d   1      52.891  33.590  53.598  0.00  0.00     0.085 A 
ATOM     25  C   UNL d   1      53.347  33.946  54.198  0.00  0.00     0.018 A 
ATOM     26  C   UNL d   1      53.925  33.532  54.593  0.00  0.00     0.002 A 
ATOM     27  C   UNL d   1      53.217  34.732  54.399  0.00  0.00     0.002 C 
ATOM     28  C   UNL d   1      54.067  32.728  54.396  0.00  0.00     0.000 A 
ATOM     29  C   UNL d   1      53.606  32.368  53.790  0.00  0.00     0.002 A 
ATOM     30  C   UNL d   1      53.019  32.810  53.396  0.00  0.00     0.019 A 
ATOM     31  C   UNL d   1      53.737  31.585  53.590  0.00  0.00     0.000 C 
ENDBRANCH  22  24
ENDBRANCH  19  21
ENDBRANCH  17  18
ENDBRANCH   1  17
TORSDOF 6
ENDMDL
MODEL 3
REMARK VINA RESULT:      -9.3      1.639      2.348
REMARK  6 active torsions:
REMARK  status: ('A' for Active; 'I' for Inactive)
REMARK    1  A    between atoms: C_13  and  C_4 
REMARK    2  A    between atoms: C_20  and  C_7 
REMARK    3  A    between atoms: C_8  and  C_12 
REMARK       I    between atoms: N_9  and  C_8 
REMARK    4  A    between atoms: C_11  and  N_9 
REMARK       I    between atoms: C_12  and  N_19 
REMARK    5  A    between atoms: N_19  and  C_23 
REMARK    6  A    between atoms: C_23  and  C_20 
ROOT
ATOM      1  C   UNL d   1      49.902  34.519  53.302  0.00  0.00     0.041 C 
ENDROOT
BRANCH   1   2
ATOM      2  C   UNL d   1      50.570  34.349  52.848  0.00  0.00     0.093 A 
ATOM      3  N   UNL d   1      51.304  34.112  53.132  0.00  0.00    -0.205 N 
ATOM      4  C   UNL d   1      51.814  34.002  52.490  0.00  0.00     0.197 A 
ATOM      5  N   UNL d   1      51.732  33.941  53.826  0.00  0.00    -0.144 NA
ATOM      6  N   UNL d   1      52.549  33.764  52.783  0.00  0.00    -0.200 NA
ATOM      7  S   UNL d   1      51.390  34.172  51.803  0.00  0.00    -0.046 SA
ATOM      8  C   UNL d   1      52.501  33.726  53.605  0.00  0.00     0.184 A 
ATOM      9  C   UNL d   1      50.621  34.386  52.025  0.00  0.00     0.058 A 
BRANCH   8  10
ATOM     10  C   UNL d   1      53.112  33.512  54.115  0.00  0.00     0.038 A 
ATOM     11  C   UNL d   1      53.495  34.086  54.560  0.00  0.00     0.003 A 
ATOM     12  C   UNL d   1      53.269  34.872  54.497  0.00  0.00     0.000 C 
ATOM     13  C   UNL d   1      54.109  33.870  55.073  0.00  0.00     0.000 A 
ATOM     14  C   UNL d   1      54.331  33.073  55.130  0.00  0.00     0.000 A 
ATOM     15  C   UNL d   1      53.948  32.499  54.685  0.00  0.00     0.000 A 
ATOM     16  C   UNL d   1      53.333  32.716  54.172  0.00  0.00     0.003 A 
ENDBRANCH   8  10
ENDBRANCH   1   2
BRANCH   1  17
ATOM     17  C   UNL d   1      49.457  35.194  53.146  0.00  0.00     0.104 C 
BRANCH  17  18
ATOM     18  N   UNL d   1      48.665  35.217  53.342  0.00  0.00    -0.202 NA
ATOM     19  C   UNL d   1      48.298  35.938  53.493  0.00  0.00     0.337 C 
ATOM     20  O   UNL d   1      48.732  36.637  53.444  0.00  0.00    -0.260 OA
BRANCH  19  21
ATOM     21  C   UNL d   1      47.506  35.961  53.690  0.00  0.00     0.337 C 
ATOM     22  N   UNL d   1      46.928  36.115  53.114  0.00  0.00    -0.204 NA
ATOM     23  O   UNL d   1      47.265  35.829  54.482  0.00  0.00    -0.260 OA
BRANCH  22  24
ATOM     24  C   UNL d   1      46.128  36.138  53.313  0.00  0.00     0.085 A 
ATOM     25  C   UNL d   1      45.559  35.878  52.762  0.00  0.00     0.018 A 
ATOM     26  C   UNL d   1      44.764  35.892  52.935  0.00  0.00     0.002 A 
ATOM     27  C   UNL d   1      45.798  35.602  52.026  0.00  0.00     0.002 C 
ATOM     28  C   UNL d   1      44.508  36.172  53.684  0.00  0.00     0.000 A 
ATOM     29  C   UNL d   1      45.083  36.435  54.242  0.00  0.00     0.002 A 
ATOM     30  C   UNL d   1      45.893  36.413  54.044  0.00  0.00     0.019 A 
ATOM     31  C   UNL d   1      44.845  36.709  54.974  0.00  0.00     0.000 C 
ENDBRANCH  22  24
ENDBRANCH  19  21
ENDBRANCH  17  18
ENDBRANCH   1  17
TORSDOF 6
ENDMDL
MODEL 4
REMARK VINA RESULT:      -8.9      1.263      1.960
REMARK  6 active torsions:
REMARK  status: ('A' for Active; 'I' for Inactive)
REMARK    1  A    between atoms: C_13  and  C_4 
REMARK    2  A    between atoms: C_20  and  C_7 
REMARK    3  A    between atoms: C_8  and  C_12 
REMARK       I    between atoms: N_9  and  C_8 
REMARK    4  A    between atoms: C_11  and  N_9 
REMARK       I    between atoms: C_12  and  N_19 
REMARK    5  A    between atoms: N_19  and  C_23 
REMARK    6  A    between atoms: C_23  and  C_20 
ROOT
ATOM      1  C   UNL d   1      50.936  33.619  53.187  0.00  0.00     0.041 C 
ENDROOT
BRANCH   1   2
ATOM      2  C   UNL d   1      51.500  33.018  53.154  0.00  0.00     0.093 A 
ATOM      3  N   UNL d   1      52.241  33.026  53.509  0.00  0.00    -0.205 N 
ATOM      4  C   UNL d   1      52.626  32.315  53.337  0.00  0.00     0.197 A 
ATOM      5  N   UNL d   1      52.755  33.482  53.980  0.00  0.00    -0.144 NA
ATOM      6  N   UNL d   1      53.370  32.331  53.697  0.00  0.00    -0.200 NA
ATOM      7  S   UNL d   1      52.118  31.863  52.870  0.00  0.00    -0.046 SA
ATOM      8  C   UNL d   1      53.451  33.048  54.094  0.00  0.00     0.184 A 
ATOM      9  C   UNL d   1      51.422  32.298  52.757  0.00  0.00     0.058 A 
BRANCH   8  10
ATOM     10  C   UNL d   1      54.110  33.289  54.526  0.00  0.00     0.038 A 
ATOM     11  C   UNL d   1      54.830  33.403  54.148  0.00  0.00     0.003 A 
ATOM     12  C   UNL d   1      54.892  33.276  53.339  0.00  0.00     0.000 C 
ATOM     13  C   UNL d   1      55.492  33.645  54.583  0.00  0.00     0.000 A 
ATOM     14  C   UNL d   1      55.419  33.770  55.400  0.00  0.00     0.000 A 
ATOM     15  C   UNL d   1      54.699  33.656  55.778  0.00  0.00     0.000 A 
ATOM     16  C   UNL d   1      54.037  33.414  55.342  0.00  0.00     0.003 A 
ENDBRANCH   8  10
ENDBRANCH   1   2
BRANCH   1  17
ATOM     17  C   UNL d   1      50.596  33.905  52.492  0.00  0.00     0.104 C 
BRANCH  17  18
ATOM     18  N   UNL d   1      49.850  34.233  52.508  0.00  0.00    -0.202 NA
ATOM     19  C   UNL d   1      49.523  34.550  51.821  0.00  0.00     0.337 C 
ATOM     20  O   UNL d   1      49.953  34.533  51.118  0.00  0.00    -0.260 OA
BRANCH  19  21
ATOM     21  C   UNL d   1      48.776  34.879  51.837  0.00  0.00     0.337 C 
ATOM     22  N   UNL d   1      48.588  35.481  52.375  0.00  0.00    -0.204 NA
ATOM     23  O   UNL d   1      48.186  34.610  51.305  0.00  0.00    -0.260 OA
BRANCH  22  24
ATOM     24  C   UNL d   1      47.833  35.814  52.391  0.00  0.00     0.085 A 
ATOM     25  C   UNL d   1      47.624  36.334  53.008  0.00  0.00     0.018 A 
ATOM     26  C   UNL d   1      46.886  36.674  53.045  0.00  0.00     0.002 A 
ATOM     27  C   UNL d   1      48.170  36.512  53.596  0.00  0.00     0.002 C 
ATOM     28  C   UNL d   1      46.319  36.499  52.450  0.00  0.00     0.000 A 
ATOM     29  C   UNL d   1      46.530  35.973  51.826  0.00  0.00     0.002 A 
ATOM     30  C   UNL d   1      47.292  35.635  51.807  0.00  0.00     0.019 A 
ATOM     31  C   UNL d   1      45.985  35.797  51.241  0.00  0.00     0.000 C 
ENDBRANCH  22  24
ENDBRANCH  19  21
ENDBRANCH  17  18
ENDBRANCH   1  17
TORSDOF 6
ENDMDL
MODEL 5
REMARK VINA RESULT:      -7.4     10.062     10.824
REMARK  6 active torsions:
REMARK  status: ('A' for Active; 'I' for Inactive)
REMARK    1  A    between atoms: C_13  and  C_4 
REMARK    2  A    between atoms: C_20  and  C_7 
REMARK    3  A    between atoms: C_8  and  C_12 
REMARK       I    between atoms: N_9  and  C_8 
REMARK    4  A    between atoms: C_11  and  N_9 
REMARK       I    between atoms: C_12  and  N_19 
REMARK    5  A    between atoms: N_19  and  C_23 
REMARK    6  A    between atoms: C_23  and  C_20 
ROOT
ATOM      1  C   UNL d   1      44.407  25.378  55.547  0.00  0.00     0.041 C 
ENDROOT
BRANCH   1   2
ATOM      2  C   UNL d   1      44.437  24.567  55.399  0.00  0.00     0.093 A 
ATOM      3  N   UNL d   1      44.547  24.209  54.667  0.00  0.00    -0.205 N 
ATOM      4  C   UNL d   1      44.540  23.389  54.769  0.00  0.00     0.197 A 
ATOM      5  N   UNL d   1      44.663  24.361  53.857  0.00  0.00    -0.144 NA
ATOM      6  N   UNL d   1      44.651  23.036  54.030  0.00  0.00    -0.200 NA
ATOM      7  S   UNL d   1      44.424  23.238  55.572  0.00  0.00    -0.046 SA
ATOM      8  C   UNL d   1      44.727  23.633  53.467  0.00  0.00     0.184 A 
ATOM      9  C   UNL d   1      44.361  23.966  55.961  0.00  0.00     0.058 A 
BRANCH   8  10
ATOM     10  C   UNL d   1      44.845  23.522  52.659  0.00  0.00     0.038 A 
ATOM     11  C   UNL d   1      45.486  23.082  52.395  0.00  0.00     0.003 A 
ATOM     12  C   UNL d   1      46.007  22.751  52.936  0.00  0.00     0.000 C 
ATOM     13  C   UNL d   1      45.605  22.971  51.582  0.00  0.00     0.000 A 
ATOM     14  C   UNL d   1      45.073  23.308  51.043  0.00  0.00     0.000 A 
ATOM     15  C   UNL d   1      44.432  23.749  51.307  0.00  0.00     0.000 A 
ATOM     16  C   UNL d   1      44.314  23.859  52.120  0.00  0.00     0.003 A 
ENDBRANCH   8  10
ENDBRANCH   1   2
BRANCH   1  17
ATOM     17  C   UNL d   1      44.837  25.699  56.173  0.00  0.00     0.104 C 
BRANCH  17  18
ATOM     18  N   UNL d   1      44.620  26.419  56.490  0.00  0.00    -0.202 NA
ATOM     19  C   UNL d   1      45.194  26.930  56.785  0.00  0.00     0.337 C 
ATOM     20  O   UNL d   1      45.989  26.713  56.758  0.00  0.00    -0.260 OA
BRANCH  19  21
ATOM     21  C   UNL d   1      44.978  27.651  57.102  0.00  0.00     0.337 C 
ATOM     22  N   UNL d   1      45.264  28.361  56.781  0.00  0.00    -0.204 NA
ATOM     23  O   UNL d   1      44.460  27.682  57.761  0.00  0.00    -0.260 OA
BRANCH  22  24
ATOM     24  C   UNL d   1      45.045  29.088  57.102  0.00  0.00     0.085 A 
ATOM     25  C   UNL d   1      44.746  29.686  56.602  0.00  0.00     0.018 A 
ATOM     26  C   UNL d   1      44.524  30.411  56.896  0.00  0.00     0.002 A 
ATOM     27  C   UNL d   1      44.672  29.546  55.796  0.00  0.00     0.002 C 
ATOM     28  C   UNL d   1      44.596  30.565  57.718  0.00  0.00     0.000 A 
ATOM     29  C   UNL d   1      44.898  29.962  58.223  0.00  0.00     0.002 A 
ATOM     30  C   UNL d   1      45.120  29.225  57.902  0.00  0.00     0.019 A 
ATOM     31  C   UNL d   1      44.972  30.102  59.025  0.00  0.00     0.000 C 
ENDBRANCH  22  24
ENDBRANCH  19  21
ENDBRANCH  17  18
ENDBRANCH   1  17
TORSDOF 6
ENDMDL
