MODEL 1
REMARK VINA RESULT:      38.0      0.000      0.000
REMARK  3 active torsions:
REMARK  status: ('A' for Active; 'I' for Inactive)
REMARK    1  A    between atoms: N_5  and  C_2 
REMARK    2  A    between atoms: C_9  and  C_3 
REMARK       I    between atoms: C_7  and  N_5 
REMARK    3  A    between atoms: C_8  and  C_7 
ROOT
ATOM      1  N   UNL d   1     -54.986-101.548 -40.727  0.00  0.00    -0.200 NA
ATOM      2  C   UNL d   1     -54.805-101.733 -41.502  0.00  0.00     0.216 A 
ATOM      3  C   UNL d   1     -55.027-102.268 -40.305  0.00  0.00     0.172 A 
ATOM      4  N   UNL d   1     -54.871-102.880 -40.833  0.00  0.00    -0.187 NA
ATOM      5  S   UNL d   1     -54.734-102.549 -41.572  0.00  0.00     0.054 SA
ENDROOT
BRANCH   2   6
ATOM      6  N   UNL d   1     -54.711-101.186 -42.110  0.00  0.00    -0.181 NA
ATOM      7  C   UNL d   1     -55.112-101.295 -42.826  0.00  0.00     0.281 C 
ATOM      8  O   UNL d   1     -55.601-101.946 -42.932  0.00  0.00    -0.265 OA
BRANCH   7   9
ATOM      9  C   UNL d   1     -55.018-100.750 -43.431  0.00  0.00     0.058 A 
ATOM     10  C   UNL d   1     -55.028 -99.946 -43.265  0.00  0.00     0.005 A 
ATOM     11  C   UNL d   1     -54.934 -99.395 -43.876  0.00  0.00     0.000 A 
ATOM     12  C   UNL d   1     -54.830 -99.653 -44.649  0.00  0.00     0.000 A 
ATOM     13  C   UNL d   1     -54.820-100.463 -44.820  0.00  0.00     0.000 A 
ATOM     14  C   UNL d   1     -54.737 -99.106 -45.256  0.00  0.00     0.000 C 
ATOM     15  C   UNL d   1     -54.914-101.014 -44.209  0.00  0.00     0.005 A 
ENDBRANCH   7   9
ENDBRANCH   2   6
BRANCH   3  16
ATOM     16  C   UNL d   1     -55.194-102.349 -39.508  0.00  0.00     0.036 A 
ATOM     17  C   UNL d   1     -55.846-102.802 -39.273  0.00  0.00     0.003 A 
ATOM     18  C   UNL d   1     -56.006-102.878 -38.466  0.00  0.00     0.000 A 
ATOM     19  C   UNL d   1     -55.523-102.507 -37.900  0.00  0.00     0.000 A 
ATOM     20  C   UNL d   1     -54.881-102.060 -38.145  0.00  0.00     0.000 A 
ATOM     21  C   UNL d   1     -54.713-101.979 -38.950  0.00  0.00     0.003 A 
ENDBRANCH   3  16
TORSDOF 3
ENDMDL
