MODEL 1
REMARK VINA RESULT:      35.9      0.000      0.000
REMARK  2 active torsions:
REMARK  status: ('A' for Active; 'I' for Inactive)
REMARK    1  A    between atoms: C_6  and  C_1 
REMARK    2  A    between atoms: C_10  and  C_6 
ROOT
ATOM      1  C   UNL d   1      59.870  49.392  50.625  0.00  0.00     0.139 A 
ATOM      2  C   UNL d   1      60.965  49.557  51.377  0.00  0.00     0.064 A 
ATOM      3  C   UNL d   1      60.689  49.493  50.601  0.00  0.00     0.220 A 
ATOM      4  C   UNL d   1      60.316  49.496  51.882  0.00  0.00     0.106 A 
ATOM      5  O   UNL d   1      59.644  49.395  51.415  0.00  0.00    -0.304 OA
ATOM      6  C   UNL d   1      60.411  49.540  52.695  0.00  0.00     0.067 A 
ATOM      7  C   UNL d   1      61.719  49.663  51.686  0.00  0.00     0.009 A 
ATOM      8  O   UNL d   1      61.149  49.523  49.912  0.00  0.00    -0.284 OA
ATOM      9  C   UNL d   1      61.163  49.645  53.007  0.00  0.00     0.198 A 
ATOM     10  C   UNL d   1      61.819  49.707  52.506  0.00  0.00     0.042 A 
ATOM     11  O   UNL d   1      61.264  49.690  53.835  0.00  0.00    -0.286 OA
ENDROOT
BRANCH   1  12
ATOM     12  C   UNL d   1      59.372  49.305  49.974  0.00  0.00     0.028 C 
BRANCH  12  13
ATOM     13  C   UNL d   1      58.551  49.406  50.068  0.00  0.00     0.002 A 
ATOM     14  C   UNL d   1      58.224  49.408  50.825  0.00  0.00     0.001 A 
ATOM     15  C   UNL d   1      57.413  49.508  50.923  0.00  0.00     0.007 A 
ATOM     16  C   UNL d   1      56.922  49.607  50.262  0.00  0.00     0.035 A 
ATOM     17  C   UNL d   1      57.250  49.606  49.502  0.00  0.00     0.007 A 
ATOM     18 BR   UNL d   1      56.113  49.708  50.348  0.00  0.00    -0.049 Br
ATOM     19  C   UNL d   1      58.068  49.505  49.407  0.00  0.00     0.001 A 
ENDBRANCH  12  13
ENDBRANCH   1  12
TORSDOF 2
ENDMDL
MODEL 2
REMARK VINA RESULT:      38.0      1.918      3.861
REMARK  2 active torsions:
REMARK  status: ('A' for Active; 'I' for Inactive)
REMARK    1  A    between atoms: C_6  and  C_1 
REMARK    2  A    between atoms: C_10  and  C_6 
ROOT
ATOM      1  C   UNL d   1      59.019  49.697  50.243  0.00  0.00     0.139 A 
ATOM      2  C   UNL d   1      57.681  49.690  50.241  0.00  0.00     0.064 A 
ATOM      3  C   UNL d   1      58.351  49.698  49.758  0.00  0.00     0.220 A 
ATOM      4  C   UNL d   1      57.933  49.684  51.025  0.00  0.00     0.106 A 
ATOM      5  O   UNL d   1      58.758  49.688  51.022  0.00  0.00    -0.304 OA
ATOM      6  C   UNL d   1      57.392  49.675  51.642  0.00  0.00     0.067 A 
ATOM      7  C   UNL d   1      56.877  49.687  50.067  0.00  0.00     0.009 A 
ATOM      8  O   UNL d   1      58.360  49.706  48.930  0.00  0.00    -0.284 OA
ATOM      9  C   UNL d   1      56.589  49.673  51.471  0.00  0.00     0.198 A 
ATOM     10  C   UNL d   1      56.328  49.679  50.685  0.00  0.00     0.042 A 
ATOM     11  O   UNL d   1      56.034  49.664  52.095  0.00  0.00    -0.286 OA
ENDROOT
BRANCH   1  12
ATOM     12  C   UNL d   1      59.803  49.703  49.991  0.00  0.00     0.028 C 
BRANCH  12  13
ATOM     13  C   UNL d   1      60.410  49.508  50.527  0.00  0.00     0.002 A 
ATOM     14  C   UNL d   1      61.131  49.230  50.242  0.00  0.00     0.001 A 
ATOM     15  C   UNL d   1      61.734  49.036  50.767  0.00  0.00     0.007 A 
ATOM     16  C   UNL d   1      61.619  49.120  51.584  0.00  0.00     0.035 A 
ATOM     17  C   UNL d   1      60.894  49.400  51.870  0.00  0.00     0.007 A 
ATOM     18 BR   UNL d   1      62.212  48.930  52.117  0.00  0.00    -0.049 Br
ATOM     19  C   UNL d   1      60.288  49.595  51.338  0.00  0.00     0.001 A 
ENDBRANCH  12  13
ENDBRANCH   1  12
TORSDOF 2
ENDMDL
