MODEL 1
REMARK VINA RESULT:      45.0      0.000      0.000
REMARK  4 active torsions:
REMARK  status: ('A' for Active; 'I' for Inactive)
REMARK    1  A    between atoms: N_2  and  S_1 
REMARK    2  A    between atoms: C_4  and  S_1 
REMARK    3  A    between atoms: O_16  and  C_13 
REMARK    4  A    between atoms: C_19  and  O_16 
ROOT
ATOM      1  S   UNL d   1     -54.809-101.479 -41.829  0.00  0.00     0.271 S 
ATOM      2  O   UNL d   1     -54.823-102.252 -42.118  0.00  0.00    -0.200 OA
ATOM      3  O   UNL d   1     -54.794-100.702 -41.535  0.00  0.00    -0.200 OA
ENDROOT
BRANCH   1   4
ATOM      4  N   UNL d   1     -54.785-101.772 -41.051  0.00  0.00    -0.229 N 
ATOM      5  C   UNL d   1     -54.811-101.252 -40.414  0.00  0.00     0.092 A 
ATOM      6  C   UNL d   1     -54.787-101.547 -39.644  0.00  0.00     0.018 A 
ATOM      7  C   UNL d   1     -54.813-101.026 -39.002  0.00  0.00     0.002 A 
ATOM      8  C   UNL d   1     -54.737-102.360 -39.514  0.00  0.00     0.003 A 
ATOM      9  C   UNL d   1     -54.789-101.321 -38.233  0.00  0.00     0.000 A 
ATOM     10  C   UNL d   1     -54.739-102.134 -38.103  0.00  0.00     0.000 A 
ATOM     11  C   UNL d   1     -54.713-102.654 -38.742  0.00  0.00     0.000 A 
ATOM     12  C   UNL d   1     -54.711-102.880 -40.153  0.00  0.00     0.020 A 
ATOM     13  C   UNL d   1     -54.735-102.585 -40.921  0.00  0.00     0.092 A 
ENDBRANCH   1   4
BRANCH   1  14
ATOM     14  C   UNL d   1     -54.832-101.192 -42.599  0.00  0.00     0.104 A 
ATOM     15  C   UNL d   1     -54.830-101.718 -43.237  0.00  0.00     0.015 A 
ATOM     16  C   UNL d   1     -54.853-101.431 -44.009  0.00  0.00     0.025 A 
ATOM     17  C   UNL d   1     -54.880-100.618 -44.146  0.00  0.00     0.100 A 
ATOM     18  C   UNL d   1     -54.882-100.093 -43.512  0.00  0.00     0.025 A 
ATOM     19  C   UNL d   1     -54.859-100.379 -42.737  0.00  0.00     0.015 A 
BRANCH  17  20
ATOM     20  O   UNL d   1     -54.903-100.332 -44.917  0.00  0.00    -0.305 OA
BRANCH  20  21
ATOM     21  C   UNL d   1     -55.106 -99.545 -45.059  0.00  0.00     0.123 C 
ATOM     22  C   UNL d   1     -54.837 -99.165 -45.739  0.00  0.00     0.029 C 
ENDBRANCH  20  21
ENDBRANCH  17  20
ENDBRANCH   1  14
TORSDOF 4
ENDMDL
