MODEL 1
REMARK VINA RESULT:      -8.0      0.000      0.000
REMARK  8 active torsions:
REMARK  status: ('A' for Active; 'I' for Inactive)
REMARK    1  A    between atoms: N_2  and  S_1 
REMARK    2  A    between atoms: C_3  and  S_1 
REMARK    3  A    between atoms: C_4  and  C_7 
REMARK    4  A    between atoms: O_17  and  C_4 
REMARK    5  A    between atoms: C_23  and  O_17 
REMARK    6  A    between atoms: C_18  and  C_24 
REMARK    7  A    between atoms: C_27  and  C_23 
REMARK    8  A    between atoms: C_24  and  C_27 
ROOT
ATOM      1  C   UNL d   1      51.999  33.803  53.250  0.00  0.00     0.104 A 
ATOM      2  C   UNL d   1      50.591  34.205  52.506  0.00  0.00     0.064 A 
ATOM      3  C   UNL d   1      51.999  34.252  52.569  0.00  0.00     0.013 A 
ATOM      4  C   UNL d   1      51.274  33.547  53.569  0.00  0.00     0.013 A 
ATOM      5  C   UNL d   1      51.312  34.461  52.187  0.00  0.00     0.006 A 
ATOM      6  C   UNL d   1      50.575  33.749  53.196  0.00  0.00     0.006 A 
ENDROOT
BRANCH   2   7
ATOM      7  C   UNL d   1      49.892  34.416  52.119  0.00  0.00     0.300 C 
ATOM      8  O   UNL d   1      49.789  34.126  51.339  0.00  0.00    -0.259 OA
BRANCH   7   9
ATOM      9  O   UNL d   1      49.329  34.872  52.452  0.00  0.00    -0.271 OA
BRANCH   9  10
ATOM     10  C   UNL d   1      48.664  35.126  52.036  0.00  0.00     0.126 C 
BRANCH  10  11
ATOM     11  C   UNL d   1      48.048  35.553  52.391  0.00  0.00     0.027 C 
BRANCH  11  12
ATOM     12  C   UNL d   1      47.485  35.928  51.946  0.00  0.00     0.002 C 
BRANCH  12  13
ATOM     13  C   UNL d   1      46.734  36.101  52.269  0.00  0.00     0.003 A 
ATOM     14  C   UNL d   1      46.064  35.830  51.890  0.00  0.00     0.021 A 
ATOM     15  C   UNL d   1      45.324  35.995  52.199  0.00  0.00     0.099 A 
ATOM     16  N   UNL d   1      45.252  36.440  52.900  0.00  0.00    -0.242 NA
ATOM     17  C   UNL d   1      45.924  36.709  53.276  0.00  0.00     0.099 A 
ATOM     18  C   UNL d   1      46.659  36.530  52.945  0.00  0.00     0.021 A 
ENDBRANCH  12  13
ENDBRANCH  11  12
ENDBRANCH  10  11
ENDBRANCH   9  10
ENDBRANCH   7   9
ENDBRANCH   2   7
BRANCH   1  19
ATOM     19  S   UNL d   1      52.713  33.600  53.627  0.00  0.00     0.272 S 
ATOM     20  O   UNL d   1      52.755  34.360  53.973  0.00  0.00    -0.200 OA
ATOM     21  O   UNL d   1      52.696  32.831  53.292  0.00  0.00    -0.200 OA
BRANCH  19  22
ATOM     22  N   UNL d   1      53.429  33.387  54.000  0.00  0.00    -0.225 N 
ATOM     23  C   UNL d   1      53.942  32.848  53.662  0.00  0.00     0.118 A 
ATOM     24  C   UNL d   1      54.649  32.653  54.054  0.00  0.00     0.142 A 
ATOM     25  O   UNL d   1      54.836  32.995  54.775  0.00  0.00    -0.300 OA
ATOM     26  C   UNL d   1      54.313  33.539  55.112  0.00  0.00     0.142 A 
ATOM     27  C   UNL d   1      53.621  33.743  54.748  0.00  0.00     0.118 A 
ENDBRANCH  19  22
ENDBRANCH   1  19
TORSDOF 8
ENDMDL
MODEL 2
REMARK VINA RESULT:      -6.9      2.114      6.533
REMARK  8 active torsions:
REMARK  status: ('A' for Active; 'I' for Inactive)
REMARK    1  A    between atoms: N_2  and  S_1 
REMARK    2  A    between atoms: C_3  and  S_1 
REMARK    3  A    between atoms: C_4  and  C_7 
REMARK    4  A    between atoms: O_17  and  C_4 
REMARK    5  A    between atoms: C_23  and  O_17 
REMARK    6  A    between atoms: C_18  and  C_24 
REMARK    7  A    between atoms: C_27  and  C_23 
REMARK    8  A    between atoms: C_24  and  C_27 
ROOT
ATOM      1  C   UNL d   1      49.468  34.956  52.599  0.00  0.00     0.104 A 
ATOM      2  C   UNL d   1      50.930  34.215  52.704  0.00  0.00     0.064 A 
ATOM      3  C   UNL d   1      49.875  34.930  53.307  0.00  0.00     0.013 A 
ATOM      4  C   UNL d   1      49.802  34.601  51.924  0.00  0.00     0.013 A 
ATOM      5  C   UNL d   1      50.600  34.567  53.377  0.00  0.00     0.006 A 
ATOM      6  C   UNL d   1      50.530  34.233  51.980  0.00  0.00     0.006 A 
ENDROOT
BRANCH   2   7
ATOM      7  C   UNL d   1      51.667  33.847  52.774  0.00  0.00     0.300 C 
ATOM      8  O   UNL d   1      52.323  34.341  52.945  0.00  0.00    -0.259 OA
BRANCH   7   9
ATOM      9  O   UNL d   1      51.772  33.061  52.686  0.00  0.00    -0.271 OA
BRANCH   9  10
ATOM     10  C   UNL d   1      52.464  32.680  52.925  0.00  0.00     0.126 C 
BRANCH  10  11
ATOM     11  C   UNL d   1      52.556  31.856  52.892  0.00  0.00     0.027 C 
BRANCH  11  12
ATOM     12  C   UNL d   1      53.192  31.491  53.234  0.00  0.00     0.002 C 
BRANCH  12  13
ATOM     13  C   UNL d   1      53.150  30.687  53.460  0.00  0.00     0.003 A 
ATOM     14  C   UNL d   1      52.814  30.146  52.950  0.00  0.00     0.021 A 
ATOM     15  C   UNL d   1      52.768  29.356  53.163  0.00  0.00     0.099 A 
ATOM     16  N   UNL d   1      53.064  29.103  53.899  0.00  0.00    -0.242 NA
ATOM     17  C   UNL d   1      53.400  29.647  54.406  0.00  0.00     0.099 A 
ATOM     18  C   UNL d   1      53.434  30.437  54.170  0.00  0.00     0.021 A 
ENDBRANCH  12  13
ENDBRANCH  11  12
ENDBRANCH  10  11
ENDBRANCH   9  10
ENDBRANCH   7   9
ENDBRANCH   2   7
BRANCH   1  19
ATOM     19  S   UNL d   1      48.727  35.332  52.548  0.00  0.00     0.272 S 
ATOM     20  O   UNL d   1      48.559  34.919  51.840  0.00  0.00    -0.200 OA
ATOM     21  O   UNL d   1      48.870  35.758  53.256  0.00  0.00    -0.200 OA
BRANCH  19  22
ATOM     22  N   UNL d   1      47.986  35.714  52.505  0.00  0.00    -0.225 N 
ATOM     23  C   UNL d   1      47.705  36.169  53.122  0.00  0.00     0.118 A 
ATOM     24  C   UNL d   1      46.963  36.539  53.054  0.00  0.00     0.142 A 
ATOM     25  O   UNL d   1      46.512  36.451  52.375  0.00  0.00    -0.300 OA
ATOM     26  C   UNL d   1      46.801  35.989  51.755  0.00  0.00     0.142 A 
ATOM     27  C   UNL d   1      47.519  35.621  51.800  0.00  0.00     0.118 A 
ENDBRANCH  19  22
ENDBRANCH   1  19
TORSDOF 8
ENDMDL
