MODEL 1
REMARK VINA RESULT:      45.6      0.000      0.000
REMARK  4 active torsions:
REMARK  status: ('A' for Active; 'I' for Inactive)
REMARK    1  A    between atoms: N_2  and  S_1 
REMARK    2  A    between atoms: C_3  and  S_1 
REMARK    3  A    between atoms: C_17  and  N_4 
REMARK    4  A    between atoms: C_16  and  C_17 
ROOT
ATOM      1  N   UNL d   1      15.618  14.363  -0.647  0.00  0.00    -0.226 N 
ATOM      2  N   UNL d   1      14.916  12.903  -0.914  0.00  0.00    -0.300 N 
ATOM      3  C   UNL d   1      15.270  13.954  -0.014  0.00  0.00     0.111 A 
ATOM      4  C   UNL d   1      15.613  14.042  -1.407  0.00  0.00     0.111 A 
ATOM      5  C   UNL d   1      15.259  13.307  -1.536  0.00  0.00     0.100 A 
ATOM      6  C   UNL d   1      14.915  13.213  -0.156  0.00  0.00     0.100 A 
ENDROOT
BRANCH   1   7
ATOM      7  S   UNL d   1      15.967  15.093  -0.508  0.00  0.00     0.272 S 
ATOM      8  O   UNL d   1      16.315  15.818  -0.369  0.00  0.00    -0.200 OA
ATOM      9  O   UNL d   1      16.563  14.727  -0.084  0.00  0.00    -0.200 OA
BRANCH   7  10
ATOM     10  C   UNL d   1      15.366  15.462  -0.935  0.00  0.00     0.106 A 
ATOM     11  C   UNL d   1      15.458  15.582  -1.755  0.00  0.00     0.043 A 
ATOM     12  C   UNL d   1      14.851  15.955  -2.187  0.00  0.00     0.141 A 
ATOM     13  F   UNL d   1      14.935  16.077  -2.997  0.00  0.00    -0.204 F 
ATOM     14  C   UNL d   1      14.158  16.205  -1.794  0.00  0.00     0.030 A 
ATOM     15  C   UNL d   1      14.079  16.083  -0.991  0.00  0.00     0.003 A 
ATOM     16  C   UNL d   1      14.686  15.710  -0.559  0.00  0.00     0.013 A 
ENDBRANCH   7  10
ENDBRANCH   1   7
BRANCH   2  17
ATOM     17  C   UNL d   1      14.565  12.169  -1.054  0.00  0.00     0.080 C 
BRANCH  17  18
ATOM     18  C   UNL d   1      14.079  12.064  -1.710  0.00  0.00     0.020 A 
ATOM     19  C   UNL d   1      14.397  12.138  -2.460  0.00  0.00     0.028 A 
ATOM     20  C   UNL d   1      13.918  12.034  -3.125  0.00  0.00     0.119 A 
ATOM     21  O   UNL d   1      14.075  12.073  -3.939  0.00  0.00    -0.300 OA
ATOM     22  C   UNL d   1      13.119  11.856  -3.023  0.00  0.00     0.119 A 
ATOM     23  C   UNL d   1      13.366  11.916  -4.340  0.00  0.00     0.304 A 
ATOM     24  O   UNL d   1      12.772  11.781  -3.772  0.00  0.00    -0.300 OA
ATOM     25  C   UNL d   1      12.798  11.781  -2.264  0.00  0.00     0.026 A 
ATOM     26  C   UNL d   1      13.280  11.885  -1.607  0.00  0.00     0.004 A 
ENDBRANCH  17  18
ENDBRANCH   2  17
TORSDOF 4
ENDMDL
MODEL 2
REMARK VINA RESULT:      46.1      1.957      3.699
REMARK  4 active torsions:
REMARK  status: ('A' for Active; 'I' for Inactive)
REMARK    1  A    between atoms: N_2  and  S_1 
REMARK    2  A    between atoms: C_3  and  S_1 
REMARK    3  A    between atoms: C_17  and  N_4 
REMARK    4  A    between atoms: C_16  and  C_17 
ROOT
ATOM      1  N   UNL d   1      15.153  13.366  -0.526  0.00  0.00    -0.226 N 
ATOM      2  N   UNL d   1      14.743  14.888  -0.988  0.00  0.00    -0.300 N 
ATOM      3  C   UNL d   1      14.599  13.795  -0.080  0.00  0.00     0.111 A 
ATOM      4  C   UNL d   1      15.497  13.699  -1.198  0.00  0.00     0.111 A 
ATOM      5  C   UNL d   1      15.288  14.464  -1.426  0.00  0.00     0.100 A 
ATOM      6  C   UNL d   1      14.395  14.567  -0.320  0.00  0.00     0.100 A 
ENDROOT
BRANCH   1   7
ATOM      7  S   UNL d   1      15.353  12.606  -0.291  0.00  0.00     0.272 S 
ATOM      8  O   UNL d   1      15.553  11.850  -0.056  0.00  0.00    -0.200 OA
ATOM      9  O   UNL d   1      16.079  12.878  -0.031  0.00  0.00    -0.200 OA
BRANCH   7  10
ATOM     10  C   UNL d   1      14.621  12.331  -0.552  0.00  0.00     0.106 A 
ATOM     11  C   UNL d   1      14.498  12.196  -1.366  0.00  0.00     0.043 A 
ATOM     12  C   UNL d   1      13.759  11.918  -1.630  0.00  0.00     0.141 A 
ATOM     13  F   UNL d   1      13.631  11.782  -2.433  0.00  0.00    -0.204 F 
ATOM     14  C   UNL d   1      13.148  11.779  -1.078  0.00  0.00     0.030 A 
ATOM     15  C   UNL d   1      13.279  11.915  -0.284  0.00  0.00     0.003 A 
ATOM     16  C   UNL d   1      14.019  12.192  -0.020  0.00  0.00     0.013 A 
ENDBRANCH   7  10
ENDBRANCH   1   7
BRANCH   2  17
ATOM     17  C   UNL d   1      14.541  15.652  -1.225  0.00  0.00     0.080 C 
BRANCH  17  18
ATOM     18  C   UNL d   1      14.550  15.852  -2.023  0.00  0.00     0.020 A 
ATOM     19  C   UNL d   1      15.159  16.316  -2.312  0.00  0.00     0.028 A 
ATOM     20  C   UNL d   1      15.178  16.522  -3.112  0.00  0.00     0.119 A 
ATOM     21  O   UNL d   1      15.710  16.975  -3.560  0.00  0.00    -0.300 OA
ATOM     22  C   UNL d   1      14.578  16.256  -3.612  0.00  0.00     0.119 A 
ATOM     23  C   UNL d   1      15.433  16.987  -4.342  0.00  0.00     0.304 A 
ATOM     24  O   UNL d   1      14.731  16.540  -4.375  0.00  0.00    -0.300 OA
ATOM     25  C   UNL d   1      13.963  15.786  -3.319  0.00  0.00     0.026 A 
ATOM     26  C   UNL d   1      13.951  15.585  -2.523  0.00  0.00     0.004 A 
ENDBRANCH  17  18
ENDBRANCH   2  17
TORSDOF 4
ENDMDL
MODEL 3
REMARK VINA RESULT:      47.7      2.301      3.577
REMARK  4 active torsions:
REMARK  status: ('A' for Active; 'I' for Inactive)
REMARK    1  A    between atoms: N_2  and  S_1 
REMARK    2  A    between atoms: C_3  and  S_1 
REMARK    3  A    between atoms: C_17  and  N_4 
REMARK    4  A    between atoms: C_16  and  C_17 
ROOT
ATOM      1  N   UNL d   1      13.643  12.331  -1.594  0.00  0.00    -0.226 N 
ATOM      2  N   UNL d   1      13.441  12.810  -3.151  0.00  0.00    -0.300 N 
ATOM      3  C   UNL d   1      13.413  13.112  -1.756  0.00  0.00     0.111 A 
ATOM      4  C   UNL d   1      13.769  11.795  -2.208  0.00  0.00     0.111 A 
ATOM      5  C   UNL d   1      13.667  12.041  -2.989  0.00  0.00     0.100 A 
ATOM      6  C   UNL d   1      13.312  13.349  -2.549  0.00  0.00     0.100 A 
ENDROOT
BRANCH   1   7
ATOM      7  S   UNL d   1      13.742  12.098  -0.813  0.00  0.00     0.272 S 
ATOM      8  O   UNL d   1      13.841  11.866  -0.037  0.00  0.00    -0.200 OA
ATOM      9  O   UNL d   1      12.987  11.785  -0.810  0.00  0.00    -0.200 OA
BRANCH   7  10
ATOM     10  C   UNL d   1      14.504  12.414  -0.815  0.00  0.00     0.106 A 
ATOM     11  C   UNL d   1      14.633  13.182  -0.519  0.00  0.00     0.043 A 
ATOM     12  C   UNL d   1      15.402  13.501  -0.522  0.00  0.00     0.141 A 
ATOM     13  F   UNL d   1      15.536  14.260  -0.231  0.00  0.00    -0.204 F 
ATOM     14  C   UNL d   1      16.036  13.048  -0.821  0.00  0.00     0.030 A 
ATOM     15  C   UNL d   1      15.899  12.296  -1.108  0.00  0.00     0.003 A 
ATOM     16  C   UNL d   1      15.130  11.978  -1.106  0.00  0.00     0.013 A 
ENDBRANCH   7  10
ENDBRANCH   1   7
BRANCH   2  17
ATOM     17  C   UNL d   1      13.341  13.044  -3.936  0.00  0.00     0.080 C 
BRANCH  17  18
ATOM     18  C   UNL d   1      13.497  13.821  -4.157  0.00  0.00     0.020 A 
ATOM     19  C   UNL d   1      13.790  14.345  -3.600  0.00  0.00     0.028 A 
ATOM     20  C   UNL d   1      13.949  15.128  -3.812  0.00  0.00     0.119 A 
ATOM     21  O   UNL d   1      14.242  15.773  -3.381  0.00  0.00    -0.300 OA
ATOM     22  C   UNL d   1      13.810  15.373  -4.587  0.00  0.00     0.119 A 
ATOM     23  C   UNL d   1      14.284  16.421  -3.898  0.00  0.00     0.304 A 
ATOM     24  O   UNL d   1      14.016  16.173  -4.646  0.00  0.00    -0.300 OA
ATOM     25  C   UNL d   1      13.514  14.843  -5.149  0.00  0.00     0.026 A 
ATOM     26  C   UNL d   1      13.358  14.066  -4.932  0.00  0.00     0.004 A 
ENDBRANCH  17  18
ENDBRANCH   2  17
TORSDOF 4
ENDMDL
MODEL 4
REMARK VINA RESULT:      48.2      2.095      4.685
REMARK  4 active torsions:
REMARK  status: ('A' for Active; 'I' for Inactive)
REMARK    1  A    between atoms: N_2  and  S_1 
REMARK    2  A    between atoms: C_3  and  S_1 
REMARK    3  A    between atoms: C_17  and  N_4 
REMARK    4  A    between atoms: C_16  and  C_17 
ROOT
ATOM      1  N   UNL d   1      13.396  13.284  -4.057  0.00  0.00    -0.226 N 
ATOM      2  N   UNL d   1      13.987  14.796  -3.805  0.00  0.00    -0.300 N 
ATOM      3  C   UNL d   1      12.925  13.849  -3.672  0.00  0.00     0.111 A 
ATOM      4  C   UNL d   1      14.156  13.477  -4.313  0.00  0.00     0.111 A 
ATOM      5  C   UNL d   1      14.448  14.237  -4.183  0.00  0.00     0.100 A 
ATOM      6  C   UNL d   1      13.231  14.615  -3.547  0.00  0.00     0.100 A 
ENDROOT
BRANCH   1   7
ATOM      7  S   UNL d   1      13.095  12.530  -4.180  0.00  0.00     0.272 S 
ATOM      8  O   UNL d   1      12.796  11.781  -4.302  0.00  0.00    -0.200 OA
ATOM      9  O   UNL d   1      12.771  12.776  -4.889  0.00  0.00    -0.200 OA
BRANCH   7  10
ATOM     10  C   UNL d   1      13.422  12.283  -3.464  0.00  0.00     0.106 A 
ATOM     11  C   UNL d   1      12.926  12.165  -2.804  0.00  0.00     0.043 A 
ATOM     12  C   UNL d   1      13.256  11.915  -2.081  0.00  0.00     0.141 A 
ATOM     13  F   UNL d   1      12.772  11.797  -1.425  0.00  0.00    -0.204 F 
ATOM     14  C   UNL d   1      14.078  11.786  -2.025  0.00  0.00     0.030 A 
ATOM     15  C   UNL d   1      14.555  11.904  -2.678  0.00  0.00     0.003 A 
ATOM     16  C   UNL d   1      14.224  12.154  -3.400  0.00  0.00     0.013 A 
ENDBRANCH   7  10
ENDBRANCH   1   7
BRANCH   2  17
ATOM     17  C   UNL d   1      14.289  15.553  -3.681  0.00  0.00     0.080 C 
BRANCH  17  18
ATOM     18  C   UNL d   1      14.530  15.783  -2.929  0.00  0.00     0.020 A 
ATOM     19  C   UNL d   1      14.550  15.228  -2.328  0.00  0.00     0.028 A 
ATOM     20  C   UNL d   1      14.791  15.447  -1.569  0.00  0.00     0.119 A 
ATOM     21  O   UNL d   1      14.867  15.021  -0.861  0.00  0.00    -0.300 OA
ATOM     22  C   UNL d   1      15.010  16.230  -1.426  0.00  0.00     0.119 A 
ATOM     23  C   UNL d   1      15.136  15.546  -0.279  0.00  0.00     0.304 A 
ATOM     24  O   UNL d   1      15.225  16.297  -0.628  0.00  0.00    -0.300 OA
ATOM     25  C   UNL d   1      14.990  16.790  -2.034  0.00  0.00     0.026 A 
ATOM     26  C   UNL d   1      14.750  16.565  -2.786  0.00  0.00     0.004 A 
ENDBRANCH  17  18
ENDBRANCH   2  17
TORSDOF 4
ENDMDL
