MODEL 1
REMARK VINA RESULT:      36.3      0.000      0.000
REMARK  2 active torsions:
REMARK  status: ('A' for Active; 'I' for Inactive)
REMARK    1  A    between atoms: N_7  and  C_3 
REMARK       I    between atoms: C_8  and  N_7 
REMARK    2  A    between atoms: C_9  and  C_8 
ROOT
ATOM      1  N   UNL d   1      58.971  49.543  51.252  0.00  0.00    -0.190 NA
ATOM      2  C   UNL d   1      59.667  49.606  50.814  0.00  0.00     0.281 C 
ATOM      3  O   UNL d   1      59.633  49.708  49.996  0.00  0.00    -0.265 OA
ENDROOT
BRANCH   1   4
ATOM      4  C   UNL d   1      58.238  49.582  50.871  0.00  0.00     0.159 A 
ATOM      5  N   UNL d   1      57.544  49.598  51.310  0.00  0.00    -0.241 N 
ATOM      6  C   UNL d   1      56.818  49.637  50.933  0.00  0.00     0.343 A 
ATOM      7  C   UNL d   1      57.579  49.575  52.135  0.00  0.00     0.105 C 
ATOM      8  N   UNL d   1      56.783  49.660  50.109  0.00  0.00    -0.224 N 
ATOM      9  O   UNL d   1      56.120  49.653  51.377  0.00  0.00    -0.245 OA
ATOM     10  C   UNL d   1      57.473  49.645  49.653  0.00  0.00     0.271 A 
ATOM     11  C   UNL d   1      56.050  49.699  49.728  0.00  0.00     0.107 C 
ATOM     12  C   UNL d   1      58.203  49.606  50.047  0.00  0.00     0.099 A 
ATOM     13  O   UNL d   1      57.438  49.668  48.837  0.00  0.00    -0.266 OA
ENDBRANCH   1   4
BRANCH   2  14
ATOM     14  C   UNL d   1      60.397  49.567  51.196  0.00  0.00     0.069 A 
ATOM     15  C   UNL d   1      61.059  49.453  50.759  0.00  0.00     0.062 A 
ATOM     16  C   UNL d   1      61.792  49.412  51.123  0.00  0.00     0.012 A 
ATOM     17 CL   UNL d   1      61.008  49.376  49.932  0.00  0.00    -0.082 Cl
ATOM     18  C   UNL d   1      61.847  49.488  51.942  0.00  0.00     0.008 A 
ATOM     19  C   UNL d   1      61.171  49.603  52.378  0.00  0.00     0.035 A 
ATOM     20  C   UNL d   1      60.433  49.645  52.016  0.00  0.00     0.012 A 
ATOM     21 BR   UNL d   1      61.234  49.680  53.212  0.00  0.00    -0.049 Br
ENDBRANCH   2  14
TORSDOF 2
ENDMDL
