MODEL 1
REMARK VINA RESULT:      33.3      0.000      0.000
REMARK  4 active torsions:
REMARK  status: ('A' for Active; 'I' for Inactive)
REMARK    1  A    between atoms: N_14  and  S_1 
REMARK    2  A    between atoms: C_5  and  C_17 
REMARK    3  A    between atoms: C_18  and  N_14 
REMARK    4  A    between atoms: C_17  and  C_18 
ROOT
ATOM      1  N   UNL d   1      58.795  49.701  51.720  0.00  0.00    -0.208 NA
ATOM      2  C   UNL d   1      59.601  49.693  51.524  0.00  0.00     0.279 A 
ATOM      3  C   UNL d   1      58.218  49.696  51.120  0.00  0.00     0.085 A 
ATOM      4  C   UNL d   1      59.833  49.680  50.731  0.00  0.00     0.059 A 
ATOM      5  C   UNL d   1      59.260  49.674  50.128  0.00  0.00     0.006 A 
ATOM      6  C   UNL d   1      58.457  49.683  50.329  0.00  0.00     0.018 A 
ATOM      7  C   UNL d   1      57.416  49.704  51.317  0.00  0.00     0.019 A 
ATOM      8  C   UNL d   1      57.880  49.677  49.729  0.00  0.00     0.002 A 
ATOM      9  C   UNL d   1      56.847  49.699  50.719  0.00  0.00     0.002 A 
ATOM     10  C   UNL d   1      57.079  49.685  49.926  0.00  0.00     0.000 A 
ATOM     11  O   UNL d   1      60.170  49.698  52.122  0.00  0.00    -0.265 OA
ATOM     12  C   UNL d   1      56.510  49.680  49.329  0.00  0.00     0.000 C 
ATOM     13  C   UNL d   1      56.046  49.707  50.916  0.00  0.00     0.000 C 
ENDROOT
BRANCH   4  14
ATOM     14  C   UNL d   1      60.634  49.672  50.534  0.00  0.00     0.026 C 
BRANCH  14  15
ATOM     15  C   UNL d   1      60.959  49.009  50.164  0.00  0.00     0.112 C 
BRANCH  15  16
ATOM     16  N   UNL d   1      61.348  48.439  50.613  0.00  0.00    -0.160 NA
BRANCH  16  17
ATOM     17  S   UNL d   1      61.613  47.735  50.255  0.00  0.00     0.266 S 
ATOM     18  O   UNL d   1      62.166  48.314  50.039  0.00  0.00    -0.203 OA
ATOM     19  O   UNL d   1      62.036  47.172  49.829  0.00  0.00    -0.203 OA
ATOM     20  C   UNL d   1      61.048  47.176  50.485  0.00  0.00     0.165 C 
ENDBRANCH  16  17
ENDBRANCH  15  16
ENDBRANCH  14  15
ENDBRANCH   4  14
TORSDOF 4
ENDMDL
