MODEL 1
REMARK VINA RESULT:      33.1      0.000      0.000
REMARK  11 active torsions:
REMARK  status: ('A' for Active; 'I' for Inactive)
REMARK    1  A    between atoms: C_8  and  C_1 
REMARK    2  A    between atoms: C_6  and  N_7 
REMARK    3  A    between atoms: N_19  and  C_6 
REMARK    4  A    between atoms: N_7  and  C_14 
REMARK    5  A    between atoms: C_11  and  N_7 
REMARK    6  A    between atoms: C_14  and  C_8 
REMARK    7  A    between atoms: C_9  and  C_11 
REMARK    8  A    between atoms: C_25  and  N_19 
REMARK    9  A    between atoms: O_23  and  C_20 
REMARK   10  A    between atoms: O_24  and  C_26 
REMARK   11  A    between atoms: C_26  and  C_25 
ROOT
ATOM      1  N   UNL d   1      46.191 -17.956  42.913  0.00  0.00    -0.279 N 
ENDROOT
BRANCH   1   2
ATOM      2  C   UNL d   1      46.212 -17.882  42.094  0.00  0.00     0.206 C 
ATOM      3  S   UNL d   1      46.638 -17.263  41.746  0.00  0.00    -0.038 SA
BRANCH   2   4
ATOM      4  N   UNL d   1      45.808 -18.425  41.617  0.00  0.00    -0.215 NA
BRANCH   4   5
ATOM      5  C   UNL d   1      46.079 -18.571  40.851  0.00  0.00     0.128 C 
BRANCH   5   6
ATOM      6  C   UNL d   1      45.954 -18.017  40.257  0.00  0.00     0.137 C 
BRANCH   6   7
ATOM      7  O   UNL d   1      45.462 -18.202  39.623  0.00  0.00    -0.325 OA
ATOM      8  C   UNL d   1      44.934 -17.645  39.341  0.00  0.00     0.182 C 
ENDBRANCH   6   7
ENDBRANCH   5   6
ENDBRANCH   4   5
ENDBRANCH   2   4
ENDBRANCH   1   2
BRANCH   1   9
ATOM      9  C   UNL d   1      45.716 -17.439  43.367  0.00  0.00     0.082 C 
BRANCH   9  10
ATOM     10  C   UNL d   1      45.980 -16.673  43.539  0.00  0.00     0.021 C 
BRANCH  10  11
ATOM     11  C   UNL d   1      45.534 -16.178  44.019  0.00  0.00     0.021 A 
ATOM     12  C   UNL d   1      44.989 -16.419  44.607  0.00  0.00     0.082 A 
ATOM     13  N   UNL d   1      44.671 -15.740  44.948  0.00  0.00    -0.246 NA
ATOM     14  C   UNL d   1      44.808 -17.202  44.803  0.00  0.00     0.021 C 
ATOM     15  C   UNL d   1      45.006 -15.079  44.584  0.00  0.00     0.082 A 
ATOM     16  C   UNL d   1      45.539 -15.355  44.011  0.00  0.00     0.021 A 
ATOM     17  C   UNL d   1      44.901 -14.271  44.696  0.00  0.00     0.021 A 
ATOM     18  C   UNL d   1      45.958 -14.813  43.558  0.00  0.00     0.026 A 
ATOM     19  C   UNL d   1      45.854 -14.000  43.669  0.00  0.00     0.094 A 
ATOM     20  C   UNL d   1      45.321 -13.737  44.242  0.00  0.00     0.026 A 
BRANCH  19  21
ATOM     21  O   UNL d   1      46.276 -13.458  43.212  0.00  0.00    -0.328 OA
ATOM     22  C   UNL d   1      45.893 -13.055  42.596  0.00  0.00     0.181 C 
ENDBRANCH  19  21
ENDBRANCH  10  11
ENDBRANCH   9  10
ENDBRANCH   1   9
BRANCH   1  23
ATOM     23  C   UNL d   1      46.638 -18.536  43.283  0.00  0.00     0.107 C 
BRANCH  23  24
ATOM     24  C   UNL d   1      46.269 -19.225  43.571  0.00  0.00     0.118 A 
ATOM     25  O   UNL d   1      45.570 -19.564  43.278  0.00  0.00    -0.304 OA
ATOM     26  C   UNL d   1      45.406 -20.238  43.727  0.00  0.00     0.123 A 
ATOM     27  C   UNL d   1      45.995 -20.313  44.288  0.00  0.00     0.029 A 
ATOM     28  C   UNL d   1      46.526 -19.681  44.185  0.00  0.00     0.028 A 
ENDBRANCH  23  24
ENDBRANCH   1  23
TORSDOF 11
ENDMDL
MODEL 2
REMARK VINA RESULT:      35.9      1.523      4.696
REMARK  11 active torsions:
REMARK  status: ('A' for Active; 'I' for Inactive)
REMARK    1  A    between atoms: C_8  and  C_1 
REMARK    2  A    between atoms: C_6  and  N_7 
REMARK    3  A    between atoms: N_19  and  C_6 
REMARK    4  A    between atoms: N_7  and  C_14 
REMARK    5  A    between atoms: C_11  and  N_7 
REMARK    6  A    between atoms: C_14  and  C_8 
REMARK    7  A    between atoms: C_9  and  C_11 
REMARK    8  A    between atoms: C_25  and  N_19 
REMARK    9  A    between atoms: O_23  and  C_20 
REMARK   10  A    between atoms: O_24  and  C_26 
REMARK   11  A    between atoms: C_26  and  C_25 
ROOT
ATOM      1  N   UNL d   1      45.437 -15.313  44.524  0.00  0.00    -0.279 N 
ENDROOT
BRANCH   1   2
ATOM      2  C   UNL d   1      45.686 -14.536  44.419  0.00  0.00     0.206 C 
ATOM      3  S   UNL d   1      46.226 -14.201  44.951  0.00  0.00    -0.038 SA
BRANCH   2   4
ATOM      4  N   UNL d   1      45.399 -14.089  43.786  0.00  0.00    -0.215 NA
BRANCH   4   5
ATOM      5  C   UNL d   1      45.841 -13.451  43.506  0.00  0.00     0.128 C 
BRANCH   5   6
ATOM      6  C   UNL d   1      45.465 -12.803  43.167  0.00  0.00     0.137 C 
BRANCH   6   7
ATOM      7  O   UNL d   1      45.646 -12.584  42.394  0.00  0.00    -0.325 OA
ATOM      8  C   UNL d   1      45.115 -12.137  41.963  0.00  0.00     0.182 C 
ENDBRANCH   6   7
ENDBRANCH   5   6
ENDBRANCH   4   5
ENDBRANCH   2   4
ENDBRANCH   1   2
BRANCH   1   9
ATOM      9  C   UNL d   1      45.930 -15.945  44.286  0.00  0.00     0.082 C 
BRANCH   9  10
ATOM     10  C   UNL d   1      45.704 -16.435  43.658  0.00  0.00     0.021 C 
BRANCH  10  11
ATOM     11  C   UNL d   1      46.023 -17.188  43.584  0.00  0.00     0.021 A 
ATOM     12  C   UNL d   1      46.420 -17.619  44.183  0.00  0.00     0.082 A 
ATOM     13  N   UNL d   1      46.645 -18.344  43.863  0.00  0.00    -0.246 NA
ATOM     14  C   UNL d   1      46.557 -17.354  44.954  0.00  0.00     0.021 C 
ATOM     15  C   UNL d   1      46.396 -18.376  43.077  0.00  0.00     0.082 A 
ATOM     16  C   UNL d   1      46.013 -17.659  42.909  0.00  0.00     0.021 A 
ATOM     17  C   UNL d   1      46.466 -18.954  42.496  0.00  0.00     0.021 A 
ATOM     18  C   UNL d   1      45.705 -17.535  42.157  0.00  0.00     0.026 A 
ATOM     19  C   UNL d   1      45.774 -18.115  41.572  0.00  0.00     0.094 A 
ATOM     20  C   UNL d   1      46.158 -18.825  41.750  0.00  0.00     0.026 A 
BRANCH  19  21
ATOM     21  O   UNL d   1      45.464 -17.987  40.818  0.00  0.00    -0.328 OA
ATOM     22  C   UNL d   1      45.630 -18.527  40.210  0.00  0.00     0.181 C 
ENDBRANCH  19  21
ENDBRANCH  10  11
ENDBRANCH   9  10
ENDBRANCH   1   9
BRANCH   1  23
ATOM     23  C   UNL d   1      44.705 -15.466  44.863  0.00  0.00     0.107 C 
BRANCH  23  24
ATOM     24  C   UNL d   1      44.123 -14.870  44.881  0.00  0.00     0.118 A 
ATOM     25  O   UNL d   1      43.305 -14.989  44.955  0.00  0.00    -0.304 OA
ATOM     26  C   UNL d   1      42.938 -14.248  44.947  0.00  0.00     0.123 A 
ATOM     27  C   UNL d   1      43.522 -13.683  44.870  0.00  0.00     0.029 A 
ATOM     28  C   UNL d   1      44.254 -14.075  44.829  0.00  0.00     0.028 A 
ENDBRANCH  23  24
ENDBRANCH   1  23
TORSDOF 11
ENDMDL
