MODEL 1
REMARK VINA RESULT:      11.9      0.000      0.000
REMARK  3 active torsions:
REMARK  status: ('A' for Active; 'I' for Inactive)
REMARK    1  A    between atoms: C_4  and  C_1 
REMARK    2  A    between atoms: N_7  and  C_4 
REMARK    3  A    between atoms: C_9  and  N_7 
ROOT
ATOM      1  C   UNL d   1      45.919 -16.893  44.480  0.00  0.00     0.171 C 
ATOM      2  S   UNL d   1      45.508 -17.445  44.955  0.00  0.00    -0.054 SA
ENDROOT
BRANCH   1   3
ATOM      3  C   UNL d   1      45.783 -16.088  44.572  0.00  0.00     0.191 A 
ATOM      4  N   UNL d   1      45.054 -15.736  44.756  0.00  0.00    -0.223 NA
ATOM      5  C   UNL d   1      45.172 -14.918  44.794  0.00  0.00     0.101 A 
ATOM      6  C   UNL d   1      44.650 -14.296  44.955  0.00  0.00     0.021 A 
ATOM      7  C   UNL d   1      45.969 -14.765  44.633  0.00  0.00     0.101 A 
ATOM      8  C   UNL d   1      44.936 -13.522  44.952  0.00  0.00     0.002 A 
ATOM      9  C   UNL d   1      45.733 -13.369  44.792  0.00  0.00     0.002 A 
ATOM     10  C   UNL d   1      46.247 -13.990  44.633  0.00  0.00     0.021 A 
ATOM     11  N   UNL d   1      46.339 -15.489  44.498  0.00  0.00    -0.223 NA
ENDBRANCH   1   3
BRANCH   1  12
ATOM     12  N   UNL d   1      46.461 -17.167  43.922  0.00  0.00    -0.232 NA
BRANCH  12  13
ATOM     13  C   UNL d   1      46.457 -17.958  43.685  0.00  0.00     0.082 A 
ATOM     14  C   UNL d   1      46.275 -18.151  42.900  0.00  0.00     0.019 A 
ATOM     15  C   UNL d   1      46.271 -18.940  42.664  0.00  0.00     0.002 A 
ATOM     16  C   UNL d   1      46.450 -19.542  43.210  0.00  0.00     0.000 A 
ATOM     17  C   UNL d   1      46.631 -19.339  43.992  0.00  0.00     0.002 A 
ATOM     18  C   UNL d   1      46.446 -20.330  42.974  0.00  0.00     0.000 C 
ATOM     19  C   UNL d   1      46.634 -18.550  44.225  0.00  0.00     0.019 A 
ENDBRANCH  12  13
ENDBRANCH   1  12
TORSDOF 3
ENDMDL
MODEL 2
REMARK VINA RESULT:      12.6      0.730      4.566
REMARK  3 active torsions:
REMARK  status: ('A' for Active; 'I' for Inactive)
REMARK    1  A    between atoms: C_4  and  C_1 
REMARK    2  A    between atoms: N_7  and  C_4 
REMARK    3  A    between atoms: C_9  and  N_7 
ROOT
ATOM      1  C   UNL d   1      45.890 -16.916  44.212  0.00  0.00     0.171 C 
ATOM      2  S   UNL d   1      46.249 -16.774  44.954  0.00  0.00    -0.054 SA
ENDROOT
BRANCH   1   3
ATOM      3  C   UNL d   1      46.053 -17.608  43.800  0.00  0.00     0.191 A 
ATOM      4  N   UNL d   1      46.194 -17.666  42.984  0.00  0.00    -0.223 NA
ATOM      5  C   UNL d   1      46.333 -18.462  42.808  0.00  0.00     0.101 A 
ATOM      6  C   UNL d   1      46.502 -18.845  42.094  0.00  0.00     0.021 A 
ATOM      7  C   UNL d   1      46.280 -18.894  43.512  0.00  0.00     0.101 A 
ATOM      8  C   UNL d   1      46.617 -19.662  42.094  0.00  0.00     0.002 A 
ATOM      9  C   UNL d   1      46.563 -20.094  42.798  0.00  0.00     0.002 A 
ATOM     10  C   UNL d   1      46.395 -19.709  43.504  0.00  0.00     0.021 A 
ATOM     11  N   UNL d   1      46.107 -18.362  44.118  0.00  0.00    -0.223 NA
ENDBRANCH   1   3
BRANCH   1  12
ATOM     12  N   UNL d   1      45.372 -16.354  43.901  0.00  0.00    -0.232 NA
BRANCH  12  13
ATOM     13  C   UNL d   1      45.393 -15.571  44.164  0.00  0.00     0.082 A 
ATOM     14  C   UNL d   1      46.005 -15.071  43.918  0.00  0.00     0.019 A 
ATOM     15  C   UNL d   1      46.026 -14.291  44.181  0.00  0.00     0.002 A 
ATOM     16  C   UNL d   1      45.434 -14.004  44.692  0.00  0.00     0.000 A 
ATOM     17  C   UNL d   1      44.826 -14.513  44.932  0.00  0.00     0.002 A 
ATOM     18  C   UNL d   1      45.454 -13.226  44.954  0.00  0.00     0.000 C 
ATOM     19  C   UNL d   1      44.809 -15.292  44.667  0.00  0.00     0.019 A 
ENDBRANCH  12  13
ENDBRANCH   1  12
TORSDOF 3
ENDMDL
