MODEL 1
REMARK VINA RESULT:      -8.6      0.000      0.000
REMARK  2 active torsions:
REMARK  status: ('A' for Active; 'I' for Inactive)
REMARK    1  A    between atoms: C_6  and  C_2 
REMARK    2  A    between atoms: C_7  and  C_6 
ROOT
ATOM      1  N   UNL d   1      53.688  32.271  53.390  0.00  0.00    -0.193 NA
ATOM      2  C   UNL d   1      52.749  33.211  53.499  0.00  0.00     0.153 A 
ATOM      3  N   UNL d   1      53.340  33.380  54.045  0.00  0.00    -0.306 N 
ATOM      4  C   UNL d   1      53.920  32.799  53.978  0.00  0.00     0.147 A 
ATOM      5  C   UNL d   1      52.958  32.525  53.089  0.00  0.00     0.276 A 
ATOM      6  C   UNL d   1      53.430  33.990  54.601  0.00  0.00     0.077 A 
ATOM      7  C   UNL d   1      54.597  32.821  54.466  0.00  0.00     0.037 A 
ATOM      8  O   UNL d   1      52.523  32.160  52.492  0.00  0.00    -0.268 OA
ATOM      9  C   UNL d   1      54.094  34.014  55.081  0.00  0.00     0.019 A 
ATOM     10  C   UNL d   1      54.681  33.427  55.014  0.00  0.00     0.005 A 
ATOM     11  C   UNL d   1      52.463  33.898  53.855  0.00  0.00     0.033 C 
ENDROOT
BRANCH   2  12
ATOM     12  C   UNL d   1      52.167  33.019  52.940  0.00  0.00     0.128 C 
BRANCH  12  13
ATOM     13  C   UNL d   1      51.496  33.494  52.873  0.00  0.00     0.188 C 
ATOM     14  O   UNL d   1      50.833  33.350  53.336  0.00  0.00    -0.647 OA
ATOM     15  O   UNL d   1      51.494  34.123  52.332  0.00  0.00    -0.647 OA
ENDBRANCH  12  13
ENDBRANCH   2  12
TORSDOF 2
ENDMDL
MODEL 2
REMARK VINA RESULT:      -8.5      1.496      2.617
REMARK  2 active torsions:
REMARK  status: ('A' for Active; 'I' for Inactive)
REMARK    1  A    between atoms: C_6  and  C_2 
REMARK    2  A    between atoms: C_7  and  C_6 
ROOT
ATOM      1  N   UNL d   1      52.775  32.356  52.867  0.00  0.00    -0.193 NA
ATOM      2  C   UNL d   1      53.365  33.091  53.809  0.00  0.00     0.153 A 
ATOM      3  N   UNL d   1      52.764  33.543  53.477  0.00  0.00    -0.306 N 
ATOM      4  C   UNL d   1      52.399  33.089  52.894  0.00  0.00     0.147 A 
ATOM      5  C   UNL d   1      53.378  32.355  53.436  0.00  0.00     0.276 A 
ATOM      6  C   UNL d   1      52.496  34.314  53.627  0.00  0.00     0.077 A 
ATOM      7  C   UNL d   1      51.762  33.399  52.454  0.00  0.00     0.037 A 
ATOM      8  O   UNL d   1      53.895  31.732  53.599  0.00  0.00    -0.268 OA
ATOM      9  C   UNL d   1      51.869  34.622  53.195  0.00  0.00     0.019 A 
ATOM     10  C   UNL d   1      51.500  34.163  52.606  0.00  0.00     0.005 A 
ATOM     11  C   UNL d   1      53.424  33.796  54.234  0.00  0.00     0.033 C 
ENDROOT
BRANCH   2  12
ATOM     12  C   UNL d   1      53.966  32.616  54.128  0.00  0.00     0.128 C 
BRANCH  12  13
ATOM     13  C   UNL d   1      54.411  32.896  54.763  0.00  0.00     0.188 C 
ATOM     14  O   UNL d   1      54.177  32.748  55.537  0.00  0.00    -0.647 OA
ATOM     15  O   UNL d   1      55.102  33.330  54.617  0.00  0.00    -0.647 OA
ENDBRANCH  12  13
ENDBRANCH   2  12
TORSDOF 2
ENDMDL
MODEL 3
REMARK VINA RESULT:      -8.4      0.946      1.840
REMARK  2 active torsions:
REMARK  status: ('A' for Active; 'I' for Inactive)
REMARK    1  A    between atoms: C_6  and  C_2 
REMARK    2  A    between atoms: C_7  and  C_6 
ROOT
ATOM      1  N   UNL d   1      52.810  33.587  53.361  0.00  0.00    -0.193 NA
ATOM      2  C   UNL d   1      53.118  32.296  53.480  0.00  0.00     0.153 A 
ATOM      3  N   UNL d   1      53.546  32.710  54.048  0.00  0.00    -0.306 N 
ATOM      4  C   UNL d   1      53.355  33.508  53.974  0.00  0.00     0.147 A 
ATOM      5  C   UNL d   1      52.661  32.833  53.051  0.00  0.00     0.276 A 
ATOM      6  C   UNL d   1      54.088  32.468  54.627  0.00  0.00     0.077 A 
ATOM      7  C   UNL d   1      53.704  34.074  54.479  0.00  0.00     0.037 A 
ATOM      8  O   UNL d   1      52.150  32.653  52.429  0.00  0.00    -0.268 OA
ATOM      9  C   UNL d   1      54.433  33.021  55.125  0.00  0.00     0.019 A 
ATOM     10  C   UNL d   1      54.240  33.828  55.051  0.00  0.00     0.005 A 
ATOM     11  C   UNL d   1      53.539  31.693  53.854  0.00  0.00     0.033 C 
ENDROOT
BRANCH   2  12
ATOM     12  C   UNL d   1      52.677  31.901  52.900  0.00  0.00     0.128 C 
BRANCH  12  13
ATOM     13  C   UNL d   1      52.702  31.077  52.861  0.00  0.00     0.188 C 
ATOM     14  O   UNL d   1      52.197  30.621  53.322  0.00  0.00    -0.647 OA
ATOM     15  O   UNL d   1      53.243  30.709  52.352  0.00  0.00    -0.647 OA
ENDBRANCH  12  13
ENDBRANCH   2  12
TORSDOF 2
ENDMDL
MODEL 4
REMARK VINA RESULT:      -8.3      1.785      3.078
REMARK  2 active torsions:
REMARK  status: ('A' for Active; 'I' for Inactive)
REMARK    1  A    between atoms: C_6  and  C_2 
REMARK    2  A    between atoms: C_7  and  C_6 
ROOT
ATOM      1  N   UNL d   1      52.725  35.001  54.178  0.00  0.00    -0.193 NA
ATOM      2  C   UNL d   1      53.340  33.823  54.284  0.00  0.00     0.153 A 
ATOM      3  N   UNL d   1      52.771  33.758  53.694  0.00  0.00    -0.306 N 
ATOM      4  C   UNL d   1      52.391  34.486  53.628  0.00  0.00     0.147 A 
ATOM      5  C   UNL d   1      53.317  34.590  54.588  0.00  0.00     0.276 A 
ATOM      6  C   UNL d   1      52.544  33.130  53.202  0.00  0.00     0.077 A 
ATOM      7  C   UNL d   1      51.779  34.595  53.071  0.00  0.00     0.037 A 
ATOM      8  O   UNL d   1      53.795  34.894  55.189  0.00  0.00    -0.268 OA
ATOM      9  C   UNL d   1      51.943  33.233  52.653  0.00  0.00     0.019 A 
ATOM     10  C   UNL d   1      51.559  33.969  52.586  0.00  0.00     0.005 A 
ATOM     11  C   UNL d   1      53.432  33.040  54.041  0.00  0.00     0.033 C 
ENDROOT
BRANCH   2  12
ATOM     12  C   UNL d   1      53.907  33.914  54.883  0.00  0.00     0.128 C 
BRANCH  12  13
ATOM     13  C   UNL d   1      54.429  33.296  55.044  0.00  0.00     0.188 C 
ATOM     14  O   UNL d   1      54.220  32.698  55.568  0.00  0.00    -0.647 OA
ATOM     15  O   UNL d   1      55.171  33.281  54.674  0.00  0.00    -0.647 OA
ENDBRANCH  12  13
ENDBRANCH   2  12
TORSDOF 2
ENDMDL
MODEL 5
REMARK VINA RESULT:      -8.2      1.855      2.981
REMARK  2 active torsions:
REMARK  status: ('A' for Active; 'I' for Inactive)
REMARK    1  A    between atoms: C_6  and  C_2 
REMARK    2  A    between atoms: C_7  and  C_6 
ROOT
ATOM      1  N   UNL d   1      52.647  33.705  53.802  0.00  0.00    -0.193 NA
ATOM      2  C   UNL d   1      53.756  33.218  54.359  0.00  0.00     0.153 A 
ATOM      3  N   UNL d   1      53.438  32.632  53.876  0.00  0.00    -0.306 N 
ATOM      4  C   UNL d   1      52.753  32.933  53.532  0.00  0.00     0.147 A 
ATOM      5  C   UNL d   1      53.271  33.884  54.318  0.00  0.00     0.276 A 
ATOM      6  C   UNL d   1      53.682  31.859  53.702  0.00  0.00     0.077 A 
ATOM      7  C   UNL d   1      52.303  32.464  53.009  0.00  0.00     0.037 A 
ATOM      8  O   UNL d   1      53.385  34.598  54.715  0.00  0.00    -0.268 OA
ATOM      9  C   UNL d   1      53.241  31.395  53.187  0.00  0.00     0.019 A 
ATOM     10  C   UNL d   1      52.548  31.699  52.839  0.00  0.00     0.005 A 
ATOM     11  C   UNL d   1      54.294  32.600  54.459  0.00  0.00     0.033 C 
ENDROOT
BRANCH   2  12
ATOM     12  C   UNL d   1      54.056  33.824  54.839  0.00  0.00     0.128 C 
BRANCH  12  13
ATOM     13  C   UNL d   1      54.747  33.695  55.271  0.00  0.00     0.188 C 
ATOM     14  O   UNL d   1      54.729  33.262  55.969  0.00  0.00    -0.647 OA
ATOM     15  O   UNL d   1      55.465  34.006  54.996  0.00  0.00    -0.647 OA
ENDBRANCH  12  13
ENDBRANCH   2  12
TORSDOF 2
ENDMDL
