MODEL 1
REMARK VINA RESULT:      -6.1      0.000      0.000
REMARK  6 active torsions:
REMARK  status: ('A' for Active; 'I' for Inactive)
REMARK    1  A    between atoms: C_9  and  C_2 
REMARK    2  A    between atoms: N_3  and  C_7 
REMARK       I    between atoms: C_8  and  N_14 
REMARK    3  A    between atoms: C_10  and  C_8 
REMARK    4  A    between atoms: C_13  and  C_10 
REMARK    5  A    between atoms: C_19  and  C_13 
REMARK    6  A    between atoms: N_14  and  C_20 
ROOT
ATOM      1  C   UNL d   1     -46.670  12.837  22.545  0.00  0.00     0.041 A 
ATOM      2  C   UNL d   1     -46.437  13.564  22.248  0.00  0.00     0.005 A 
ATOM      3  C   UNL d   1     -46.138  12.257  22.757  0.00  0.00     0.005 A 
ATOM      4  C   UNL d   1     -45.096  13.127  22.373  0.00  0.00     0.085 A 
ATOM      5  C   UNL d   1     -45.617  13.689  22.168  0.00  0.00     0.019 A 
ATOM      6  C   UNL d   1     -45.334  12.402  22.670  0.00  0.00     0.019 A 
ENDROOT
BRANCH   4   7
ATOM      7  N   UNL d   1     -44.296  13.297  22.276  0.00  0.00    -0.208 NA
ATOM      8  C   UNL d   1     -43.885  12.988  21.624  0.00  0.00     0.279 C 
ATOM      9  O   UNL d   1     -44.292  12.519  21.091  0.00  0.00    -0.265 OA
BRANCH   8  10
ATOM     10  C   UNL d   1     -43.083  13.156  21.523  0.00  0.00     0.062 C 
BRANCH  10  11
ATOM     11  C   UNL d   1     -42.768  13.296  20.782  0.00  0.00     0.005 C 
BRANCH  11  12
ATOM     12  C   UNL d   1     -42.009  13.652  20.682  0.00  0.00     0.002 A 
ATOM     13  C   UNL d   1     -41.744  13.853  19.926  0.00  0.00     0.024 A 
ATOM     14  C   UNL d   1     -40.982  14.209  19.833  0.00  0.00     0.127 A 
ATOM     15  C   UNL d   1     -40.518  14.349  20.505  0.00  0.00     0.024 A 
ATOM     16  C   UNL d   1     -40.802  14.140  21.251  0.00  0.00     0.002 A 
ATOM     17  C   UNL d   1     -41.547  13.791  21.348  0.00  0.00     0.000 A 
BRANCH  14  18
ATOM     18  N   UNL d   1     -40.704  14.415  19.090  0.00  0.00    -0.114 N 
ATOM     19  O   UNL d   1     -40.554  13.884  18.454  0.00  0.00    -0.532 OA
ATOM     20  O   UNL d   1     -40.530  15.192  18.867  0.00  0.00    -0.532 OA
ENDBRANCH  14  18
ENDBRANCH  11  12
ENDBRANCH  10  11
ENDBRANCH   8  10
ENDBRANCH   4   7
BRANCH   1  21
ATOM     21  C   UNL d   1     -47.485  12.703  22.629  0.00  0.00     0.182 A 
ATOM     22  N   UNL d   1     -47.990  12.605  23.281  0.00  0.00    -0.220 NA
ATOM     23  C   UNL d   1     -48.750  12.488  23.001  0.00  0.00     0.106 A 
ATOM     24  C   UNL d   1     -48.718  12.513  22.179  0.00  0.00     0.119 A 
ATOM     25  C   UNL d   1     -49.472  12.361  23.391  0.00  0.00     0.021 A 
ATOM     26  C   UNL d   1     -49.405  12.412  21.744  0.00  0.00     0.026 A 
ATOM     27  O   UNL d   1     -47.960  12.642  21.964  0.00  0.00    -0.288 OA
ATOM     28  C   UNL d   1     -50.121  12.287  22.106  0.00  0.00     0.002 A 
ATOM     29  C   UNL d   1     -50.168  12.259  22.943  0.00  0.00     0.002 A 
ENDBRANCH   1  21
TORSDOF 6
ENDMDL
MODEL 2
REMARK VINA RESULT:      -5.4      0.931      1.208
REMARK  6 active torsions:
REMARK  status: ('A' for Active; 'I' for Inactive)
REMARK    1  A    between atoms: C_9  and  C_2 
REMARK    2  A    between atoms: N_3  and  C_7 
REMARK       I    between atoms: C_8  and  N_14 
REMARK    3  A    between atoms: C_10  and  C_8 
REMARK    4  A    between atoms: C_13  and  C_10 
REMARK    5  A    between atoms: C_19  and  C_13 
REMARK    6  A    between atoms: N_14  and  C_20 
ROOT
ATOM      1  C   UNL d   1     -45.716  12.484  22.460  0.00  0.00     0.041 A 
ATOM      2  C   UNL d   1     -45.573  12.925  21.784  0.00  0.00     0.005 A 
ATOM      3  C   UNL d   1     -45.128  12.077  22.852  0.00  0.00     0.005 A 
ATOM      4  C   UNL d   1     -44.213  12.547  21.887  0.00  0.00     0.085 A 
ATOM      5  C   UNL d   1     -44.788  12.941  21.508  0.00  0.00     0.019 A 
ATOM      6  C   UNL d   1     -44.360  12.107  22.563  0.00  0.00     0.019 A 
ENDROOT
BRANCH   4   7
ATOM      7  N   UNL d   1     -43.451  12.593  21.577  0.00  0.00    -0.208 NA
ATOM      8  C   UNL d   1     -43.087  13.334  21.488  0.00  0.00     0.279 C 
ATOM      9  O   UNL d   1     -43.500  14.003  21.715  0.00  0.00    -0.265 OA
BRANCH   8  10
ATOM     10  C   UNL d   1     -42.324  13.385  21.177  0.00  0.00     0.062 C 
BRANCH  10  11
ATOM     11  C   UNL d   1     -41.953  14.106  21.077  0.00  0.00     0.005 C 
BRANCH  11  12
ATOM     12  C   UNL d   1     -41.225  14.176  20.656  0.00  0.00     0.002 A 
ATOM     13  C   UNL d   1     -41.230  14.259  19.834  0.00  0.00     0.024 A 
ATOM     14  C   UNL d   1     -40.496  14.328  19.418  0.00  0.00     0.127 A 
ATOM     15  C   UNL d   1     -39.787  14.312  19.846  0.00  0.00     0.024 A 
ATOM     16  C   UNL d   1     -39.805  14.228  20.667  0.00  0.00     0.002 A 
ATOM     17  C   UNL d   1     -40.520  14.160  21.080  0.00  0.00     0.000 A 
BRANCH  14  18
ATOM     18  N   UNL d   1     -40.483  14.411  18.603  0.00  0.00    -0.114 N 
ATOM     19  O   UNL d   1     -40.422  15.137  18.181  0.00  0.00    -0.532 OA
ATOM     20  O   UNL d   1     -40.530  13.773  18.079  0.00  0.00    -0.532 OA
ENDBRANCH  14  18
ENDBRANCH  11  12
ENDBRANCH  10  11
ENDBRANCH   8  10
ENDBRANCH   4   7
BRANCH   1  21
ATOM     21  C   UNL d   1     -46.496  12.461  22.743  0.00  0.00     0.182 A 
ATOM     22  N   UNL d   1     -46.935  11.909  23.181  0.00  0.00    -0.220 NA
ATOM     23  C   UNL d   1     -47.689  12.208  23.289  0.00  0.00     0.106 A 
ATOM     24  C   UNL d   1     -47.719  12.942  22.919  0.00  0.00     0.119 A 
ATOM     25  C   UNL d   1     -48.357  11.904  23.678  0.00  0.00     0.021 A 
ATOM     26  C   UNL d   1     -48.415  13.376  22.937  0.00  0.00     0.026 A 
ATOM     27  O   UNL d   1     -47.004  13.087  22.596  0.00  0.00    -0.288 OA
ATOM     28  C   UNL d   1     -49.078  13.097  23.312  0.00  0.00     0.002 A 
ATOM     29  C   UNL d   1     -49.061  12.350  23.692  0.00  0.00     0.002 A 
ENDBRANCH   1  21
TORSDOF 6
ENDMDL
MODEL 3
REMARK VINA RESULT:      -5.2      1.176      7.148
REMARK  6 active torsions:
REMARK  status: ('A' for Active; 'I' for Inactive)
REMARK    1  A    between atoms: C_9  and  C_2 
REMARK    2  A    between atoms: N_3  and  C_7 
REMARK       I    between atoms: C_8  and  N_14 
REMARK    3  A    between atoms: C_10  and  C_8 
REMARK    4  A    between atoms: C_13  and  C_10 
REMARK    5  A    between atoms: C_19  and  C_13 
REMARK    6  A    between atoms: N_14  and  C_20 
ROOT
ATOM      1  C   UNL d   1     -42.104  13.633  21.080  0.00  0.00     0.041 A 
ATOM      2  C   UNL d   1     -42.086  12.903  21.451  0.00  0.00     0.005 A 
ATOM      3  C   UNL d   1     -42.799  14.024  20.909  0.00  0.00     0.005 A 
ATOM      4  C   UNL d   1     -43.500  12.944  21.484  0.00  0.00     0.085 A 
ATOM      5  C   UNL d   1     -42.822  12.568  21.649  0.00  0.00     0.019 A 
ATOM      6  C   UNL d   1     -43.514  13.674  21.114  0.00  0.00     0.019 A 
ENDROOT
BRANCH   4   7
ATOM      7  N   UNL d   1     -44.204  12.572  21.700  0.00  0.00    -0.208 NA
ATOM      8  C   UNL d   1     -44.803  13.009  22.072  0.00  0.00     0.279 C 
ATOM      9  O   UNL d   1     -44.676  13.805  22.215  0.00  0.00    -0.265 OA
BRANCH   8  10
ATOM     10  C   UNL d   1     -45.509  12.641  22.291  0.00  0.00     0.062 C 
BRANCH  10  11
ATOM     11  C   UNL d   1     -46.000  12.965  22.858  0.00  0.00     0.005 C 
BRANCH  11  12
ATOM     12  C   UNL d   1     -46.742  12.613  23.057  0.00  0.00     0.002 A 
ATOM     13  C   UNL d   1     -47.445  12.964  22.803  0.00  0.00     0.024 A 
ATOM     14  C   UNL d   1     -48.185  12.607  23.006  0.00  0.00     0.127 A 
ATOM     15  C   UNL d   1     -48.186  11.910  23.455  0.00  0.00     0.024 A 
ATOM     16  C   UNL d   1     -47.472  11.577  23.698  0.00  0.00     0.002 A 
ATOM     17  C   UNL d   1     -46.744  11.923  23.503  0.00  0.00     0.000 A 
BRANCH  14  18
ATOM     18  N   UNL d   1     -48.893  12.941  22.762  0.00  0.00    -0.114 N 
ATOM     19  O   UNL d   1     -49.320  13.541  23.168  0.00  0.00    -0.532 OA
ATOM     20  O   UNL d   1     -49.284  12.723  22.067  0.00  0.00    -0.532 OA
ENDBRANCH  14  18
ENDBRANCH  11  12
ENDBRANCH  10  11
ENDBRANCH   8  10
ENDBRANCH   4   7
BRANCH   1  21
ATOM     21  C   UNL d   1     -41.375  13.977  20.878  0.00  0.00     0.182 A 
ATOM     22  N   UNL d   1     -40.758  14.322  21.315  0.00  0.00    -0.220 NA
ATOM     23  C   UNL d   1     -40.177  14.563  20.792  0.00  0.00     0.106 A 
ATOM     24  C   UNL d   1     -40.431  14.369  20.034  0.00  0.00     0.119 A 
ATOM     25  C   UNL d   1     -39.445  14.936  20.908  0.00  0.00     0.021 A 
ATOM     26  C   UNL d   1     -39.956  14.547  19.390  0.00  0.00     0.026 A 
ATOM     27  O   UNL d   1     -41.147  14.019  20.093  0.00  0.00    -0.288 OA
ATOM     28  C   UNL d   1     -39.237  14.911  19.483  0.00  0.00     0.002 A 
ATOM     29  C   UNL d   1     -38.966  15.115  20.249  0.00  0.00     0.002 A 
ENDBRANCH   1  21
TORSDOF 6
ENDMDL
MODEL 4
REMARK VINA RESULT:      -5.0      1.732      7.399
REMARK  6 active torsions:
REMARK  status: ('A' for Active; 'I' for Inactive)
REMARK    1  A    between atoms: C_9  and  C_2 
REMARK    2  A    between atoms: N_3  and  C_7 
REMARK       I    between atoms: C_8  and  N_14 
REMARK    3  A    between atoms: C_10  and  C_8 
REMARK    4  A    between atoms: C_13  and  C_10 
REMARK    5  A    between atoms: C_19  and  C_13 
REMARK    6  A    between atoms: N_14  and  C_20 
ROOT
ATOM      1  C   UNL d   1     -40.700  14.493  20.323  0.00  0.00     0.041 A 
ATOM      2  C   UNL d   1     -41.320  14.988  20.526  0.00  0.00     0.005 A 
ATOM      3  C   UNL d   1     -40.668  13.711  20.552  0.00  0.00     0.005 A 
ATOM      4  C   UNL d   1     -41.902  13.893  21.210  0.00  0.00     0.085 A 
ATOM      5  C   UNL d   1     -41.930  14.653  20.985  0.00  0.00     0.019 A 
ATOM      6  C   UNL d   1     -41.280  13.402  21.004  0.00  0.00     0.019 A 
ENDROOT
BRANCH   4   7
ATOM      7  N   UNL d   1     -42.528  13.608  21.663  0.00  0.00    -0.208 NA
ATOM      8  C   UNL d   1     -43.072  13.078  21.327  0.00  0.00     0.279 C 
ATOM      9  O   UNL d   1     -42.969  12.854  20.547  0.00  0.00    -0.265 OA
BRANCH   8  10
ATOM     10  C   UNL d   1     -43.701  12.790  21.777  0.00  0.00     0.062 C 
BRANCH  10  11
ATOM     11  C   UNL d   1     -44.477  12.908  21.549  0.00  0.00     0.005 C 
BRANCH  11  12
ATOM     12  C   UNL d   1     -45.114  12.860  22.101  0.00  0.00     0.002 A 
ATOM     13  C   UNL d   1     -45.687  13.454  22.122  0.00  0.00     0.024 A 
ATOM     14  C   UNL d   1     -46.323  13.400  22.677  0.00  0.00     0.127 A 
ATOM     15  C   UNL d   1     -46.356  12.749  23.189  0.00  0.00     0.024 A 
ATOM     16  C   UNL d   1     -45.773  12.167  23.152  0.00  0.00     0.002 A 
ATOM     17  C   UNL d   1     -45.148  12.215  22.610  0.00  0.00     0.000 A 
BRANCH  14  18
ATOM     18  N   UNL d   1     -46.900  13.981  22.711  0.00  0.00    -0.114 N 
ATOM     19  O   UNL d   1     -47.730  13.858  22.638  0.00  0.00    -0.532 OA
ATOM     20  O   UNL d   1     -46.734  14.783  22.825  0.00  0.00    -0.532 OA
ENDBRANCH  14  18
ENDBRANCH  11  12
ENDBRANCH  10  11
ENDBRANCH   8  10
ENDBRANCH   4   7
BRANCH   1  21
ATOM     21  C   UNL d   1     -40.087  14.817  19.866  0.00  0.00     0.182 A 
ATOM     22  N   UNL d   1     -39.388  15.227  20.045  0.00  0.00    -0.220 NA
ATOM     23  C   UNL d   1     -39.007  15.404  19.343  0.00  0.00     0.106 A 
ATOM     24  C   UNL d   1     -39.467  15.105  18.730  0.00  0.00     0.119 A 
ATOM     25  C   UNL d   1     -38.296  15.802  19.182  0.00  0.00     0.021 A 
ATOM     26  C   UNL d   1     -39.219  15.201  17.955  0.00  0.00     0.026 A 
ATOM     27  O   UNL d   1     -40.110  14.756  19.049  0.00  0.00    -0.288 OA
ATOM     28  C   UNL d   1     -38.528  15.586  17.776  0.00  0.00     0.002 A 
ATOM     29  C   UNL d   1     -38.049  15.896  18.391  0.00  0.00     0.002 A 
ENDBRANCH   1  21
TORSDOF 6
ENDMDL
