MODEL 1
REMARK VINA RESULT:      -3.0      0.000      0.000
REMARK  4 active torsions:
REMARK  status: ('A' for Active; 'I' for Inactive)
REMARK    1  A    between atoms: C_2  and  C_1 
REMARK       I    between atoms: N_6  and  C_2 
REMARK    2  A    between atoms: C_4  and  C_11 
REMARK    3  A    between atoms: N_8  and  N_6 
REMARK    4  A    between atoms: C_11  and  N_8 
ROOT
ATOM      1  C   UNL d   1      32.472  16.666 -24.719  0.00  0.00     0.300 C 
ATOM      2  O   UNL d   1      33.125  16.330 -25.097  0.00  0.00    -0.264 OA
ATOM      3  N   UNL d   1      31.705  16.399 -24.892  0.00  0.00    -0.105 NA
ENDROOT
BRANCH   3   4
ATOM      4  N   UNL d   1      31.052  16.734 -24.515  0.00  0.00    -0.143 NA
BRANCH   4   5
ATOM      5  C   UNL d   1      30.280  16.624 -24.826  0.00  0.00     0.126 C 
BRANCH   5   6
ATOM      6  C   UNL d   1      29.635  16.566 -24.321  0.00  0.00     0.060 A 
ATOM      7  C   UNL d   1      29.006  17.109 -24.373  0.00  0.00     0.197 A 
ATOM      8  O   UNL d   1      29.034  17.705 -24.934  0.00  0.00    -0.286 OA
ATOM      9  C   UNL d   1      28.363  17.051 -23.870  0.00  0.00     0.042 A 
ATOM     10  C   UNL d   1      28.332  16.454 -23.306  0.00  0.00     0.003 A 
ATOM     11  C   UNL d   1      28.966  15.899 -23.246  0.00  0.00     0.000 A 
ATOM     12  C   UNL d   1      29.612  15.957 -23.752  0.00  0.00     0.005 A 
ENDBRANCH   5   6
ENDBRANCH   4   5
ENDBRANCH   3   4
BRANCH   1  13
ATOM     13  C   UNL d   1      32.582  17.269 -24.167  0.00  0.00     0.098 A 
ATOM     14  C   UNL d   1      32.872  17.081 -23.417  0.00  0.00     0.200 A 
ATOM     15  O   UNL d   1      33.046  16.302 -23.232  0.00  0.00    -0.286 OA
ATOM     16  C   UNL d   1      32.988  17.673 -22.849  0.00  0.00     0.042 A 
ATOM     17  C   UNL d   1      32.813  18.455 -23.035  0.00  0.00     0.003 A 
ATOM     18  C   UNL d   1      32.520  18.655 -23.791  0.00  0.00     0.000 A 
ATOM     19  C   UNL d   1      32.403  18.071 -24.358  0.00  0.00     0.008 A 
ENDBRANCH   1  13
TORSDOF 4
ENDMDL
MODEL 2
REMARK VINA RESULT:      -1.6      3.430      4.738
REMARK  4 active torsions:
REMARK  status: ('A' for Active; 'I' for Inactive)
REMARK    1  A    between atoms: C_2  and  C_1 
REMARK       I    between atoms: N_6  and  C_2 
REMARK    2  A    between atoms: C_4  and  C_11 
REMARK    3  A    between atoms: N_8  and  N_6 
REMARK    4  A    between atoms: C_11  and  N_8 
ROOT
ATOM      1  C   UNL d   1      33.027  20.553 -21.016  0.00  0.00     0.300 C 
ATOM      2  O   UNL d   1      33.224  20.449 -20.221  0.00  0.00    -0.264 OA
ATOM      3  N   UNL d   1      33.066  19.914 -21.544  0.00  0.00    -0.105 NA
ENDROOT
BRANCH   3   4
ATOM      4  N   UNL d   1      32.870  20.016 -22.339  0.00  0.00    -0.143 NA
BRANCH   4   5
ATOM      5  C   UNL d   1      33.241  19.551 -22.932  0.00  0.00     0.126 C 
BRANCH   5   6
ATOM      6  C   UNL d   1      32.790  19.094 -23.442  0.00  0.00     0.060 A 
ATOM      7  C   UNL d   1      32.734  19.290 -24.250  0.00  0.00     0.197 A 
ATOM      8  O   UNL d   1      33.134  19.946 -24.533  0.00  0.00    -0.286 OA
ATOM      9  C   UNL d   1      32.284  18.833 -24.759  0.00  0.00     0.042 A 
ATOM     10  C   UNL d   1      31.882  18.176 -24.477  0.00  0.00     0.003 A 
ATOM     11  C   UNL d   1      31.932  17.969 -23.660  0.00  0.00     0.000 A 
ATOM     12  C   UNL d   1      32.385  18.428 -23.148  0.00  0.00     0.005 A 
ENDBRANCH   5   6
ENDBRANCH   4   5
ENDBRANCH   3   4
BRANCH   1  13
ATOM     13  C   UNL d   1      32.791  21.296 -21.288  0.00  0.00     0.098 A 
ATOM     14  C   UNL d   1      32.102  21.636 -20.983  0.00  0.00     0.200 A 
ATOM     15  O   UNL d   1      31.666  21.234 -20.417  0.00  0.00    -0.286 OA
ATOM     16  C   UNL d   1      31.849  22.380 -21.244  0.00  0.00     0.042 A 
ATOM     17  C   UNL d   1      32.286  22.783 -21.811  0.00  0.00     0.003 A 
ATOM     18  C   UNL d   1      32.983  22.447 -22.125  0.00  0.00     0.000 A 
ATOM     19  C   UNL d   1      33.239  21.709 -21.870  0.00  0.00     0.008 A 
ENDBRANCH   1  13
TORSDOF 4
ENDMDL
MODEL 3
REMARK VINA RESULT:      -1.3      1.444      1.867
REMARK  4 active torsions:
REMARK  status: ('A' for Active; 'I' for Inactive)
REMARK    1  A    between atoms: C_2  and  C_1 
REMARK       I    between atoms: N_6  and  C_2 
REMARK    2  A    between atoms: C_4  and  C_11 
REMARK    3  A    between atoms: N_8  and  N_6 
REMARK    4  A    between atoms: C_11  and  N_8 
ROOT
ATOM      1  C   UNL d   1      32.585  18.572 -24.513  0.00  0.00     0.300 C 
ATOM      2  O   UNL d   1      32.993  19.011 -25.081  0.00  0.00    -0.264 OA
ATOM      3  N   UNL d   1      31.955  18.080 -24.737  0.00  0.00    -0.105 NA
ENDROOT
BRANCH   3   4
ATOM      4  N   UNL d   1      31.547  17.640 -24.170  0.00  0.00    -0.143 NA
BRANCH   4   5
ATOM      5  C   UNL d   1      31.163  16.924 -24.383  0.00  0.00     0.126 C 
BRANCH   5   6
ATOM      6  C   UNL d   1      30.356  16.837 -24.268  0.00  0.00     0.060 A 
ATOM      7  C   UNL d   1      30.048  16.139 -23.934  0.00  0.00     0.197 A 
ATOM      8  O   UNL d   1      30.559  15.536 -23.721  0.00  0.00    -0.286 OA
ATOM      9  C   UNL d   1      29.242  16.052 -23.819  0.00  0.00     0.042 A 
ATOM     10  C   UNL d   1      28.727  16.656 -24.033  0.00  0.00     0.003 A 
ATOM     11  C   UNL d   1      29.030  17.368 -24.371  0.00  0.00     0.000 A 
ATOM     12  C   UNL d   1      29.841  17.455 -24.487  0.00  0.00     0.005 A 
ENDBRANCH   5   6
ENDBRANCH   4   5
ENDBRANCH   3   4
BRANCH   1  13
ATOM     13  C   UNL d   1      32.804  18.622 -23.719  0.00  0.00     0.098 A 
ATOM     14  C   UNL d   1      32.879  19.366 -23.368  0.00  0.00     0.200 A 
ATOM     15  O   UNL d   1      32.736  20.041 -23.810  0.00  0.00    -0.286 OA
ATOM     16  C   UNL d   1      33.098  19.436 -22.572  0.00  0.00     0.042 A 
ATOM     17  C   UNL d   1      33.241  18.759 -22.128  0.00  0.00     0.003 A 
ATOM     18  C   UNL d   1      33.168  18.003 -22.474  0.00  0.00     0.000 A 
ATOM     19  C   UNL d   1      32.951  17.928 -23.264  0.00  0.00     0.008 A 
ENDBRANCH   1  13
TORSDOF 4
ENDMDL
MODEL 4
REMARK VINA RESULT:      -1.2      4.161      5.753
REMARK  4 active torsions:
REMARK  status: ('A' for Active; 'I' for Inactive)
REMARK    1  A    between atoms: C_2  and  C_1 
REMARK       I    between atoms: N_6  and  C_2 
REMARK    2  A    between atoms: C_4  and  C_11 
REMARK    3  A    between atoms: N_8  and  N_6 
REMARK    4  A    between atoms: C_11  and  N_8 
ROOT
ATOM      1  C   UNL d   1      31.947  21.496 -20.704  0.00  0.00     0.300 C 
ATOM      2  O   UNL d   1      31.387  21.444 -20.101  0.00  0.00    -0.264 OA
ATOM      3  N   UNL d   1      32.173  20.818 -21.126  0.00  0.00    -0.105 NA
ENDROOT
BRANCH   3   4
ATOM      4  N   UNL d   1      32.733  20.868 -21.730  0.00  0.00    -0.143 NA
BRANCH   4   5
ATOM      5  C   UNL d   1      33.241  20.219 -21.893  0.00  0.00     0.126 C 
BRANCH   5   6
ATOM      6  C   UNL d   1      33.196  19.830 -22.613  0.00  0.00     0.060 A 
ATOM      7  C   UNL d   1      33.188  18.998 -22.646  0.00  0.00     0.197 A 
ATOM      8  O   UNL d   1      33.224  18.568 -21.950  0.00  0.00    -0.286 OA
ATOM      9  C   UNL d   1      33.143  18.609 -23.366  0.00  0.00     0.042 A 
ATOM     10  C   UNL d   1      33.107  19.039 -24.065  0.00  0.00     0.003 A 
ATOM     11  C   UNL d   1      33.115  19.883 -24.041  0.00  0.00     0.000 A 
ATOM     12  C   UNL d   1      33.160  20.274 -23.318  0.00  0.00     0.005 A 
ENDBRANCH   5   6
ENDBRANCH   4   5
ENDBRANCH   3   4
BRANCH   1  13
ATOM     13  C   UNL d   1      32.287  22.225 -20.889  0.00  0.00     0.098 A 
ATOM     14  C   UNL d   1      32.798  22.581 -20.346  0.00  0.00     0.200 A 
ATOM     15  O   UNL d   1      32.959  22.207 -19.634  0.00  0.00    -0.286 OA
ATOM     16  C   UNL d   1      33.148  23.313 -20.514  0.00  0.00     0.042 A 
ATOM     17  C   UNL d   1      32.986  23.687 -21.227  0.00  0.00     0.003 A 
ATOM     18  C   UNL d   1      32.472  23.335 -21.783  0.00  0.00     0.000 A 
ATOM     19  C   UNL d   1      32.121  22.609 -21.621  0.00  0.00     0.008 A 
ENDBRANCH   1  13
TORSDOF 4
ENDMDL
MODEL 5
REMARK VINA RESULT:      -1.1      0.891      3.941
REMARK  4 active torsions:
REMARK  status: ('A' for Active; 'I' for Inactive)
REMARK    1  A    between atoms: C_2  and  C_1 
REMARK       I    between atoms: N_6  and  C_2 
REMARK    2  A    between atoms: C_4  and  C_11 
REMARK    3  A    between atoms: N_8  and  N_6 
REMARK    4  A    between atoms: C_11  and  N_8 
ROOT
ATOM      1  C   UNL d   1      29.130  17.584 -24.790  0.00  0.00     0.300 C 
ATOM      2  O   UNL d   1      28.560  18.095 -25.097  0.00  0.00    -0.264 OA
ATOM      3  N   UNL d   1      29.937  17.762 -24.867  0.00  0.00    -0.105 NA
ENDROOT
BRANCH   3   4
ATOM      4  N   UNL d   1      30.509  17.252 -24.561  0.00  0.00    -0.143 NA
BRANCH   4   5
ATOM      5  C   UNL d   1      31.305  17.298 -24.824  0.00  0.00     0.126 C 
BRANCH   5   6
ATOM      6  C   UNL d   1      31.922  17.205 -24.293  0.00  0.00     0.060 A 
ATOM      7  C   UNL d   1      32.455  16.570 -24.369  0.00  0.00     0.197 A 
ATOM      8  O   UNL d   1      32.358  16.035 -24.981  0.00  0.00    -0.286 OA
ATOM      9  C   UNL d   1      33.072  16.477 -23.838  0.00  0.00     0.042 A 
ATOM     10  C   UNL d   1      33.171  17.012 -23.223  0.00  0.00     0.003 A 
ATOM     11  C   UNL d   1      32.636  17.660 -23.138  0.00  0.00     0.000 A 
ATOM     12  C   UNL d   1      32.016  17.753 -23.672  0.00  0.00     0.005 A 
ENDBRANCH   5   6
ENDBRANCH   4   5
ENDBRANCH   3   4
BRANCH   1  13
ATOM     13  C   UNL d   1      28.898  16.892 -24.404  0.00  0.00     0.098 A 
ATOM     14  C   UNL d   1      28.522  16.946 -23.672  0.00  0.00     0.200 A 
ATOM     15  O   UNL d   1      28.383  17.683 -23.339  0.00  0.00    -0.286 OA
ATOM     16  C   UNL d   1      28.282  16.263 -23.269  0.00  0.00     0.042 A 
ATOM     17  C   UNL d   1      28.420  15.524 -23.603  0.00  0.00     0.003 A 
ATOM     18  C   UNL d   1      28.801  15.459 -24.343  0.00  0.00     0.000 A 
ATOM     19  C   UNL d   1      29.041  16.134 -24.747  0.00  0.00     0.008 A 
ENDBRANCH   1  13
TORSDOF 4
ENDMDL
