MODEL 1
REMARK VINA RESULT:      40.4      0.000      0.000
REMARK  5 active torsions:
REMARK  status: ('A' for Active; 'I' for Inactive)
REMARK    1  A    between atoms: C_6  and  C_1 
REMARK    2  A    between atoms: C_9  and  N_2 
REMARK    3  A    between atoms: O_13  and  C_8 
REMARK    4  A    between atoms: O_15  and  C_9 
REMARK    5  A    between atoms: O_14  and  C_10 
ROOT
ATOM      1  C   UNL d   1     -50.706  25.440  33.323  0.00  0.00     0.149 A 
ATOM      2  N   UNL d   1     -50.544  24.630  33.325  0.00  0.00    -0.269 N 
ATOM      3  N   UNL d   1     -51.529  25.509  33.319  0.00  0.00    -0.227 NA
ATOM      4  C   UNL d   1     -51.242  24.217  33.322  0.00  0.00     0.085 A 
ATOM      5  C   UNL d   1     -51.879  24.785  33.318  0.00  0.00     0.099 A 
ATOM      6  C   UNL d   1     -51.395  23.433  33.322  0.00  0.00     0.019 A 
ATOM      7  C   UNL d   1     -52.646  24.468  33.315  0.00  0.00     0.021 A 
ATOM      8  C   UNL d   1     -52.159  23.189  33.318  0.00  0.00     0.002 A 
ATOM      9  C   UNL d   1     -52.757  23.723  33.315  0.00  0.00     0.002 A 
ENDROOT
BRANCH   1  10
ATOM     10  C   UNL d   1     -50.553  26.225  33.323  0.00  0.00     0.037 A 
ATOM     11  C   UNL d   1     -49.771  26.487  33.330  0.00  0.00     0.029 A 
ATOM     12  C   UNL d   1     -49.598  27.295  33.330  0.00  0.00     0.116 A 
ATOM     13  C   UNL d   1     -50.219  27.849  33.324  0.00  0.00     0.116 A 
ATOM     14  C   UNL d   1     -51.005  27.589  33.317  0.00  0.00     0.026 A 
ATOM     15  C   UNL d   1     -51.174  26.779  33.317  0.00  0.00     0.005 A 
BRANCH  12  16
ATOM     16  O   UNL d   1     -48.817  27.557  33.336  0.00  0.00    -0.326 OA
ATOM     17  C   UNL d   1     -48.472  27.846  34.034  0.00  0.00     0.181 C 
ENDBRANCH  12  16
BRANCH  13  18
ATOM     18  O   UNL d   1     -50.051  28.659  33.324  0.00  0.00    -0.326 OA
ATOM     19  C   UNL d   1     -50.669  29.213  33.387  0.00  0.00     0.181 C 
ENDBRANCH  13  18
ENDBRANCH   1  10
BRANCH   2  20
ATOM     20  C   UNL d   1     -49.775  24.460  33.329  0.00  0.00     0.205 C 
BRANCH  20  21
ATOM     21  O   UNL d   1     -49.404  24.137  33.976  0.00  0.00    -0.310 OA
ATOM     22  C   UNL d   1     -49.158  23.356  34.014  0.00  0.00     0.183 C 
ENDBRANCH  20  21
ENDBRANCH   2  20
TORSDOF 5
ENDMDL
