MODEL 1
REMARK VINA RESULT:      42.9      0.000      0.000
REMARK  4 active torsions:
REMARK  status: ('A' for Active; 'I' for Inactive)
REMARK    1  A    between atoms: N_6  and  C_1 
REMARK    2  A    between atoms: C_8  and  N_4 
REMARK    3  A    between atoms: C_9  and  N_6 
REMARK    4  A    between atoms: C_13  and  C_9 
ROOT
ATOM      1  C   UNL d   1     -57.478 -98.779 -44.572  0.00  0.00     0.157 A 
ATOM      2  C   UNL d   1     -57.613 -98.801 -45.385  0.00  0.00     0.298 A 
ATOM      3  N   UNL d   1     -58.798 -98.803 -44.788  0.00  0.00    -0.238 N 
ATOM      4  N   UNL d   1     -58.432 -98.816 -45.515  0.00  0.00    -0.209 N 
ATOM      5  C   UNL d   1     -58.207 -98.780 -44.185  0.00  0.00     0.104 A 
ATOM      6  O   UNL d   1     -57.013 -98.807 -45.987  0.00  0.00    -0.263 OA
ATOM      7  C   UNL d   1     -59.668 -98.812 -44.629  0.00  0.00     0.120 C 
ATOM      8  C   UNL d   1     -58.348 -98.761 -43.337  0.00  0.00     0.022 C 
ENDROOT
BRANCH   1   9
ATOM      9  N   UNL d   1     -56.721 -98.758 -44.189  0.00  0.00    -0.238 NA
BRANCH   9  10
ATOM     10  C   UNL d   1     -56.032 -98.962 -44.599  0.00  0.00     0.099 C 
BRANCH  10  11
ATOM     11  C   UNL d   1     -55.612 -99.652 -44.384  0.00  0.00     0.022 A 
ATOM     12  C   UNL d   1     -55.592-100.277 -44.889  0.00  0.00     0.022 A 
ATOM     13  C   UNL d   1     -55.175-100.966 -44.679  0.00  0.00     0.099 A 
ATOM     14  N   UNL d   1     -54.788-101.025 -43.982  0.00  0.00    -0.242 NA
ATOM     15  C   UNL d   1     -54.794-100.399 -43.451  0.00  0.00     0.099 A 
ATOM     16  C   UNL d   1     -55.220 -99.689 -43.659  0.00  0.00     0.022 A 
ENDBRANCH  10  11
ENDBRANCH   9  10
ENDBRANCH   1   9
BRANCH   4  17
ATOM     17  C   UNL d   1     -58.783 -98.840 -46.284  0.00  0.00     0.085 A 
ATOM     18  C   UNL d   1     -59.590 -98.946 -46.350  0.00  0.00     0.019 A 
ATOM     19  C   UNL d   1     -59.944 -98.970 -47.124  0.00  0.00     0.002 A 
ATOM     20  C   UNL d   1     -59.467 -98.886 -47.782  0.00  0.00     0.000 A 
ATOM     21  C   UNL d   1     -58.656 -98.779 -47.718  0.00  0.00     0.002 A 
ATOM     22  C   UNL d   1     -58.303 -98.755 -46.944  0.00  0.00     0.019 A 
ENDBRANCH   4  17
TORSDOF 4
ENDMDL
MODEL 2
REMARK VINA RESULT:      44.7      1.381      2.272
REMARK  4 active torsions:
REMARK  status: ('A' for Active; 'I' for Inactive)
REMARK    1  A    between atoms: N_6  and  C_1 
REMARK    2  A    between atoms: C_8  and  N_4 
REMARK    3  A    between atoms: C_9  and  N_6 
REMARK    4  A    between atoms: C_13  and  C_9 
ROOT
ATOM      1  C   UNL d   1     -56.043 -99.217 -44.341  0.00  0.00     0.157 A 
ATOM      2  C   UNL d   1     -56.798 -99.208 -44.671  0.00  0.00     0.298 A 
ATOM      3  N   UNL d   1     -56.930 -98.944 -43.377  0.00  0.00    -0.238 N 
ATOM      4  N   UNL d   1     -57.345 -99.038 -44.071  0.00  0.00    -0.209 N 
ATOM      5  C   UNL d   1     -56.107 -99.054 -43.534  0.00  0.00     0.104 A 
ATOM      6  O   UNL d   1     -56.984 -99.349 -45.489  0.00  0.00    -0.263 OA
ATOM      7  C   UNL d   1     -57.261 -98.757 -42.579  0.00  0.00     0.120 C 
ATOM      8  C   UNL d   1     -55.470 -99.005 -42.960  0.00  0.00     0.022 C 
ENDROOT
BRANCH   1   9
ATOM      9  N   UNL d   1     -55.317 -99.368 -44.753  0.00  0.00    -0.238 NA
BRANCH   9  10
ATOM     10  C   UNL d   1     -54.736 -99.857 -44.427  0.00  0.00     0.099 C 
BRANCH  10  11
ATOM     11  C   UNL d   1     -54.729-100.672 -44.612  0.00  0.00     0.022 A 
ATOM     12  C   UNL d   1     -54.729-101.214 -44.017  0.00  0.00     0.022 A 
ATOM     13  C   UNL d   1     -54.722-102.026 -44.198  0.00  0.00     0.099 A 
ATOM     14  N   UNL d   1     -54.715-102.288 -44.954  0.00  0.00    -0.242 NA
ATOM     15  C   UNL d   1     -54.714-101.752 -45.577  0.00  0.00     0.099 A 
ATOM     16  C   UNL d   1     -54.721-100.918 -45.399  0.00  0.00     0.022 A 
ENDBRANCH  10  11
ENDBRANCH   9  10
ENDBRANCH   1   9
BRANCH   4  17
ATOM     17  C   UNL d   1     -58.180 -98.982 -44.200  0.00  0.00     0.085 A 
ATOM     18  C   UNL d   1     -58.456 -98.813 -44.950  0.00  0.00     0.019 A 
ATOM     19  C   UNL d   1     -59.295 -98.757 -45.080  0.00  0.00     0.002 A 
ATOM     20  C   UNL d   1     -59.804 -98.873 -44.452  0.00  0.00     0.000 A 
ATOM     21  C   UNL d   1     -59.528 -99.044 -43.698  0.00  0.00     0.002 A 
ATOM     22  C   UNL d   1     -58.689 -99.100 -43.568  0.00  0.00     0.019 A 
ENDBRANCH   4  17
TORSDOF 4
ENDMDL
