MODEL 1
REMARK VINA RESULT:      -8.9      0.000      0.000
REMARK  4 active torsions:
REMARK  status: ('A' for Active; 'I' for Inactive)
REMARK    1  A    between atoms: N_7  and  C_1 
REMARK    2  A    between atoms: C_11  and  C_2 
REMARK       I    between atoms: C_8  and  N_7 
REMARK    3  A    between atoms: C_13  and  C_8 
REMARK    4  A    between atoms: N_9  and  C_13 
ROOT
ATOM      1  C   UNL d   1      53.149  32.550  53.246  0.00  0.00     0.142 A 
ATOM      2  C   UNL d   1      53.281  33.226  53.685  0.00  0.00     0.024 A 
ATOM      3  C   UNL d   1      52.515  32.525  52.719  0.00  0.00     0.297 A 
ATOM      4  C   UNL d   1      52.793  33.883  53.612  0.00  0.00     0.020 A 
ATOM      5  N   UNL d   1      52.013  33.177  52.631  0.00  0.00    -0.207 NA
ATOM      6  C   UNL d   1      52.159  33.858  53.085  0.00  0.00     0.085 A 
ATOM      7  C   UNL d   1      52.926  34.556  54.050  0.00  0.00     0.008 A 
ATOM      8  O   UNL d   1      52.369  31.841  52.264  0.00  0.00    -0.264 OA
ATOM      9  C   UNL d   1      51.658  34.507  52.996  0.00  0.00     0.020 A 
ATOM     10  C   UNL d   1      52.439  35.209  53.976  0.00  0.00     0.035 A 
ATOM     11  C   UNL d   1      51.805  35.185  53.449  0.00  0.00     0.008 A 
ATOM     12 BR   UNL d   1      52.564  35.909  54.422  0.00  0.00    -0.049 Br
ENDROOT
BRANCH   1  13
ATOM     13  N   UNL d   1      53.641  31.877  53.315  0.00  0.00    -0.202 NA
ATOM     14  C   UNL d   1      53.284  31.114  53.338  0.00  0.00     0.297 C 
ATOM     15  O   UNL d   1      52.629  31.080  53.300  0.00  0.00    -0.264 OA
BRANCH  14  16
ATOM     16  C   UNL d   1      53.766  30.455  53.406  0.00  0.00     0.144 C 
BRANCH  16  17
ATOM     17  N   UNL d   1      53.488  29.796  53.840  0.00  0.00    -0.295 N 
ATOM     18  C   UNL d   1      53.690  29.718  54.631  0.00  0.00     0.107 A 
ATOM     19  C   UNL d   1      53.410  29.054  55.069  0.00  0.00     0.142 A 
ATOM     20  O   UNL d   1      52.937  28.489  54.703  0.00  0.00    -0.300 OA
ATOM     21  C   UNL d   1      52.735  28.582  53.881  0.00  0.00     0.142 A 
ATOM     22  C   UNL d   1      53.014  29.234  53.465  0.00  0.00     0.107 A 
ENDBRANCH  16  17
ENDBRANCH  14  16
ENDBRANCH   1  13
BRANCH   2  23
ATOM     23  C   UNL d   1      53.929  33.252  54.224  0.00  0.00     0.002 A 
ATOM     24  C   UNL d   1      53.804  33.103  55.022  0.00  0.00     0.000 A 
ATOM     25  C   UNL d   1      54.435  33.127  55.546  0.00  0.00     0.000 A 
ATOM     26  C   UNL d   1      55.209  33.301  55.288  0.00  0.00     0.000 A 
ATOM     27  C   UNL d   1      55.316  33.451  54.471  0.00  0.00     0.000 A 
ATOM     28  C   UNL d   1      54.685  33.426  53.946  0.00  0.00     0.000 A 
ENDBRANCH   2  23
TORSDOF 4
ENDMDL
MODEL 2
REMARK VINA RESULT:      -7.8      1.099      2.275
REMARK  4 active torsions:
REMARK  status: ('A' for Active; 'I' for Inactive)
REMARK    1  A    between atoms: N_7  and  C_1 
REMARK    2  A    between atoms: C_11  and  C_2 
REMARK       I    between atoms: C_8  and  N_7 
REMARK    3  A    between atoms: C_13  and  C_8 
REMARK    4  A    between atoms: N_9  and  C_13 
ROOT
ATOM      1  C   UNL d   1      53.483  33.122  53.547  0.00  0.00     0.142 A 
ATOM      2  C   UNL d   1      52.977  33.757  53.638  0.00  0.00     0.024 A 
ATOM      3  C   UNL d   1      54.207  33.120  53.943  0.00  0.00     0.297 A 
ATOM      4  C   UNL d   1      53.175  34.394  54.116  0.00  0.00     0.020 A 
ATOM      5  N   UNL d   1      54.425  33.754  54.430  0.00  0.00    -0.207 NA
ATOM      6  C   UNL d   1      53.899  34.393  54.512  0.00  0.00     0.085 A 
ATOM      7  C   UNL d   1      52.670  35.026  54.206  0.00  0.00     0.008 A 
ATOM      8  O   UNL d   1      54.733  32.478  53.860  0.00  0.00    -0.264 OA
ATOM      9  C   UNL d   1      54.117  35.023  54.998  0.00  0.00     0.020 A 
ATOM     10  C   UNL d   1      52.869  35.660  54.683  0.00  0.00     0.035 A 
ATOM     11  C   UNL d   1      53.592  35.658  55.078  0.00  0.00     0.008 A 
ATOM     12 BR   UNL d   1      52.357  36.318  54.783  0.00  0.00    -0.049 Br
ENDROOT
BRANCH   1  13
ATOM     13  N   UNL d   1      53.289  32.469  53.062  0.00  0.00    -0.202 NA
ATOM     14  C   UNL d   1      53.433  31.691  53.353  0.00  0.00     0.297 C 
ATOM     15  O   UNL d   1      53.694  31.630  53.952  0.00  0.00    -0.264 OA
BRANCH  14  16
ATOM     16  C   UNL d   1      53.242  31.051  52.877  0.00  0.00     0.144 C 
BRANCH  16  17
ATOM     17  N   UNL d   1      53.034  30.328  53.240  0.00  0.00    -0.295 N 
ATOM     18  C   UNL d   1      53.608  29.888  53.627  0.00  0.00     0.107 A 
ATOM     19  C   UNL d   1      53.398  29.159  53.994  0.00  0.00     0.142 A 
ATOM     20  O   UNL d   1      52.621  28.890  53.963  0.00  0.00    -0.300 OA
ATOM     21  C   UNL d   1      52.034  29.357  53.557  0.00  0.00     0.142 A 
ATOM     22  C   UNL d   1      52.252  30.065  53.204  0.00  0.00     0.107 A 
ENDBRANCH  16  17
ENDBRANCH  14  16
ENDBRANCH   1  13
BRANCH   2  23
ATOM     23  C   UNL d   1      52.237  33.759  53.234  0.00  0.00     0.002 A 
ATOM     24  C   UNL d   1      51.562  33.487  53.614  0.00  0.00     0.000 A 
ATOM     25  C   UNL d   1      50.842  33.489  53.220  0.00  0.00     0.000 A 
ATOM     26  C   UNL d   1      50.776  33.762  52.435  0.00  0.00     0.000 A 
ATOM     27  C   UNL d   1      51.476  34.036  52.063  0.00  0.00     0.000 A 
ATOM     28  C   UNL d   1      52.196  34.034  52.457  0.00  0.00     0.000 A 
ENDBRANCH   2  23
TORSDOF 4
ENDMDL
MODEL 3
REMARK VINA RESULT:      -6.6      2.185      4.534
REMARK  4 active torsions:
REMARK  status: ('A' for Active; 'I' for Inactive)
REMARK    1  A    between atoms: N_7  and  C_1 
REMARK    2  A    between atoms: C_11  and  C_2 
REMARK       I    between atoms: C_8  and  N_7 
REMARK    3  A    between atoms: C_13  and  C_8 
REMARK    4  A    between atoms: N_9  and  C_13 
ROOT
ATOM      1  C   UNL d   1      51.526  33.441  53.433  0.00  0.00     0.142 A 
ATOM      2  C   UNL d   1      52.323  33.551  53.578  0.00  0.00     0.024 A 
ATOM      3  C   UNL d   1      51.254  32.697  53.206  0.00  0.00     0.297 A 
ATOM      4  C   UNL d   1      52.859  32.933  53.502  0.00  0.00     0.020 A 
ATOM      5  N   UNL d   1      51.778  32.061  53.124  0.00  0.00    -0.207 NA
ATOM      6  C   UNL d   1      52.586  32.188  53.275  0.00  0.00     0.085 A 
ATOM      7  C   UNL d   1      53.652  33.044  53.647  0.00  0.00     0.008 A 
ATOM      8  O   UNL d   1      50.443  32.571  53.055  0.00  0.00    -0.264 OA
ATOM      9  C   UNL d   1      53.107  31.554  53.193  0.00  0.00     0.020 A 
ATOM     10  C   UNL d   1      54.184  32.428  53.570  0.00  0.00     0.035 A 
ATOM     11  C   UNL d   1      53.912  31.683  53.343  0.00  0.00     0.008 A 
ATOM     12 BR   UNL d   1      55.005  32.528  53.716  0.00  0.00    -0.049 Br
ENDROOT
BRANCH   1  13
ATOM     13  N   UNL d   1      50.975  34.065  53.509  0.00  0.00    -0.202 NA
ATOM     14  C   UNL d   1      50.420  34.194  52.887  0.00  0.00     0.297 C 
ATOM     15  O   UNL d   1      50.445  33.795  52.366  0.00  0.00    -0.264 OA
BRANCH  14  16
ATOM     16  C   UNL d   1      49.880  34.806  52.961  0.00  0.00     0.144 C 
BRANCH  16  17
ATOM     17  N   UNL d   1      49.289  34.893  52.376  0.00  0.00    -0.295 N 
ATOM     18  C   UNL d   1      49.463  34.719  51.594  0.00  0.00     0.107 A 
ATOM     19  C   UNL d   1      48.867  34.807  51.004  0.00  0.00     0.142 A 
ATOM     20  O   UNL d   1      48.115  35.066  51.214  0.00  0.00    -0.300 OA
ATOM     21  C   UNL d   1      47.947  35.243  52.030  0.00  0.00     0.142 A 
ATOM     22  C   UNL d   1      48.536  35.153  52.595  0.00  0.00     0.107 A 
ENDBRANCH  16  17
ENDBRANCH  14  16
ENDBRANCH   1  13
BRANCH   2  23
ATOM     23  C   UNL d   1      52.602  34.312  53.810  0.00  0.00     0.002 A 
ATOM     24  C   UNL d   1      52.890  34.832  53.244  0.00  0.00     0.000 A 
ATOM     25  C   UNL d   1      53.161  35.573  53.470  0.00  0.00     0.000 A 
ATOM     26  C   UNL d   1      53.151  35.815  54.268  0.00  0.00     0.000 A 
ATOM     27  C   UNL d   1      52.853  35.271  54.831  0.00  0.00     0.000 A 
ATOM     28  C   UNL d   1      52.582  34.530  54.605  0.00  0.00     0.000 A 
ENDBRANCH   2  23
TORSDOF 4
ENDMDL
MODEL 4
REMARK VINA RESULT:      -6.5      1.899      4.094
REMARK  4 active torsions:
REMARK  status: ('A' for Active; 'I' for Inactive)
REMARK    1  A    between atoms: N_7  and  C_1 
REMARK    2  A    between atoms: C_11  and  C_2 
REMARK       I    between atoms: C_8  and  N_7 
REMARK    3  A    between atoms: C_13  and  C_8 
REMARK    4  A    between atoms: N_9  and  C_13 
ROOT
ATOM      1  C   UNL d   1      52.923  32.692  52.977  0.00  0.00     0.142 A 
ATOM      2  C   UNL d   1      53.357  32.181  53.445  0.00  0.00     0.024 A 
ATOM      3  C   UNL d   1      52.302  32.397  52.521  0.00  0.00     0.297 A 
ATOM      4  C   UNL d   1      53.187  31.378  53.469  0.00  0.00     0.020 A 
ATOM      5  N   UNL d   1      52.116  31.590  52.533  0.00  0.00    -0.207 NA
ATOM      6  C   UNL d   1      52.566  31.082  53.014  0.00  0.00     0.085 A 
ATOM      7  C   UNL d   1      53.621  30.870  53.935  0.00  0.00     0.008 A 
ATOM      8  O   UNL d   1      51.851  32.907  52.040  0.00  0.00    -0.264 OA
ATOM      9  C   UNL d   1      52.379  30.279  53.024  0.00  0.00     0.020 A 
ATOM     10  C   UNL d   1      53.450  30.071  53.959  0.00  0.00     0.035 A 
ATOM     11  C   UNL d   1      52.829  29.775  53.503  0.00  0.00     0.008 A 
ATOM     12 BR   UNL d   1      53.889  29.537  54.435  0.00  0.00    -0.049 Br
ENDROOT
BRANCH   1  13
ATOM     13  N   UNL d   1      53.090  33.511  52.947  0.00  0.00    -0.202 NA
ATOM     14  C   UNL d   1      52.452  34.057  53.016  0.00  0.00     0.297 C 
ATOM     15  O   UNL d   1      51.847  33.815  53.092  0.00  0.00    -0.264 OA
BRANCH  14  16
ATOM     16  C   UNL d   1      52.616  34.860  52.987  0.00  0.00     0.144 C 
BRANCH  16  17
ATOM     17  N   UNL d   1      52.603  35.300  53.697  0.00  0.00    -0.295 N 
ATOM     18  C   UNL d   1      51.943  35.267  54.183  0.00  0.00     0.107 A 
ATOM     19  C   UNL d   1      51.929  35.710  54.899  0.00  0.00     0.142 A 
ATOM     20  O   UNL d   1      52.575  36.173  55.110  0.00  0.00    -0.300 OA
ATOM     21  C   UNL d   1      53.255  36.198  54.597  0.00  0.00     0.142 A 
ATOM     22  C   UNL d   1      53.256  35.762  53.902  0.00  0.00     0.107 A 
ENDBRANCH  16  17
ENDBRANCH  14  16
ENDBRANCH   1  13
BRANCH   2  23
ATOM     23  C   UNL d   1      53.992  32.483  53.911  0.00  0.00     0.002 A 
ATOM     24  C   UNL d   1      53.896  32.576  54.721  0.00  0.00     0.000 A 
ATOM     25  C   UNL d   1      54.514  32.870  55.174  0.00  0.00     0.000 A 
ATOM     26  C   UNL d   1      55.245  33.079  54.831  0.00  0.00     0.000 A 
ATOM     27  C   UNL d   1      55.323  32.976  54.003  0.00  0.00     0.000 A 
ATOM     28  C   UNL d   1      54.706  32.682  53.549  0.00  0.00     0.000 A 
ENDBRANCH   2  23
TORSDOF 4
ENDMDL
MODEL 5
REMARK VINA RESULT:      -5.9      2.335      4.365
REMARK  4 active torsions:
REMARK  status: ('A' for Active; 'I' for Inactive)
REMARK    1  A    between atoms: N_7  and  C_1 
REMARK    2  A    between atoms: C_11  and  C_2 
REMARK       I    between atoms: C_8  and  N_7 
REMARK    3  A    between atoms: C_13  and  C_8 
REMARK    4  A    between atoms: N_9  and  C_13 
ROOT
ATOM      1  C   UNL d   1      52.294  33.959  53.004  0.00  0.00     0.142 A 
ATOM      2  C   UNL d   1      52.694  33.397  53.443  0.00  0.00     0.024 A 
ATOM      3  C   UNL d   1      52.401  34.759  53.176  0.00  0.00     0.297 A 
ATOM      4  C   UNL d   1      53.200  33.614  54.052  0.00  0.00     0.020 A 
ATOM      5  N   UNL d   1      52.907  34.997  53.786  0.00  0.00    -0.207 NA
ATOM      6  C   UNL d   1      53.307  34.414  54.224  0.00  0.00     0.085 A 
ATOM      7  C   UNL d   1      53.598  33.053  54.488  0.00  0.00     0.008 A 
ATOM      8  O   UNL d   1      51.999  35.343  52.736  0.00  0.00    -0.264 OA
ATOM      9  C   UNL d   1      53.811  34.652  54.832  0.00  0.00     0.020 A 
ATOM     10  C   UNL d   1      54.101  33.270  55.095  0.00  0.00     0.035 A 
ATOM     11  C   UNL d   1      54.208  34.070  55.266  0.00  0.00     0.008 A 
ATOM     12 BR   UNL d   1      54.517  32.702  55.552  0.00  0.00    -0.049 Br
ENDROOT
BRANCH   1  13
ATOM     13  N   UNL d   1      51.777  33.747  52.382  0.00  0.00    -0.202 NA
ATOM     14  C   UNL d   1      51.024  34.121  52.336  0.00  0.00     0.297 C 
ATOM     15  O   UNL d   1      50.873  34.567  52.794  0.00  0.00    -0.264 OA
BRANCH  14  16
ATOM     16  C   UNL d   1      50.517  33.913  51.726  0.00  0.00     0.144 C 
BRANCH  16  17
ATOM     17  N   UNL d   1      49.772  34.289  51.676  0.00  0.00    -0.295 N 
ATOM     18  C   UNL d   1      49.377  34.500  52.363  0.00  0.00     0.107 A 
ATOM     19  C   UNL d   1      48.626  34.880  52.312  0.00  0.00     0.142 A 
ATOM     20  O   UNL d   1      48.292  35.038  51.577  0.00  0.00    -0.300 OA
ATOM     21  C   UNL d   1      48.714  34.814  50.871  0.00  0.00     0.142 A 
ATOM     22  C   UNL d   1      49.444  34.444  50.934  0.00  0.00     0.107 A 
ENDBRANCH  16  17
ENDBRANCH  14  16
ENDBRANCH   1  13
BRANCH   2  23
ATOM     23  C   UNL d   1      52.585  32.580  53.268  0.00  0.00     0.002 A 
ATOM     24  C   UNL d   1      51.982  32.160  53.634  0.00  0.00     0.000 A 
ATOM     25  C   UNL d   1      51.876  31.364  53.463  0.00  0.00     0.000 A 
ATOM     26  C   UNL d   1      52.370  30.966  52.921  0.00  0.00     0.000 A 
ATOM     27  C   UNL d   1      52.980  31.411  52.558  0.00  0.00     0.000 A 
ATOM     28  C   UNL d   1      53.086  32.207  52.729  0.00  0.00     0.000 A 
ENDBRANCH   2  23
TORSDOF 4
ENDMDL
