MODEL 1
REMARK VINA RESULT:      -8.2      0.000      0.000
REMARK  3 active torsions:
REMARK  status: ('A' for Active; 'I' for Inactive)
REMARK       I    between atoms: N_2  and  C_1 
REMARK    1  A    between atoms: C_3  and  C_1 
REMARK    2  A    between atoms: C_6  and  N_2 
REMARK    3  A    between atoms: C_5  and  C_4 
ROOT
ATOM      1  C   UNL d   1     -47.892  13.242  23.122  0.00  0.00     0.279 C 
ATOM      2  N   UNL d   1     -48.648  13.141  22.798  0.00  0.00    -0.207 NA
ATOM      3  O   UNL d   1     -47.614  13.999  23.285  0.00  0.00    -0.265 OA
ENDROOT
BRANCH   1   4
ATOM      4  C   UNL d   1     -47.421  12.582  23.278  0.00  0.00     0.064 A 
ATOM      5  C   UNL d   1     -46.608  12.626  23.170  0.00  0.00     0.069 A 
ATOM      6  C   UNL d   1     -46.125  11.970  23.323  0.00  0.00     0.006 A 
ATOM      7  C   UNL d   1     -46.480  11.272  23.587  0.00  0.00     0.000 A 
ATOM      8  C   UNL d   1     -47.292  11.228  23.696  0.00  0.00     0.000 A 
ATOM      9  C   UNL d   1     -47.762  11.881  23.541  0.00  0.00     0.005 A 
BRANCH   5  10
ATOM     10  C   UNL d   1     -46.263  13.330  22.905  0.00  0.00     0.211 C 
ATOM     11  O   UNL d   1     -46.155  13.460  22.093  0.00  0.00    -0.644 OA
ATOM     12  O   UNL d   1     -46.026  13.902  23.452  0.00  0.00    -0.644 OA
ENDBRANCH   5  10
ENDBRANCH   1   4
BRANCH   2  13
ATOM     13  C   UNL d   1     -49.123  13.797  22.640  0.00  0.00     0.095 A 
ATOM     14  C   UNL d   1     -49.540  13.844  21.934  0.00  0.00     0.075 A 
ATOM     15 CL   UNL d   1     -49.485  13.235  21.382  0.00  0.00    -0.081 Cl
ATOM     16  C   UNL d   1     -50.011  14.497  21.778  0.00  0.00     0.013 A 
ATOM     17  C   UNL d   1     -50.069  15.112  22.331  0.00  0.00     0.001 A 
ATOM     18  C   UNL d   1     -49.649  15.061  23.039  0.00  0.00     0.002 A 
ATOM     19  C   UNL d   1     -49.175  14.402  23.193  0.00  0.00     0.020 A 
ENDBRANCH   2  13
TORSDOF 3
ENDMDL
MODEL 2
REMARK VINA RESULT:      -8.2      1.476      3.725
REMARK  3 active torsions:
REMARK  status: ('A' for Active; 'I' for Inactive)
REMARK       I    between atoms: N_2  and  C_1 
REMARK    1  A    between atoms: C_3  and  C_1 
REMARK    2  A    between atoms: C_6  and  N_2 
REMARK    3  A    between atoms: C_5  and  C_4 
ROOT
ATOM      1  C   UNL d   1     -48.862  13.206  22.947  0.00  0.00     0.279 C 
ATOM      2  N   UNL d   1     -48.074  13.370  23.146  0.00  0.00    -0.207 NA
ATOM      3  O   UNL d   1     -49.115  12.425  22.885  0.00  0.00    -0.265 OA
ENDROOT
BRANCH   1   4
ATOM      4  C   UNL d   1     -49.389  13.828  22.812  0.00  0.00     0.064 A 
ATOM      5  C   UNL d   1     -49.835  13.842  22.123  0.00  0.00     0.069 A 
ATOM      6  C   UNL d   1     -50.367  14.460  21.976  0.00  0.00     0.006 A 
ATOM      7  C   UNL d   1     -50.438  15.061  22.538  0.00  0.00     0.000 A 
ATOM      8  C   UNL d   1     -49.992  15.047  23.227  0.00  0.00     0.000 A 
ATOM      9  C   UNL d   1     -49.468  14.432  23.365  0.00  0.00     0.005 A 
BRANCH   5  10
ATOM     10  C   UNL d   1     -49.756  13.234  21.566  0.00  0.00     0.211 C 
ATOM     11  O   UNL d   1     -50.239  12.562  21.614  0.00  0.00    -0.644 OA
ATOM     12  O   UNL d   1     -49.196  13.301  20.963  0.00  0.00    -0.644 OA
ENDBRANCH   5  10
ENDBRANCH   1   4
BRANCH   2  13
ATOM     13  C   UNL d   1     -47.543  12.752  23.282  0.00  0.00     0.095 A 
ATOM     14  C   UNL d   1     -46.741  12.860  23.144  0.00  0.00     0.075 A 
ATOM     15 CL   UNL d   1     -46.465  13.586  22.869  0.00  0.00    -0.081 Cl
ATOM     16  C   UNL d   1     -46.215  12.246  23.279  0.00  0.00     0.013 A 
ATOM     17  C   UNL d   1     -46.490  11.514  23.556  0.00  0.00     0.001 A 
ATOM     18  C   UNL d   1     -47.297  11.410  23.694  0.00  0.00     0.002 A 
ATOM     19  C   UNL d   1     -47.824  12.031  23.557  0.00  0.00     0.020 A 
ENDBRANCH   2  13
TORSDOF 3
ENDMDL
MODEL 3
REMARK VINA RESULT:      -7.1      1.667      2.136
REMARK  3 active torsions:
REMARK  status: ('A' for Active; 'I' for Inactive)
REMARK       I    between atoms: N_2  and  C_1 
REMARK    1  A    between atoms: C_3  and  C_1 
REMARK    2  A    between atoms: C_6  and  N_2 
REMARK    3  A    between atoms: C_5  and  C_4 
ROOT
ATOM      1  C   UNL d   1     -48.251  13.427  22.269  0.00  0.00     0.279 C 
ATOM      2  N   UNL d   1     -48.662  12.767  22.557  0.00  0.00    -0.207 NA
ATOM      3  O   UNL d   1     -48.645  13.988  21.813  0.00  0.00    -0.265 OA
ENDROOT
BRANCH   1   4
ATOM      4  C   UNL d   1     -47.449  13.519  22.443  0.00  0.00     0.064 A 
ATOM      5  C   UNL d   1     -47.162  14.256  22.665  0.00  0.00     0.069 A 
ATOM      6  C   UNL d   1     -46.359  14.361  22.842  0.00  0.00     0.006 A 
ATOM      7  C   UNL d   1     -45.856  13.709  22.791  0.00  0.00     0.000 A 
ATOM      8  C   UNL d   1     -46.143  12.972  22.570  0.00  0.00     0.000 A 
ATOM      9  C   UNL d   1     -46.937  12.877  22.396  0.00  0.00     0.005 A 
BRANCH   5  10
ATOM     10  C   UNL d   1     -47.676  14.904  22.713  0.00  0.00     0.211 C 
ATOM     11  O   UNL d   1     -47.724  15.443  22.085  0.00  0.00    -0.644 OA
ATOM     12  O   UNL d   1     -48.139  15.011  23.388  0.00  0.00    -0.644 OA
ENDBRANCH   5  10
ENDBRANCH   1   4
BRANCH   2  13
ATOM     13  C   UNL d   1     -49.464  12.670  22.386  0.00  0.00     0.095 A 
ATOM     14  C   UNL d   1     -49.967  12.336  22.942  0.00  0.00     0.075 A 
ATOM     15 CL   UNL d   1     -49.670  12.097  23.673  0.00  0.00    -0.081 Cl
ATOM     16  C   UNL d   1     -50.762  12.240  22.772  0.00  0.00     0.013 A 
ATOM     17  C   UNL d   1     -51.064  12.479  22.037  0.00  0.00     0.001 A 
ATOM     18  C   UNL d   1     -50.555  12.815  21.480  0.00  0.00     0.002 A 
ATOM     19  C   UNL d   1     -49.754  12.910  21.656  0.00  0.00     0.020 A 
ENDBRANCH   2  13
TORSDOF 3
ENDMDL
MODEL 4
REMARK VINA RESULT:      -6.7      8.168      9.543
REMARK  3 active torsions:
REMARK  status: ('A' for Active; 'I' for Inactive)
REMARK       I    between atoms: N_2  and  C_1 
REMARK    1  A    between atoms: C_3  and  C_1 
REMARK    2  A    between atoms: C_6  and  N_2 
REMARK    3  A    between atoms: C_5  and  C_4 
ROOT
ATOM      1  C   UNL d   1     -39.997  14.309  18.534  0.00  0.00     0.279 C 
ATOM      2  N   UNL d   1     -39.630  14.621  19.209  0.00  0.00    -0.207 NA
ATOM      3  O   UNL d   1     -40.815  14.221  18.517  0.00  0.00    -0.265 OA
ENDROOT
BRANCH   1   4
ATOM      4  C   UNL d   1     -39.539  14.088  17.883  0.00  0.00     0.064 A 
ATOM      5  C   UNL d   1     -39.678  14.434  17.151  0.00  0.00     0.069 A 
ATOM      6  C   UNL d   1     -39.226  14.220  16.490  0.00  0.00     0.006 A 
ATOM      7  C   UNL d   1     -38.633  13.654  16.585  0.00  0.00     0.000 A 
ATOM      8  C   UNL d   1     -38.494  13.309  17.317  0.00  0.00     0.000 A 
ATOM      9  C   UNL d   1     -38.946  13.525  17.965  0.00  0.00     0.005 A 
BRANCH   5  10
ATOM     10  C   UNL d   1     -40.276  15.001  17.067  0.00  0.00     0.211 C 
ATOM     11  O   UNL d   1     -40.087  15.808  17.083  0.00  0.00    -0.644 OA
ATOM     12  O   UNL d   1     -41.059  14.760  16.967  0.00  0.00    -0.644 OA
ENDBRANCH   5  10
ENDBRANCH   1   4
BRANCH   2  13
ATOM     13  C   UNL d   1     -40.083  14.844  19.863  0.00  0.00     0.095 A 
ATOM     14  C   UNL d   1     -39.859  15.489  20.319  0.00  0.00     0.075 A 
ATOM     15 CL   UNL d   1     -39.182  15.915  20.124  0.00  0.00    -0.081 Cl
ATOM     16  C   UNL d   1     -40.309  15.709  20.967  0.00  0.00     0.013 A 
ATOM     17  C   UNL d   1     -40.992  15.281  21.166  0.00  0.00     0.001 A 
ATOM     18  C   UNL d   1     -41.214  14.634  20.705  0.00  0.00     0.002 A 
ATOM     19  C   UNL d   1     -40.757  14.415  20.052  0.00  0.00     0.020 A 
ENDBRANCH   2  13
TORSDOF 3
ENDMDL
