MODEL 1
REMARK VINA RESULT:      -8.5      0.000      0.000
REMARK  7 active torsions:
REMARK  status: ('A' for Active; 'I' for Inactive)
REMARK    1  A    between atoms: C_5  and  C_1 
REMARK    2  A    between atoms: N_3  and  C_2 
REMARK    3  A    between atoms: C_14  and  C_5 
REMARK    4  A    between atoms: C_10  and  C_6 
REMARK    5  A    between atoms: O_19  and  C_10 
REMARK    6  A    between atoms: O_22  and  C_18 
REMARK    7  A    between atoms: C_26  and  O_19 
ROOT
ATOM      1  C   UNL d   1      53.244  32.556  53.602  0.00  0.00     0.074 A 
ATOM      2  C   UNL d   1      52.984  33.349  53.661  0.00  0.00     0.070 A 
ATOM      3  C   UNL d   1      53.264  33.835  54.267  0.00  0.00     0.036 A 
ATOM      4  C   UNL d   1      53.783  32.261  54.153  0.00  0.00     0.103 A 
ATOM      5  N   UNL d   1      54.064  32.757  54.765  0.00  0.00    -0.244 NA
ATOM      6  C   UNL d   1      53.804  33.539  54.819  0.00  0.00     0.083 A 
ATOM      7  C   UNL d   1      53.004  34.616  54.320  0.00  0.00     0.027 A 
ATOM      8  C   UNL d   1      54.084  34.024  55.425  0.00  0.00     0.021 A 
ATOM      9  C   UNL d   1      53.285  35.101  54.926  0.00  0.00     0.094 A 
ATOM     10  C   UNL d   1      53.824  34.805  55.478  0.00  0.00     0.026 A 
ENDROOT
BRANCH   2  11
ATOM     11  N   UNL d   1      52.441  33.647  53.106  0.00  0.00    -0.303 N 
ATOM     12  C   UNL d   1      51.644  33.717  53.305  0.00  0.00     0.086 A 
ATOM     13  C   UNL d   1      51.099  34.016  52.747  0.00  0.00     0.081 A 
ATOM     14  C   UNL d   1      51.357  34.242  51.997  0.00  0.00     0.008 A 
ATOM     15  C   UNL d   1      52.155  34.172  51.799  0.00  0.00     0.019 A 
ATOM     16  C   UNL d   1      52.700  33.873  52.356  0.00  0.00     0.080 A 
BRANCH  13  17
ATOM     17  C   UNL d   1      50.290  34.086  52.951  0.00  0.00     0.302 C 
ATOM     18  O   UNL d   1      49.867  33.401  53.175  0.00  0.00    -0.259 OA
BRANCH  17  19
ATOM     19  O   UNL d   1      49.921  34.823  52.930  0.00  0.00    -0.271 OA
BRANCH  19  20
ATOM     20  C   UNL d   1      49.102  34.876  53.017  0.00  0.00     0.126 C 
ATOM     21  C   UNL d   1      48.744  35.614  53.106  0.00  0.00     0.029 C 
ENDBRANCH  19  20
ENDBRANCH  17  19
ENDBRANCH  13  17
ENDBRANCH   2  11
BRANCH   1  22
ATOM     22  C   UNL d   1      52.963  32.071  52.996  0.00  0.00     0.198 C 
ATOM     23  O   UNL d   1      52.762  32.386  52.259  0.00  0.00    -0.286 OA
BRANCH  22  24
ATOM     24  C   UNL d   1      52.882  31.261  53.125  0.00  0.00     0.039 A 
ATOM     25  C   UNL d   1      53.528  30.760  53.010  0.00  0.00     0.003 A 
ATOM     26  C   UNL d   1      53.452  29.938  53.139  0.00  0.00     0.000 A 
ATOM     27  C   UNL d   1      52.721  29.639  53.383  0.00  0.00     0.000 A 
ATOM     28  C   UNL d   1      52.075  30.139  53.498  0.00  0.00     0.000 A 
ATOM     29  C   UNL d   1      52.156  30.951  53.369  0.00  0.00     0.003 A 
ENDBRANCH  22  24
ENDBRANCH   1  22
BRANCH   9  30
ATOM     30  O   UNL d   1      53.022  35.884  54.977  0.00  0.00    -0.328 OA
ATOM     31  C   UNL d   1      53.533  36.497  54.758  0.00  0.00     0.181 C 
ENDBRANCH   9  30
TORSDOF 7
ENDMDL
MODEL 2
REMARK VINA RESULT:      -6.8      1.398      4.218
REMARK  7 active torsions:
REMARK  status: ('A' for Active; 'I' for Inactive)
REMARK    1  A    between atoms: C_5  and  C_1 
REMARK    2  A    between atoms: N_3  and  C_2 
REMARK    3  A    between atoms: C_14  and  C_5 
REMARK    4  A    between atoms: C_10  and  C_6 
REMARK    5  A    between atoms: O_19  and  C_10 
REMARK    6  A    between atoms: O_22  and  C_18 
REMARK    7  A    between atoms: C_26  and  O_19 
ROOT
ATOM      1  C   UNL d   1      52.391  32.183  52.848  0.00  0.00     0.074 A 
ATOM      2  C   UNL d   1      52.999  31.785  53.262  0.00  0.00     0.070 A 
ATOM      3  C   UNL d   1      52.933  30.979  53.426  0.00  0.00     0.036 A 
ATOM      4  C   UNL d   1      51.723  31.764  52.602  0.00  0.00     0.103 A 
ATOM      5  N   UNL d   1      51.661  30.947  52.771  0.00  0.00    -0.244 NA
ATOM      6  C   UNL d   1      52.265  30.560  53.180  0.00  0.00     0.083 A 
ATOM      7  C   UNL d   1      53.536  30.593  53.836  0.00  0.00     0.027 A 
ATOM      8  C   UNL d   1      52.198  29.754  53.344  0.00  0.00     0.021 A 
ATOM      9  C   UNL d   1      53.470  29.786  53.999  0.00  0.00     0.094 A 
ATOM     10  C   UNL d   1      52.801  29.368  53.753  0.00  0.00     0.026 A 
ENDROOT
BRANCH   2  11
ATOM     11  N   UNL d   1      53.672  32.207  53.510  0.00  0.00    -0.303 N 
ATOM     12  C   UNL d   1      53.662  32.616  54.226  0.00  0.00     0.086 A 
ATOM     13  C   UNL d   1      54.338  33.039  54.474  0.00  0.00     0.081 A 
ATOM     14  C   UNL d   1      55.015  33.049  54.003  0.00  0.00     0.008 A 
ATOM     15  C   UNL d   1      55.025  32.640  53.287  0.00  0.00     0.019 A 
ATOM     16  C   UNL d   1      54.349  32.216  53.039  0.00  0.00     0.080 A 
BRANCH  13  17
ATOM     17  C   UNL d   1      54.326  33.454  55.201  0.00  0.00     0.302 C 
ATOM     18  O   UNL d   1      54.408  33.026  55.913  0.00  0.00    -0.259 OA
BRANCH  17  19
ATOM     19  O   UNL d   1      54.235  34.274  55.208  0.00  0.00    -0.271 OA
BRANCH  19  20
ATOM     20  C   UNL d   1      53.702  34.624  55.731  0.00  0.00     0.126 C 
ATOM     21  C   UNL d   1      53.370  35.357  55.550  0.00  0.00     0.029 C 
ENDBRANCH  19  20
ENDBRANCH  17  19
ENDBRANCH  13  17
ENDBRANCH   2  11
BRANCH   1  22
ATOM     22  C   UNL d   1      52.458  32.989  52.684  0.00  0.00     0.198 C 
ATOM     23  O   UNL d   1      53.188  33.325  52.494  0.00  0.00    -0.286 OA
BRANCH  22  24
ATOM     24  C   UNL d   1      51.787  33.468  52.710  0.00  0.00     0.039 A 
ATOM     25  C   UNL d   1      51.601  33.949  52.065  0.00  0.00     0.003 A 
ATOM     26  C   UNL d   1      50.923  34.438  52.086  0.00  0.00     0.000 A 
ATOM     27  C   UNL d   1      50.446  34.429  52.760  0.00  0.00     0.000 A 
ATOM     28  C   UNL d   1      50.632  33.949  53.405  0.00  0.00     0.000 A 
ATOM     29  C   UNL d   1      51.303  33.468  53.380  0.00  0.00     0.003 A 
ENDBRANCH  22  24
ENDBRANCH   1  22
BRANCH   9  30
ATOM     30  O   UNL d   1      54.076  29.402  54.410  0.00  0.00    -0.328 OA
ATOM     31  C   UNL d   1      53.897  28.736  54.867  0.00  0.00     0.181 C 
ENDBRANCH   9  30
TORSDOF 7
ENDMDL
MODEL 3
REMARK VINA RESULT:      -6.0      1.272      3.613
REMARK  7 active torsions:
REMARK  status: ('A' for Active; 'I' for Inactive)
REMARK    1  A    between atoms: C_5  and  C_1 
REMARK    2  A    between atoms: N_3  and  C_2 
REMARK    3  A    between atoms: C_14  and  C_5 
REMARK    4  A    between atoms: C_10  and  C_6 
REMARK    5  A    between atoms: O_19  and  C_10 
REMARK    6  A    between atoms: O_22  and  C_18 
REMARK    7  A    between atoms: C_26  and  O_19 
ROOT
ATOM      1  C   UNL d   1      52.387  33.967  53.296  0.00  0.00     0.074 A 
ATOM      2  C   UNL d   1      53.010  33.563  53.681  0.00  0.00     0.070 A 
ATOM      3  C   UNL d   1      53.382  33.901  54.337  0.00  0.00     0.036 A 
ATOM      4  C   UNL d   1      52.145  34.706  53.575  0.00  0.00     0.103 A 
ATOM      5  N   UNL d   1      52.525  35.043  54.240  0.00  0.00    -0.244 NA
ATOM      6  C   UNL d   1      53.139  34.639  54.616  0.00  0.00     0.083 A 
ATOM      7  C   UNL d   1      53.996  33.497  54.713  0.00  0.00     0.027 A 
ATOM      8  C   UNL d   1      53.510  34.976  55.271  0.00  0.00     0.021 A 
ATOM      9  C   UNL d   1      54.367  33.834  55.368  0.00  0.00     0.094 A 
ATOM     10  C   UNL d   1      54.125  34.573  55.647  0.00  0.00     0.026 A 
ENDROOT
BRANCH   2  11
ATOM     11  N   UNL d   1      53.254  32.820  53.400  0.00  0.00    -0.303 N 
ATOM     12  C   UNL d   1      52.909  32.133  53.698  0.00  0.00     0.086 A 
ATOM     13  C   UNL d   1      53.155  31.386  53.416  0.00  0.00     0.081 A 
ATOM     14  C   UNL d   1      53.742  31.335  52.839  0.00  0.00     0.008 A 
ATOM     15  C   UNL d   1      54.087  32.022  52.542  0.00  0.00     0.019 A 
ATOM     16  C   UNL d   1      53.842  32.769  52.824  0.00  0.00     0.080 A 
BRANCH  13  17
ATOM     17  C   UNL d   1      52.803  30.690  53.720  0.00  0.00     0.302 C 
ATOM     18  O   UNL d   1      52.027  30.491  53.484  0.00  0.00    -0.259 OA
BRANCH  17  19
ATOM     19  O   UNL d   1      53.221  30.210  54.245  0.00  0.00    -0.271 OA
BRANCH  19  20
ATOM     20  C   UNL d   1      52.950  29.450  54.413  0.00  0.00     0.126 C 
ATOM     21  C   UNL d   1      53.402  28.946  54.885  0.00  0.00     0.029 C 
ENDBRANCH  19  20
ENDBRANCH  17  19
ENDBRANCH  13  17
ENDBRANCH   2  11
BRANCH   1  22
ATOM     22  C   UNL d   1      52.016  33.630  52.640  0.00  0.00     0.198 C 
ATOM     23  O   UNL d   1      52.411  33.084  52.163  0.00  0.00    -0.286 OA
BRANCH  22  24
ATOM     24  C   UNL d   1      51.240  33.840  52.457  0.00  0.00     0.039 A 
ATOM     25  C   UNL d   1      51.073  34.204  51.735  0.00  0.00     0.003 A 
ATOM     26  C   UNL d   1      50.288  34.419  51.543  0.00  0.00     0.000 A 
ATOM     27  C   UNL d   1      49.687  34.260  52.087  0.00  0.00     0.000 A 
ATOM     28  C   UNL d   1      49.854  33.896  52.809  0.00  0.00     0.000 A 
ATOM     29  C   UNL d   1      50.631  33.686  52.993  0.00  0.00     0.003 A 
ENDBRANCH  22  24
ENDBRANCH   1  22
BRANCH   9  30
ATOM     30  O   UNL d   1      54.983  33.428  55.743  0.00  0.00    -0.328 OA
ATOM     31  C   UNL d   1      55.751  33.731  55.703  0.00  0.00     0.181 C 
ENDBRANCH   9  30
TORSDOF 7
ENDMDL
MODEL 4
REMARK VINA RESULT:      -5.9      1.373      3.922
REMARK  7 active torsions:
REMARK  status: ('A' for Active; 'I' for Inactive)
REMARK    1  A    between atoms: C_5  and  C_1 
REMARK    2  A    between atoms: N_3  and  C_2 
REMARK    3  A    between atoms: C_14  and  C_5 
REMARK    4  A    between atoms: C_10  and  C_6 
REMARK    5  A    between atoms: O_19  and  C_10 
REMARK    6  A    between atoms: O_22  and  C_18 
REMARK    7  A    between atoms: C_26  and  O_19 
ROOT
ATOM      1  C   UNL d   1      53.270  33.575  53.751  0.00  0.00     0.074 A 
ATOM      2  C   UNL d   1      52.633  33.200  53.359  0.00  0.00     0.070 A 
ATOM      3  C   UNL d   1      51.923  33.603  53.240  0.00  0.00     0.036 A 
ATOM      4  C   UNL d   1      53.184  34.351  54.020  0.00  0.00     0.103 A 
ATOM      5  N   UNL d   1      52.462  34.755  53.897  0.00  0.00    -0.244 NA
ATOM      6  C   UNL d   1      51.837  34.379  53.509  0.00  0.00     0.083 A 
ATOM      7  C   UNL d   1      51.298  33.228  52.853  0.00  0.00     0.027 A 
ATOM      8  C   UNL d   1      51.127  34.783  53.391  0.00  0.00     0.021 A 
ATOM      9  C   UNL d   1      50.588  33.631  52.734  0.00  0.00     0.094 A 
ATOM     10  C   UNL d   1      50.502  34.407  53.003  0.00  0.00     0.026 A 
ENDROOT
BRANCH   2  11
ATOM     11  N   UNL d   1      52.719  32.419  53.088  0.00  0.00    -0.303 N 
ATOM     12  C   UNL d   1      52.519  31.787  53.580  0.00  0.00     0.086 A 
ATOM     13  C   UNL d   1      52.605  31.003  53.308  0.00  0.00     0.081 A 
ATOM     14  C   UNL d   1      52.891  30.858  52.548  0.00  0.00     0.008 A 
ATOM     15  C   UNL d   1      53.092  31.489  52.057  0.00  0.00     0.019 A 
ATOM     16  C   UNL d   1      53.005  32.274  52.328  0.00  0.00     0.080 A 
BRANCH  13  17
ATOM     17  C   UNL d   1      52.401  30.363  53.808  0.00  0.00     0.302 C 
ATOM     18  O   UNL d   1      51.608  30.102  53.830  0.00  0.00    -0.259 OA
BRANCH  17  19
ATOM     19  O   UNL d   1      52.979  30.000  54.271  0.00  0.00    -0.271 OA
BRANCH  19  20
ATOM     20  C   UNL d   1      52.865  29.228  54.540  0.00  0.00     0.126 C 
ATOM     21  C   UNL d   1      53.442  28.865  55.005  0.00  0.00     0.029 C 
ENDBRANCH  19  20
ENDBRANCH  17  19
ENDBRANCH  13  17
ENDBRANCH   2  11
BRANCH   1  22
ATOM     22  C   UNL d   1      53.980  33.172  53.869  0.00  0.00     0.198 C 
ATOM     23  O   UNL d   1      54.251  32.618  53.319  0.00  0.00    -0.286 OA
BRANCH  22  24
ATOM     24  C   UNL d   1      54.428  33.322  54.545  0.00  0.00     0.039 A 
ATOM     25  C   UNL d   1      55.125  33.762  54.486  0.00  0.00     0.003 A 
ATOM     26  C   UNL d   1      55.583  33.917  55.168  0.00  0.00     0.000 A 
ATOM     27  C   UNL d   1      55.327  33.624  55.896  0.00  0.00     0.000 A 
ATOM     28  C   UNL d   1      54.631  33.184  55.955  0.00  0.00     0.000 A 
ATOM     29  C   UNL d   1      54.182  33.033  55.279  0.00  0.00     0.003 A 
ENDBRANCH  22  24
ENDBRANCH   1  22
BRANCH   9  30
ATOM     30  O   UNL d   1      49.963  33.252  52.345  0.00  0.00    -0.328 OA
ATOM     31  C   UNL d   1      49.470  33.692  51.848  0.00  0.00     0.181 C 
ENDBRANCH   9  30
TORSDOF 7
ENDMDL
