MODEL 1
REMARK VINA RESULT:      -8.3      0.000      0.000
REMARK  4 active torsions:
REMARK  status: ('A' for Active; 'I' for Inactive)
REMARK    1  A    between atoms: S_2  and  C_1 
REMARK    2  A    between atoms: C_7  and  S_2 
REMARK    3  A    between atoms: O_13  and  C_6 
REMARK    4  A    between atoms: C_17  and  O_13 
ROOT
ATOM      1  S   UNL d   1      53.168  32.672  53.770  0.00  0.00     0.228 S 
ATOM      2  O   UNL d   1      52.388  32.649  53.988  0.00  0.00    -0.216 OA
ATOM      3  O   UNL d   1      53.964  32.763  53.560  0.00  0.00    -0.216 OA
ENDROOT
BRANCH   1   4
ATOM      4  C   UNL d   1      53.193  31.897  53.621  0.00  0.00     0.188 A 
ATOM      5  N   UNL d   1      53.557  31.277  54.016  0.00  0.00    -0.203 NA
ATOM      6  C   UNL d   1      53.375  30.587  53.579  0.00  0.00     0.217 A 
ATOM      7  S   UNL d   1      52.936  30.774  52.968  0.00  0.00    -0.029 SA
ATOM      8  C   UNL d   1      52.807  31.583  52.969  0.00  0.00     0.119 A 
ATOM      9 CL   UNL d   1      52.360  32.025  52.406  0.00  0.00    -0.073 Cl
BRANCH   6  10
ATOM     10  O   UNL d   1      53.626  29.791  53.763  0.00  0.00    -0.282 OA
BRANCH  10  11
ATOM     11  C   UNL d   1      53.231  29.343  54.306  0.00  0.00     0.125 C 
ATOM     12  C   UNL d   1      53.564  28.654  54.588  0.00  0.00     0.029 C 
ENDBRANCH  10  11
ENDBRANCH   6  10
ENDBRANCH   1   4
BRANCH   1  13
ATOM     13  C   UNL d   1      53.150  33.513  53.929  0.00  0.00     0.089 A 
ATOM     14  C   UNL d   1      52.854  34.060  53.369  0.00  0.00     0.011 A 
ATOM     15  C   UNL d   1      52.843  34.852  53.530  0.00  0.00     0.001 A 
ATOM     16  C   UNL d   1      53.130  35.105  54.261  0.00  0.00     0.000 A 
ATOM     17  C   UNL d   1      53.415  34.590  54.803  0.00  0.00     0.001 A 
ATOM     18  C   UNL d   1      53.131  35.921  54.457  0.00  0.00     0.000 C 
ATOM     19  C   UNL d   1      53.437  33.773  54.660  0.00  0.00     0.011 A 
ENDBRANCH   1  13
TORSDOF 4
ENDMDL
MODEL 2
REMARK VINA RESULT:      -8.2      1.625      1.908
REMARK  4 active torsions:
REMARK  status: ('A' for Active; 'I' for Inactive)
REMARK    1  A    between atoms: S_2  and  C_1 
REMARK    2  A    between atoms: C_7  and  S_2 
REMARK    3  A    between atoms: O_13  and  C_6 
REMARK    4  A    between atoms: C_17  and  O_13 
ROOT
ATOM      1  S   UNL d   1      52.297  32.570  53.126  0.00  0.00     0.228 S 
ATOM      2  O   UNL d   1      52.280  32.831  53.893  0.00  0.00    -0.216 OA
ATOM      3  O   UNL d   1      52.269  32.351  52.327  0.00  0.00    -0.216 OA
ENDROOT
BRANCH   1   4
ATOM      4  C   UNL d   1      52.827  32.006  53.285  0.00  0.00     0.188 A 
ATOM      5  N   UNL d   1      52.757  31.191  53.337  0.00  0.00    -0.203 NA
ATOM      6  C   UNL d   1      53.520  30.906  53.524  0.00  0.00     0.217 A 
ATOM      7  S   UNL d   1      54.014  31.501  53.582  0.00  0.00    -0.029 SA
ATOM      8  C   UNL d   1      53.610  32.198  53.439  0.00  0.00     0.119 A 
ATOM      9 CL   UNL d   1      53.929  32.979  53.444  0.00  0.00    -0.073 Cl
BRANCH   6  10
ATOM     10  O   UNL d   1      53.741  30.087  53.638  0.00  0.00    -0.282 OA
BRANCH  10  11
ATOM     11  C   UNL d   1      53.276  29.584  54.064  0.00  0.00     0.125 C 
ATOM     12  C   UNL d   1      53.579  28.878  54.336  0.00  0.00     0.029 C 
ENDBRANCH  10  11
ENDBRANCH   6  10
ENDBRANCH   1   4
BRANCH   1  13
ATOM     13  C   UNL d   1      51.723  33.178  52.943  0.00  0.00     0.089 A 
ATOM     14  C   UNL d   1      51.863  33.751  52.349  0.00  0.00     0.011 A 
ATOM     15  C   UNL d   1      51.313  34.321  52.186  0.00  0.00     0.001 A 
ATOM     16  C   UNL d   1      50.612  34.321  52.621  0.00  0.00     0.000 A 
ATOM     17  C   UNL d   1      50.468  33.778  53.191  0.00  0.00     0.001 A 
ATOM     18  C   UNL d   1      50.022  34.900  52.474  0.00  0.00     0.000 C 
ATOM     19  C   UNL d   1      51.017  33.184  53.376  0.00  0.00     0.011 A 
ENDBRANCH   1  13
TORSDOF 4
ENDMDL
MODEL 3
REMARK VINA RESULT:      -8.1      2.009      2.968
REMARK  4 active torsions:
REMARK  status: ('A' for Active; 'I' for Inactive)
REMARK    1  A    between atoms: S_2  and  C_1 
REMARK    2  A    between atoms: C_7  and  S_2 
REMARK    3  A    between atoms: O_13  and  C_6 
REMARK    4  A    between atoms: C_17  and  O_13 
ROOT
ATOM      1  S   UNL d   1      52.133  33.497  53.099  0.00  0.00     0.228 S 
ATOM      2  O   UNL d   1      51.675  33.135  53.662  0.00  0.00    -0.216 OA
ATOM      3  O   UNL d   1      52.542  33.893  52.498  0.00  0.00    -0.216 OA
ENDROOT
BRANCH   1   4
ATOM      4  C   UNL d   1      52.804  33.210  53.400  0.00  0.00     0.188 A 
ATOM      5  N   UNL d   1      53.395  33.558  53.848  0.00  0.00    -0.203 NA
ATOM      6  C   UNL d   1      53.960  32.959  53.992  0.00  0.00     0.217 A 
ATOM      7  S   UNL d   1      53.730  32.299  53.656  0.00  0.00    -0.029 SA
ATOM      8  C   UNL d   1      53.014  32.425  53.281  0.00  0.00     0.119 A 
ATOM      9 CL   UNL d   1      52.563  31.860  52.846  0.00  0.00    -0.073 Cl
BRANCH   6  10
ATOM     10  O   UNL d   1      54.685  33.043  54.437  0.00  0.00    -0.282 OA
BRANCH  10  11
ATOM     11  C   UNL d   1      54.739  33.558  55.056  0.00  0.00     0.125 C 
ATOM     12  C   UNL d   1      55.469  33.815  55.313  0.00  0.00     0.029 C 
ENDBRANCH  10  11
ENDBRANCH   6  10
ENDBRANCH   1   4
BRANCH   1  13
ATOM     13  C   UNL d   1      51.410  33.814  52.767  0.00  0.00     0.089 A 
ATOM     14  C   UNL d   1      51.355  34.030  51.961  0.00  0.00     0.011 A 
ATOM     15  C   UNL d   1      50.666  34.328  51.658  0.00  0.00     0.001 A 
ATOM     16  C   UNL d   1      50.022  34.412  52.167  0.00  0.00     0.000 A 
ATOM     17  C   UNL d   1      50.065  34.208  52.940  0.00  0.00     0.001 A 
ATOM     18  C   UNL d   1      49.294  34.718  51.882  0.00  0.00     0.000 C 
ATOM     19  C   UNL d   1      50.760  33.901  53.272  0.00  0.00     0.011 A 
ENDBRANCH   1  13
TORSDOF 4
ENDMDL
MODEL 4
REMARK VINA RESULT:      -7.9      2.426      3.940
REMARK  4 active torsions:
REMARK  status: ('A' for Active; 'I' for Inactive)
REMARK    1  A    between atoms: S_2  and  C_1 
REMARK    2  A    between atoms: C_7  and  S_2 
REMARK    3  A    between atoms: O_13  and  C_6 
REMARK    4  A    between atoms: C_17  and  O_13 
ROOT
ATOM      1  S   UNL d   1      52.091  34.021  53.571  0.00  0.00     0.228 S 
ATOM      2  O   UNL d   1      52.381  34.770  53.456  0.00  0.00    -0.216 OA
ATOM      3  O   UNL d   1      51.853  33.242  53.721  0.00  0.00    -0.216 OA
ENDROOT
BRANCH   1   4
ATOM      4  C   UNL d   1      51.421  34.177  53.183  0.00  0.00     0.188 A 
ATOM      5  N   UNL d   1      50.663  34.342  53.447  0.00  0.00    -0.203 NA
ATOM      6  C   UNL d   1      50.198  34.455  52.762  0.00  0.00     0.217 A 
ATOM      7  S   UNL d   1      50.640  34.366  52.130  0.00  0.00    -0.029 SA
ATOM      8  C   UNL d   1      51.405  34.192  52.362  0.00  0.00     0.119 A 
ATOM      9 CL   UNL d   1      52.068  34.052  51.859  0.00  0.00    -0.073 Cl
BRANCH   6  10
ATOM     10  O   UNL d   1      49.364  34.642  52.740  0.00  0.00    -0.282 OA
BRANCH  10  11
ATOM     11  C   UNL d   1      49.089  35.358  52.992  0.00  0.00     0.125 C 
ATOM     12  C   UNL d   1      48.298  35.542  52.915  0.00  0.00     0.029 C 
ENDBRANCH  10  11
ENDBRANCH   6  10
ENDBRANCH   1   4
BRANCH   1  13
ATOM     13  C   UNL d   1      52.814  33.844  53.992  0.00  0.00     0.089 A 
ATOM     14  C   UNL d   1      53.178  33.092  53.945  0.00  0.00     0.011 A 
ATOM     15  C   UNL d   1      53.861  32.936  54.349  0.00  0.00     0.001 A 
ATOM     16  C   UNL d   1      54.189  33.539  54.806  0.00  0.00     0.000 A 
ATOM     17  C   UNL d   1      53.849  34.262  54.858  0.00  0.00     0.001 A 
ATOM     18  C   UNL d   1      54.898  33.408  55.236  0.00  0.00     0.000 C 
ATOM     19  C   UNL d   1      53.149  34.445  54.454  0.00  0.00     0.011 A 
ENDBRANCH   1  13
TORSDOF 4
ENDMDL
MODEL 5
REMARK VINA RESULT:      -7.9      1.389      4.151
REMARK  4 active torsions:
REMARK  status: ('A' for Active; 'I' for Inactive)
REMARK    1  A    between atoms: S_2  and  C_1 
REMARK    2  A    between atoms: C_7  and  S_2 
REMARK    3  A    between atoms: O_13  and  C_6 
REMARK    4  A    between atoms: C_17  and  O_13 
ROOT
ATOM      1  S   UNL d   1      53.487  32.191  53.908  0.00  0.00     0.228 S 
ATOM      2  O   UNL d   1      53.318  32.415  53.147  0.00  0.00    -0.216 OA
ATOM      3  O   UNL d   1      53.644  31.898  54.666  0.00  0.00    -0.216 OA
ENDROOT
BRANCH   1   4
ATOM      4  C   UNL d   1      53.651  32.930  54.134  0.00  0.00     0.188 A 
ATOM      5  N   UNL d   1      53.190  33.508  54.488  0.00  0.00    -0.203 NA
ATOM      6  C   UNL d   1      53.688  34.172  54.586  0.00  0.00     0.217 A 
ATOM      7  S   UNL d   1      54.396  34.010  54.313  0.00  0.00    -0.029 SA
ATOM      8  C   UNL d   1      54.402  33.244  54.025  0.00  0.00     0.119 A 
ATOM      9 CL   UNL d   1      55.055  32.838  53.677  0.00  0.00    -0.073 Cl
BRANCH   6  10
ATOM     10  O   UNL d   1      53.469  34.923  54.932  0.00  0.00    -0.282 OA
BRANCH  10  11
ATOM     11  C   UNL d   1      53.066  35.478  54.506  0.00  0.00     0.125 C 
ATOM     12  C   UNL d   1      52.867  36.191  54.848  0.00  0.00     0.029 C 
ENDBRANCH  10  11
ENDBRANCH   6  10
ENDBRANCH   1   4
BRANCH   1  13
ATOM     13  C   UNL d   1      53.310  31.387  53.672  0.00  0.00     0.089 A 
ATOM     14  C   UNL d   1      53.618  30.729  54.088  0.00  0.00     0.011 A 
ATOM     15  C   UNL d   1      53.444  29.974  53.855  0.00  0.00     0.001 A 
ATOM     16  C   UNL d   1      52.956  29.872  53.198  0.00  0.00     0.000 A 
ATOM     17  C   UNL d   1      52.656  30.495  52.794  0.00  0.00     0.001 A 
ATOM     18  C   UNL d   1      52.757  29.101  52.933  0.00  0.00     0.000 C 
ATOM     19  C   UNL d   1      52.820  31.278  53.014  0.00  0.00     0.011 A 
ENDBRANCH   1  13
TORSDOF 4
ENDMDL
MODEL 6
REMARK VINA RESULT:      -7.8      1.871      4.144
REMARK  4 active torsions:
REMARK  status: ('A' for Active; 'I' for Inactive)
REMARK    1  A    between atoms: S_2  and  C_1 
REMARK    2  A    between atoms: C_7  and  S_2 
REMARK    3  A    between atoms: O_13  and  C_6 
REMARK    4  A    between atoms: C_17  and  O_13 
ROOT
ATOM      1  S   UNL d   1      52.402  32.599  53.221  0.00  0.00     0.228 S 
ATOM      2  O   UNL d   1      52.384  32.452  52.423  0.00  0.00    -0.216 OA
ATOM      3  O   UNL d   1      52.453  32.689  54.042  0.00  0.00    -0.216 OA
ENDROOT
BRANCH   1   4
ATOM      4  C   UNL d   1      52.033  33.293  53.143  0.00  0.00     0.188 A 
ATOM      5  N   UNL d   1      51.238  33.490  53.132  0.00  0.00    -0.203 NA
ATOM      6  C   UNL d   1      51.207  34.319  53.033  0.00  0.00     0.217 A 
ATOM      7  S   UNL d   1      51.927  34.604  52.988  0.00  0.00    -0.029 SA
ATOM      8  C   UNL d   1      52.462  33.987  53.053  0.00  0.00     0.119 A 
ATOM      9 CL   UNL d   1      53.303  34.043  53.033  0.00  0.00    -0.073 Cl
BRANCH   6  10
ATOM     10  O   UNL d   1      50.499  34.798  52.987  0.00  0.00    -0.282 OA
BRANCH  10  11
ATOM     11  C   UNL d   1      49.852  34.549  52.574  0.00  0.00     0.125 C 
ATOM     12  C   UNL d   1      49.167  34.991  52.581  0.00  0.00     0.029 C 
ENDBRANCH  10  11
ENDBRANCH   6  10
ENDBRANCH   1   4
BRANCH   1  13
ATOM     13  C   UNL d   1      52.803  31.848  53.314  0.00  0.00     0.089 A 
ATOM     14  C   UNL d   1      53.479  31.768  53.800  0.00  0.00     0.011 A 
ATOM     15  C   UNL d   1      53.849  31.053  53.881  0.00  0.00     0.001 A 
ATOM     16  C   UNL d   1      53.540  30.407  53.470  0.00  0.00     0.000 A 
ATOM     17  C   UNL d   1      52.894  30.474  53.002  0.00  0.00     0.001 A 
ATOM     18  C   UNL d   1      53.902  29.652  53.533  0.00  0.00     0.000 C 
ATOM     19  C   UNL d   1      52.498  31.196  52.904  0.00  0.00     0.011 A 
ENDBRANCH   1  13
TORSDOF 4
ENDMDL
