MODEL 1
REMARK VINA RESULT:      39.0      0.000      0.000
REMARK  6 active torsions:
REMARK  status: ('A' for Active; 'I' for Inactive)
REMARK    1  A    between atoms: C_3  and  S_1 
REMARK    2  A    between atoms: N_12  and  S_1 
REMARK    3  A    between atoms: C_6  and  C_16 
REMARK    4  A    between atoms: C_17  and  N_12 
REMARK    5  A    between atoms: O_18  and  C_13 
REMARK    6  A    between atoms: C_16  and  C_17 
ROOT
ATOM      1  S   UNL d   1      59.864  49.509  50.319  0.00  0.00     0.285 S 
ATOM      2  O   UNL d   1      60.549  49.576  49.852  0.00  0.00    -0.198 OA
ATOM      3  O   UNL d   1      59.183  49.442  50.786  0.00  0.00    -0.198 OA
ENDROOT
BRANCH   1   4
ATOM      4  C   UNL d   1      60.333  49.402  50.987  0.00  0.00     0.105 A 
ATOM      5  C   UNL d   1      61.043  48.993  50.930  0.00  0.00     0.015 A 
ATOM      6  C   UNL d   1      61.511  48.889  51.609  0.00  0.00     0.023 A 
ATOM      7  C   UNL d   1      62.228  48.477  51.554  0.00  0.00     0.002 C 
ATOM      8  C   UNL d   1      61.267  49.191  52.325  0.00  0.00     0.094 A 
ATOM      9  C   UNL d   1      60.554  49.601  52.380  0.00  0.00     0.025 A 
ATOM     10  C   UNL d   1      60.088  49.706  51.715  0.00  0.00     0.015 A 
BRANCH   8  11
ATOM     11  O   UNL d   1      61.732  49.087  52.996  0.00  0.00    -0.328 OA
ATOM     12  C   UNL d   1      62.199  49.701  53.274  0.00  0.00     0.181 C 
ENDBRANCH   8  11
ENDBRANCH   1   4
BRANCH   1  13
ATOM     13  N   UNL d   1      59.401  49.617  49.645  0.00  0.00    -0.157 NA
BRANCH  13  14
ATOM     14  C   UNL d   1      58.719  49.139  49.534  0.00  0.00     0.114 C 
BRANCH  14  15
ATOM     15  C   UNL d   1      58.069  49.445  49.139  0.00  0.00     0.041 C 
BRANCH  15  16
ATOM     16  C   UNL d   1      57.345  49.536  49.527  0.00  0.00     0.090 A 
ATOM     17  N   UNL d   1      57.242  49.556  50.348  0.00  0.00    -0.238 NA
ATOM     18  C   UNL d   1      56.433  49.655  50.494  0.00  0.00     0.111 A 
ATOM     19  C   UNL d   1      56.070  49.706  51.242  0.00  0.00     0.028 C 
ATOM     20  S   UNL d   1      56.039  49.697  49.770  0.00  0.00    -0.066 SA
ATOM     21  C   UNL d   1      56.607  49.623  49.169  0.00  0.00     0.056 A 
ENDBRANCH  15  16
ENDBRANCH  14  15
ENDBRANCH  13  14
ENDBRANCH   1  13
TORSDOF 6
ENDMDL
MODEL 2
REMARK VINA RESULT:      41.5      1.623      2.273
REMARK  6 active torsions:
REMARK  status: ('A' for Active; 'I' for Inactive)
REMARK    1  A    between atoms: C_3  and  S_1 
REMARK    2  A    between atoms: N_12  and  S_1 
REMARK    3  A    between atoms: C_6  and  C_16 
REMARK    4  A    between atoms: C_17  and  N_12 
REMARK    5  A    between atoms: O_18  and  C_13 
REMARK    6  A    between atoms: C_16  and  C_17 
ROOT
ATOM      1  S   UNL d   1      60.301  49.031  50.835  0.00  0.00     0.285 S 
ATOM      2  O   UNL d   1      60.323  48.743  51.615  0.00  0.00    -0.198 OA
ATOM      3  O   UNL d   1      60.280  49.316  50.057  0.00  0.00    -0.198 OA
ENDROOT
BRANCH   1   4
ATOM      4  C   UNL d   1      60.824  48.439  50.604  0.00  0.00     0.105 A 
ATOM      5  C   UNL d   1      60.751  47.682  50.913  0.00  0.00     0.015 A 
ATOM      6  C   UNL d   1      61.284  47.090  50.676  0.00  0.00     0.023 A 
ATOM      7  C   UNL d   1      61.212  46.324  50.986  0.00  0.00     0.002 C 
ATOM      8  C   UNL d   1      61.874  47.260  50.141  0.00  0.00     0.094 A 
ATOM      9  C   UNL d   1      61.946  48.021  49.832  0.00  0.00     0.025 A 
ATOM     10  C   UNL d   1      61.424  48.608  50.062  0.00  0.00     0.015 A 
BRANCH   8  11
ATOM     11  O   UNL d   1      62.400  46.672  49.907  0.00  0.00    -0.328 OA
ATOM     12  C   UNL d   1      62.495  46.495  49.111  0.00  0.00     0.181 C 
ENDBRANCH   8  11
ENDBRANCH   1   4
BRANCH   1  13
ATOM     13  N   UNL d   1      59.776  49.621  51.074  0.00  0.00    -0.157 NA
BRANCH  13  14
ATOM     14  C   UNL d   1      59.024  49.677  50.703  0.00  0.00     0.114 C 
BRANCH  14  15
ATOM     15  C   UNL d   1      58.346  49.707  51.163  0.00  0.00     0.041 C 
BRANCH  15  16
ATOM     16  C   UNL d   1      57.598  49.685  50.812  0.00  0.00     0.090 A 
ATOM     17  N   UNL d   1      57.452  49.695  49.998  0.00  0.00    -0.238 NA
ATOM     18  C   UNL d   1      56.631  49.665  49.893  0.00  0.00     0.111 A 
ATOM     19  C   UNL d   1      56.227  49.664  49.165  0.00  0.00     0.028 C 
ATOM     20  S   UNL d   1      56.273  49.636  50.636  0.00  0.00    -0.066 SA
ATOM     21  C   UNL d   1      56.875  49.648  51.208  0.00  0.00     0.056 A 
ENDBRANCH  15  16
ENDBRANCH  14  15
ENDBRANCH  13  14
ENDBRANCH   1  13
TORSDOF 6
ENDMDL
