MODEL 1
REMARK VINA RESULT:      53.2      0.000      0.000
REMARK  3 active torsions:
REMARK  status: ('A' for Active; 'I' for Inactive)
REMARK    1  A    between atoms: N_2  and  S_1 
REMARK    2  A    between atoms: C_4  and  S_1 
REMARK    3  A    between atoms: C_11  and  C_3 
ROOT
ATOM      1  N   UNL d   1      59.939  49.470  51.679  0.00  0.00    -0.213 N 
ATOM      2  C   UNL d   1      60.712  49.249  51.478  0.00  0.00     0.157 A 
ATOM      3  N   UNL d   1      61.177  49.335  52.156  0.00  0.00    -0.224 NA
ATOM      4  C   UNL d   1      59.931  49.690  52.474  0.00  0.00     0.114 A 
ATOM      5  C   UNL d   1      60.698  49.605  52.767  0.00  0.00     0.120 A 
ENDROOT
BRANCH   1   6
ATOM      6  S   UNL d   1      59.289  49.470  51.170  0.00  0.00     0.273 S 
ATOM      7  O   UNL d   1      58.797  49.262  51.798  0.00  0.00    -0.200 OA
ATOM      8  O   UNL d   1      59.779  49.676  50.544  0.00  0.00    -0.200 OA
BRANCH   6   9
ATOM      9  C   UNL d   1      58.642  49.470  50.663  0.00  0.00     0.104 A 
ATOM     10  C   UNL d   1      57.898  49.233  50.934  0.00  0.00     0.015 A 
ATOM     11  C   UNL d   1      57.243  49.230  50.431  0.00  0.00     0.028 A 
ATOM     12  C   UNL d   1      56.508  48.994  50.705  0.00  0.00     0.002 C 
ATOM     13  C   UNL d   1      57.340  49.470  49.642  0.00  0.00     0.140 A 
ATOM     14  C   UNL d   1      58.075  49.706  49.369  0.00  0.00     0.030 A 
ATOM     15  F   UNL d   1      56.693  49.470  49.135  0.00  0.00    -0.204 F 
ATOM     16  C   UNL d   1      58.726  49.706  49.879  0.00  0.00     0.015 A 
ENDBRANCH   6   9
ENDBRANCH   1   6
BRANCH   2  17
ATOM     17  C   UNL d   1      60.969  48.990  50.740  0.00  0.00     0.035 A 
ATOM     18  C   UNL d   1      60.955  48.185  50.555  0.00  0.00     0.003 A 
ATOM     19  C   UNL d   1      61.212  47.923  49.816  0.00  0.00     0.000 A 
ATOM     20  C   UNL d   1      61.484  48.470  49.262  0.00  0.00     0.000 A 
ATOM     21  C   UNL d   1      61.497  49.276  49.448  0.00  0.00     0.000 A 
ATOM     22  C   UNL d   1      61.240  49.535  50.186  0.00  0.00     0.003 A 
ENDBRANCH   2  17
TORSDOF 3
ENDMDL
