MODEL 1
REMARK VINA RESULT:      56.7      0.000      0.000
REMARK  4 active torsions:
REMARK  status: ('A' for Active; 'I' for Inactive)
REMARK    1  A    between atoms: N_8  and  C_1 
REMARK    2  A    between atoms: C_13  and  N_4 
REMARK    3  A    between atoms: C_6  and  N_8 
REMARK    4  A    between atoms: C_14  and  C_9 
ROOT
ATOM      1  C   UNL d   1     -50.227  26.161  33.319  0.00  0.00     0.135 A 
ATOM      2  C   UNL d   1     -51.037  25.977  33.330  0.00  0.00     0.296 A 
ATOM      3  N   UNL d   1     -50.348  24.838  33.326  0.00  0.00    -0.238 N 
ATOM      4  N   UNL d   1     -51.109  25.158  33.334  0.00  0.00    -0.209 N 
ATOM      5  C   UNL d   1     -49.817  25.458  33.317  0.00  0.00     0.102 A 
ATOM      6  O   UNL d   1     -51.651  26.517  33.335  0.00  0.00    -0.264 OA
ATOM      7  C   UNL d   1     -50.162  24.040  33.328  0.00  0.00     0.120 C 
ATOM      8  C   UNL d   1     -48.989  25.380  33.308  0.00  0.00     0.022 C 
ENDROOT
BRANCH   1   9
ATOM      9  N   UNL d   1     -49.906  26.921  33.312  0.00  0.00    -0.329 N 
ATOM     10  H   UNL d   1     -49.906  27.360  32.610  0.00  0.00     0.168 HD
BRANCH   9  11
ATOM     11  C   UNL d   1     -49.589  27.241  33.994  0.00  0.00     0.172 A 
ATOM     12  N   UNL d   1     -49.014  27.823  34.037  0.00  0.00    -0.222 NA
ATOM     13  C   UNL d   1     -48.862  27.975  34.836  0.00  0.00     0.090 A 
ATOM     14  C   UNL d   1     -49.345  27.487  35.280  0.00  0.00     0.057 A 
ATOM     15  S   UNL d   1     -49.799  27.028  34.760  0.00  0.00    -0.048 SA
BRANCH  13  16
ATOM     16  C   UNL d   1     -48.321  28.522  35.124  0.00  0.00     0.018 A 
ATOM     17  C   UNL d   1     -48.574  29.202  35.519  0.00  0.00     0.002 A 
ATOM     18  C   UNL d   1     -48.024  29.742  35.804  0.00  0.00     0.000 A 
ATOM     19  C   UNL d   1     -47.224  29.607  35.694  0.00  0.00     0.000 A 
ATOM     20  C   UNL d   1     -46.965  28.942  35.307  0.00  0.00     0.000 A 
ATOM     21  C   UNL d   1     -47.506  28.389  35.015  0.00  0.00     0.002 A 
ENDBRANCH  13  16
ENDBRANCH   9  11
ENDBRANCH   1   9
BRANCH   4  22
ATOM     22  C   UNL d   1     -51.809  24.732  33.345  0.00  0.00     0.085 A 
ATOM     23  C   UNL d   1     -52.534  25.124  33.390  0.00  0.00     0.019 A 
ATOM     24  C   UNL d   1     -53.232  24.686  33.400  0.00  0.00     0.002 A 
ATOM     25  C   UNL d   1     -53.206  23.863  33.364  0.00  0.00     0.000 A 
ATOM     26  C   UNL d   1     -52.481  23.471  33.319  0.00  0.00     0.002 A 
ATOM     27  C   UNL d   1     -51.782  23.902  33.309  0.00  0.00     0.019 A 
ENDBRANCH   4  22
TORSDOF 4
ENDMDL
