MODEL 1
REMARK VINA RESULT:      95.4      0.000      0.000
REMARK  6 active torsions:
REMARK  status: ('A' for Active; 'I' for Inactive)
REMARK    1  A    between atoms: C_8  and  C_1 
REMARK    2  A    between atoms: C_13  and  N_2 
REMARK    3  A    between atoms: C_7  and  C_4 
REMARK    4  A    between atoms: C_6  and  C_8 
REMARK    5  A    between atoms: C_21  and  C_13 
REMARK    6  A    between atoms: N_22  and  C_21 
ROOT
ATOM      1  C   UNL d   1     -58.321 -99.202 -45.087  0.00  0.00     0.103 A 
ATOM      2  N   UNL d   1     -58.484 -98.915 -43.794  0.00  0.00    -0.267 N 
ATOM      3  C   UNL d   1     -59.131 -99.109 -44.945  0.00  0.00     0.256 A 
ATOM      4  C   UNL d   1     -57.926 -99.081 -44.378  0.00  0.00     0.096 A 
ATOM      5  C   UNL d   1     -59.231 -98.932 -44.144  0.00  0.00     0.304 A 
ATOM      6  O   UNL d   1     -59.957 -98.796 -43.769  0.00  0.00    -0.263 OA
ATOM      7  O   UNL d   1     -59.739 -99.181 -45.505  0.00  0.00    -0.281 OA
ENDROOT
BRANCH   1   8
ATOM      8  C   UNL d   1     -57.978 -99.382 -45.811  0.00  0.00     0.223 C 
ATOM      9  O   UNL d   1     -57.161 -99.504 -45.863  0.00  0.00    -0.284 OA
BRANCH   8  10
ATOM     10  C   UNL d   1     -58.438 -99.444 -46.495  0.00  0.00     0.139 A 
ATOM     11  O   UNL d   1     -58.678-100.143 -46.865  0.00  0.00    -0.304 OA
ATOM     12  C   UNL d   1     -59.126 -99.938 -47.527  0.00  0.00     0.100 A 
ATOM     13  C   UNL d   1     -59.501-100.394 -48.093  0.00  0.00     0.025 A 
ATOM     14  C   UNL d   1     -59.164 -99.120 -47.567  0.00  0.00     0.025 A 
ATOM     15  C   UNL d   1     -59.914-100.034 -48.699  0.00  0.00     0.002 A 
ATOM     16  C   UNL d   1     -59.953 -99.217 -48.741  0.00  0.00     0.000 A 
ATOM     17  C   UNL d   1     -59.579 -98.756 -48.177  0.00  0.00     0.002 A 
ATOM     18  C   UNL d   1     -58.737 -98.816 -46.926  0.00  0.00     0.030 A 
ENDBRANCH   8  10
ENDBRANCH   1   8
BRANCH   4  19
ATOM     19  C   UNL d   1     -57.098 -99.122 -44.269  0.00  0.00     0.116 A 
ATOM     20  O   UNL d   1     -56.510 -99.481 -44.720  0.00  0.00    -0.306 OA
ATOM     21  C   UNL d   1     -55.792 -99.346 -44.353  0.00  0.00     0.100 A 
ATOM     22  C   UNL d   1     -55.052 -99.607 -44.615  0.00  0.00     0.027 C 
ATOM     23  C   UNL d   1     -55.924 -98.902 -43.671  0.00  0.00     0.027 A 
ATOM     24  C   UNL d   1     -56.741 -98.762 -43.617  0.00  0.00     0.028 A 
ENDBRANCH   4  19
BRANCH   2  25
ATOM     25  C   UNL d   1     -58.331 -98.757 -42.998  0.00  0.00     0.102 C 
BRANCH  25  26
ATOM     26  C   UNL d   1     -58.951 -98.761 -42.449  0.00  0.00     0.100 C 
BRANCH  26  27
ATOM     27  N   UNL d   1     -58.851 -99.112 -41.706  0.00  0.00    -0.299 N 
ATOM     28  C   UNL d   1     -59.193 -98.765 -41.040  0.00  0.00     0.100 C 
ATOM     29  C   UNL d   1     -58.412 -99.803 -41.641  0.00  0.00     0.100 C 
ENDBRANCH  26  27
ENDBRANCH  25  26
ENDBRANCH   2  25
TORSDOF 6
ENDMDL
MODEL 2
REMARK VINA RESULT:      95.8      1.222      4.334
REMARK  6 active torsions:
REMARK  status: ('A' for Active; 'I' for Inactive)
REMARK    1  A    between atoms: C_8  and  C_1 
REMARK    2  A    between atoms: C_13  and  N_2 
REMARK    3  A    between atoms: C_7  and  C_4 
REMARK    4  A    between atoms: C_6  and  C_8 
REMARK    5  A    between atoms: C_21  and  C_13 
REMARK    6  A    between atoms: N_22  and  C_21 
ROOT
ATOM      1  C   UNL d   1     -58.009 -99.077 -44.397  0.00  0.00     0.103 A 
ATOM      2  N   UNL d   1     -58.155 -99.009 -45.721  0.00  0.00    -0.267 N 
ATOM      3  C   UNL d   1     -58.807 -98.934 -44.560  0.00  0.00     0.256 A 
ATOM      4  C   UNL d   1     -57.611 -99.122 -45.114  0.00  0.00     0.096 A 
ATOM      5  C   UNL d   1     -58.898 -98.892 -45.379  0.00  0.00     0.304 A 
ATOM      6  O   UNL d   1     -59.611 -98.756 -45.778  0.00  0.00    -0.263 OA
ATOM      7  O   UNL d   1     -59.414 -98.848 -44.000  0.00  0.00    -0.281 OA
ENDROOT
BRANCH   1   8
ATOM      8  C   UNL d   1     -57.677 -99.158 -43.650  0.00  0.00     0.223 C 
ATOM      9  O   UNL d   1     -56.869 -99.322 -43.571  0.00  0.00    -0.284 OA
BRANCH   8  10
ATOM     10  C   UNL d   1     -58.140 -99.078 -42.970  0.00  0.00     0.139 A 
ATOM     11  O   UNL d   1     -58.954 -98.941 -42.941  0.00  0.00    -0.304 OA
ATOM     12  C   UNL d   1     -59.176 -98.902 -42.148  0.00  0.00     0.100 A 
ATOM     13  C   UNL d   1     -59.902 -98.779 -41.791  0.00  0.00     0.025 A 
ATOM     14  C   UNL d   1     -58.507 -99.014 -41.688  0.00  0.00     0.025 A 
ATOM     15  C   UNL d   1     -59.960 -98.767 -40.976  0.00  0.00     0.002 A 
ATOM     16  C   UNL d   1     -59.292 -98.879 -40.515  0.00  0.00     0.000 A 
ATOM     17  C   UNL d   1     -58.563 -99.003 -40.868  0.00  0.00     0.002 A 
ATOM     18  C   UNL d   1     -57.866 -99.123 -42.200  0.00  0.00     0.030 A 
ENDBRANCH   8  10
ENDBRANCH   1   8
BRANCH   4  19
ATOM     19  C   UNL d   1     -56.792 -99.260 -45.207  0.00  0.00     0.116 A 
ATOM     20  O   UNL d   1     -56.303 -99.847 -44.901  0.00  0.00    -0.306 OA
ATOM     21  C   UNL d   1     -55.544 -99.715 -45.174  0.00  0.00     0.100 A 
ATOM     22  C   UNL d   1     -54.876-100.171 -45.004  0.00  0.00     0.027 C 
ATOM     23  C   UNL d   1     -55.551 -99.044 -45.654  0.00  0.00     0.027 A 
ATOM     24  C   UNL d   1     -56.331 -98.759 -45.675  0.00  0.00     0.028 A 
ENDBRANCH   4  19
BRANCH   2  25
ATOM     25  C   UNL d   1     -57.996 -99.010 -46.532  0.00  0.00     0.102 C 
BRANCH  25  26
ATOM     26  C   UNL d   1     -58.577 -98.763 -47.068  0.00  0.00     0.100 C 
BRANCH  26  27
ATOM     27  N   UNL d   1     -58.692 -99.172 -47.778  0.00  0.00    -0.299 N 
ATOM     28  C   UNL d   1     -58.949 -99.956 -47.762  0.00  0.00     0.100 C 
ATOM     29  C   UNL d   1     -58.549 -98.792 -48.493  0.00  0.00     0.100 C 
ENDBRANCH  26  27
ENDBRANCH  25  26
ENDBRANCH   2  25
TORSDOF 6
ENDMDL
