MODEL 1
REMARK VINA RESULT:      45.9      0.000      0.000
REMARK  5 active torsions:
REMARK  status: ('A' for Active; 'I' for Inactive)
REMARK    1  A    between atoms: O_4  and  C_1 
REMARK    2  A    between atoms: C_9  and  C_2 
REMARK    3  A    between atoms: C_5  and  O_4 
REMARK    4  A    between atoms: C_13  and  C_5 
REMARK    5  A    between atoms: N_10  and  C_9 
ROOT
ATOM      1  C   UNL d   1      14.513  13.419  -2.057  0.00  0.00     0.122 A 
ATOM      2  C   UNL d   1      14.431  14.232  -2.014  0.00  0.00     0.043 A 
ATOM      3  C   UNL d   1      14.831  13.003  -1.427  0.00  0.00     0.105 A 
ATOM      4  C   UNL d   1      15.068  13.405  -0.745  0.00  0.00     0.030 A 
ATOM      5  C   UNL d   1      14.986  14.219  -0.703  0.00  0.00     0.059 A 
ATOM      6  C   UNL d   1      14.669  14.635  -1.333  0.00  0.00     0.015 A 
ATOM      7  N   UNL d   1      14.911  12.195  -1.472  0.00  0.00    -0.242 NA
ATOM      8 CL   UNL d   1      15.229  14.595  -0.017  0.00  0.00    -0.082 Cl
ATOM      9  C   UNL d   1      15.383  12.995  -0.118  0.00  0.00     0.004 A 
ATOM     10  C   UNL d   1      15.228  11.779  -0.842  0.00  0.00     0.099 A 
ATOM     11  C   UNL d   1      15.466  12.181  -0.161  0.00  0.00     0.021 A 
ENDROOT
BRANCH   1  12
ATOM     12  O   UNL d   1      14.303  13.047  -2.665  0.00  0.00    -0.271 OA
BRANCH  12  13
ATOM     13  C   UNL d   1      13.640  12.424  -2.960  0.00  0.00     0.300 C 
ATOM     14  O   UNL d   1      13.053  12.069  -2.236  0.00  0.00    -0.259 OA
BRANCH  13  15
ATOM     15  C   UNL d   1      13.575  12.210  -3.755  0.00  0.00     0.064 A 
ATOM     16  C   UNL d   1      12.833  12.017  -4.065  0.00  0.00     0.005 A 
ATOM     17  C   UNL d   1      12.770  11.802  -4.863  0.00  0.00     0.000 A 
ATOM     18  C   UNL d   1      13.445  11.779  -5.352  0.00  0.00     0.000 A 
ATOM     19  C   UNL d   1      14.180  11.974  -5.028  0.00  0.00     0.000 A 
ATOM     20  C   UNL d   1      14.243  12.189  -4.230  0.00  0.00     0.005 A 
ENDBRANCH  13  15
ENDBRANCH  12  13
ENDBRANCH   1  12
BRANCH   2  21
ATOM     21  C   UNL d   1      14.112  14.850  -2.590  0.00  0.00     0.082 C 
BRANCH  21  22
ATOM     22  N   UNL d   1      14.491  15.558  -2.683  0.00  0.00    -0.299 N 
ATOM     23  C   UNL d   1      14.594  16.058  -2.052  0.00  0.00     0.107 A 
ATOM     24  C   UNL d   1      14.981  16.781  -2.143  0.00  0.00     0.142 A 
ATOM     25  O   UNL d   1      15.263  16.994  -2.880  0.00  0.00    -0.300 OA
ATOM     26  C   UNL d   1      15.159  16.488  -3.521  0.00  0.00     0.142 A 
ATOM     27  C   UNL d   1      14.776  15.778  -3.417  0.00  0.00     0.107 A 
ENDBRANCH  21  22
ENDBRANCH   2  21
TORSDOF 5
ENDMDL
MODEL 2
REMARK VINA RESULT:      46.8      1.542      3.272
REMARK  5 active torsions:
REMARK  status: ('A' for Active; 'I' for Inactive)
REMARK    1  A    between atoms: O_4  and  C_1 
REMARK    2  A    between atoms: C_9  and  C_2 
REMARK    3  A    between atoms: C_5  and  O_4 
REMARK    4  A    between atoms: C_13  and  C_5 
REMARK    5  A    between atoms: N_10  and  C_9 
ROOT
ATOM      1  C   UNL d   1      13.587  13.488  -3.201  0.00  0.00     0.122 A 
ATOM      2  C   UNL d   1      13.506  14.302  -3.223  0.00  0.00     0.043 A 
ATOM      3  C   UNL d   1      13.412  13.038  -3.862  0.00  0.00     0.105 A 
ATOM      4  C   UNL d   1      13.152  13.407  -4.554  0.00  0.00     0.030 A 
ATOM      5  C   UNL d   1      13.070  14.222  -4.576  0.00  0.00     0.059 A 
ATOM      6  C   UNL d   1      13.246  14.671  -3.915  0.00  0.00     0.015 A 
ATOM      7  N   UNL d   1      13.494  12.230  -3.837  0.00  0.00    -0.242 NA
ATOM      8 CL   UNL d   1      12.811  14.564  -5.273  0.00  0.00    -0.082 Cl
ATOM      9  C   UNL d   1      12.977  12.963  -5.212  0.00  0.00     0.004 A 
ATOM     10  C   UNL d   1      13.319  11.780  -4.499  0.00  0.00     0.099 A 
ATOM     11  C   UNL d   1      13.059  12.149  -5.190  0.00  0.00     0.021 A 
ENDROOT
BRANCH   1  12
ATOM     12  O   UNL d   1      13.821  13.146  -2.584  0.00  0.00    -0.271 OA
BRANCH  12  13
ATOM     13  C   UNL d   1      13.675  12.346  -2.080  0.00  0.00     0.300 C 
ATOM     14  O   UNL d   1      12.924  11.779  -2.408  0.00  0.00    -0.259 OA
BRANCH  13  15
ATOM     15  C   UNL d   1      14.146  12.158  -1.427  0.00  0.00     0.064 A 
ATOM     16  C   UNL d   1      13.809  12.148  -0.672  0.00  0.00     0.005 A 
ATOM     17  C   UNL d   1      14.282  11.959  -0.018  0.00  0.00     0.000 A 
ATOM     18  C   UNL d   1      15.091  11.780  -0.117  0.00  0.00     0.000 A 
ATOM     19  C   UNL d   1      15.414  11.794  -0.877  0.00  0.00     0.000 A 
ATOM     20  C   UNL d   1      14.940  11.983  -1.531  0.00  0.00     0.005 A 
ENDBRANCH  13  15
ENDBRANCH  12  13
ENDBRANCH   1  12
BRANCH   2  21
ATOM     21  C   UNL d   1      13.647  14.952  -2.612  0.00  0.00     0.082 C 
BRANCH  21  22
ATOM     22  N   UNL d   1      14.223  15.508  -2.729  0.00  0.00    -0.299 N 
ATOM     23  C   UNL d   1      14.335  15.837  -3.463  0.00  0.00     0.107 A 
ATOM     24  C   UNL d   1      14.922  16.404  -3.587  0.00  0.00     0.142 A 
ATOM     25  O   UNL d   1      15.394  16.634  -2.961  0.00  0.00    -0.300 OA
ATOM     26  C   UNL d   1      15.281  16.301  -2.217  0.00  0.00     0.142 A 
ATOM     27  C   UNL d   1      14.698  15.743  -2.109  0.00  0.00     0.107 A 
ENDBRANCH  21  22
ENDBRANCH   2  21
TORSDOF 5
ENDMDL
