MODEL 1
REMARK VINA RESULT:      -6.5      0.000      0.000
REMARK  4 active torsions:
REMARK  status: ('A' for Active; 'I' for Inactive)
REMARK    1  A    between atoms: N_5  and  C_1 
REMARK    2  A    between atoms: C_4  and  N_6 
REMARK    3  A    between atoms: N_11  and  C_4 
REMARK    4  A    between atoms: N_6  and  N_5 
ROOT
ATOM      1  C   UNL d   1      53.790  32.660  53.885  0.00  0.00     0.768 A 
ATOM      2  N   UNL d   1      53.247  33.252  53.710  0.00  0.00    -0.058 NA
ATOM      3  N   UNL d   1      54.404  32.809  54.422  0.00  0.00    -0.058 NA
ATOM      4  C   UNL d   1      53.311  33.995  54.066  0.00  0.00     0.102 A 
ATOM      5  C   UNL d   1      54.467  33.552  54.778  0.00  0.00     0.102 A 
ATOM      6  C   UNL d   1      53.924  34.144  54.602  0.00  0.00     0.040 A 
ATOM      7  C   UNL d   1      55.078  33.702  55.312  0.00  0.00     0.021 C 
ATOM      8  C   UNL d   1      52.764  34.588  53.889  0.00  0.00     0.021 C 
ENDROOT
BRANCH   1   9
ATOM      9  N   UNL d   1      53.726  31.921  53.530  0.00  0.00     0.049 NA
BRANCH   9  10
ATOM     10  N   UNL d   1      53.302  31.324  53.905  0.00  0.00    -0.101 NA
BRANCH  10  11
ATOM     11  C   UNL d   1      53.262  30.580  53.566  0.00  0.00     0.241 C 
ATOM     12  S   UNL d   1      52.842  30.469  52.871  0.00  0.00    -0.035 SA
BRANCH  11  13
ATOM     13  N   UNL d   1      53.642  29.947  53.922  0.00  0.00    -0.213 NA
ATOM     14  C   UNL d   1      53.228  29.256  54.084  0.00  0.00     0.122 C 
ENDBRANCH  11  13
ENDBRANCH  10  11
ENDBRANCH   9  10
ENDBRANCH   1   9
TORSDOF 4
ENDMDL
MODEL 2
REMARK VINA RESULT:      -6.3      1.877      3.329
REMARK  4 active torsions:
REMARK  status: ('A' for Active; 'I' for Inactive)
REMARK    1  A    between atoms: N_5  and  C_1 
REMARK    2  A    between atoms: C_4  and  N_6 
REMARK    3  A    between atoms: N_11  and  C_4 
REMARK    4  A    between atoms: N_6  and  N_5 
ROOT
ATOM      1  C   UNL d   1      52.906  32.843  53.384  0.00  0.00     0.768 A 
ATOM      2  N   UNL d   1      53.372  33.167  53.978  0.00  0.00    -0.058 NA
ATOM      3  N   UNL d   1      52.957  32.034  53.213  0.00  0.00    -0.058 NA
ATOM      4  C   UNL d   1      53.892  32.689  54.407  0.00  0.00     0.102 A 
ATOM      5  C   UNL d   1      53.478  31.556  53.642  0.00  0.00     0.102 A 
ATOM      6  C   UNL d   1      53.944  31.880  54.236  0.00  0.00     0.040 A 
ATOM      7  C   UNL d   1      53.531  30.750  53.474  0.00  0.00     0.021 C 
ATOM      8  C   UNL d   1      54.360  33.016  55.003  0.00  0.00     0.021 C 
ENDROOT
BRANCH   1   9
ATOM      9  N   UNL d   1      52.388  33.320  52.958  0.00  0.00     0.049 NA
BRANCH   9  10
ATOM     10  N   UNL d   1      51.628  33.456  53.244  0.00  0.00    -0.101 NA
BRANCH  10  11
ATOM     11  C   UNL d   1      51.110  33.921  52.815  0.00  0.00     0.241 C 
ATOM     12  S   UNL d   1      51.351  34.260  52.110  0.00  0.00    -0.035 SA
BRANCH  11  13
ATOM     13  N   UNL d   1      50.349  34.049  53.093  0.00  0.00    -0.213 NA
ATOM     14  C   UNL d   1      49.855  34.584  52.711  0.00  0.00     0.122 C 
ENDBRANCH  11  13
ENDBRANCH  10  11
ENDBRANCH   9  10
ENDBRANCH   1   9
TORSDOF 4
ENDMDL
MODEL 3
REMARK VINA RESULT:      -6.3      1.877      3.261
REMARK  4 active torsions:
REMARK  status: ('A' for Active; 'I' for Inactive)
REMARK    1  A    between atoms: N_5  and  C_1 
REMARK    2  A    between atoms: C_4  and  N_6 
REMARK    3  A    between atoms: N_11  and  C_4 
REMARK    4  A    between atoms: N_6  and  N_5 
ROOT
ATOM      1  C   UNL d   1      52.914  32.856  53.368  0.00  0.00     0.768 A 
ATOM      2  N   UNL d   1      52.962  32.052  53.205  0.00  0.00    -0.058 NA
ATOM      3  N   UNL d   1      53.388  33.186  53.963  0.00  0.00    -0.058 NA
ATOM      4  C   UNL d   1      53.481  31.571  53.631  0.00  0.00     0.102 A 
ATOM      5  C   UNL d   1      53.907  32.704  54.390  0.00  0.00     0.102 A 
ATOM      6  C   UNL d   1      53.955  31.900  54.226  0.00  0.00     0.040 A 
ATOM      7  C   UNL d   1      54.379  33.031  54.982  0.00  0.00     0.021 C 
ATOM      8  C   UNL d   1      53.529  30.763  53.466  0.00  0.00     0.021 C 
ENDROOT
BRANCH   1   9
ATOM      9  N   UNL d   1      52.397  33.335  52.943  0.00  0.00     0.049 NA
BRANCH   9  10
ATOM     10  N   UNL d   1      51.643  33.483  53.238  0.00  0.00    -0.101 NA
BRANCH  10  11
ATOM     11  C   UNL d   1      51.119  33.935  52.801  0.00  0.00     0.241 C 
ATOM     12  S   UNL d   1      51.356  34.266  52.090  0.00  0.00    -0.035 SA
BRANCH  11  13
ATOM     13  N   UNL d   1      50.356  34.057  53.076  0.00  0.00    -0.213 NA
ATOM     14  C   UNL d   1      49.861  34.591  52.694  0.00  0.00     0.122 C 
ENDBRANCH  11  13
ENDBRANCH  10  11
ENDBRANCH   9  10
ENDBRANCH   1   9
TORSDOF 4
ENDMDL
MODEL 4
REMARK VINA RESULT:      -6.1      1.182      1.617
REMARK  4 active torsions:
REMARK  status: ('A' for Active; 'I' for Inactive)
REMARK    1  A    between atoms: N_5  and  C_1 
REMARK    2  A    between atoms: C_4  and  N_6 
REMARK    3  A    between atoms: N_11  and  C_4 
REMARK    4  A    between atoms: N_6  and  N_5 
ROOT
ATOM      1  C   UNL d   1      52.642  32.968  53.013  0.00  0.00     0.768 A 
ATOM      2  N   UNL d   1      51.926  33.212  52.689  0.00  0.00    -0.058 NA
ATOM      3  N   UNL d   1      53.083  33.491  53.481  0.00  0.00    -0.058 NA
ATOM      4  C   UNL d   1      51.645  33.977  52.829  0.00  0.00     0.102 A 
ATOM      5  C   UNL d   1      52.801  34.255  53.621  0.00  0.00     0.102 A 
ATOM      6  C   UNL d   1      52.086  34.499  53.297  0.00  0.00     0.040 A 
ATOM      7  C   UNL d   1      53.239  34.777  54.086  0.00  0.00     0.021 C 
ATOM      8  C   UNL d   1      50.926  34.220  52.504  0.00  0.00     0.021 C 
ENDROOT
BRANCH   1   9
ATOM      9  N   UNL d   1      52.921  32.207  52.873  0.00  0.00     0.049 NA
BRANCH   9  10
ATOM     10  N   UNL d   1      52.652  31.583  53.335  0.00  0.00    -0.101 NA
BRANCH  10  11
ATOM     11  C   UNL d   1      52.992  30.842  53.256  0.00  0.00     0.241 C 
ATOM     12  S   UNL d   1      52.895  30.420  52.561  0.00  0.00    -0.035 SA
BRANCH  11  13
ATOM     13  N   UNL d   1      53.429  30.524  53.872  0.00  0.00    -0.213 NA
ATOM     14  C   UNL d   1      53.417  29.714  54.010  0.00  0.00     0.122 C 
ENDBRANCH  11  13
ENDBRANCH  10  11
ENDBRANCH   9  10
ENDBRANCH   1   9
TORSDOF 4
ENDMDL
MODEL 5
REMARK VINA RESULT:      -5.2      1.419      3.570
REMARK  4 active torsions:
REMARK  status: ('A' for Active; 'I' for Inactive)
REMARK    1  A    between atoms: N_5  and  C_1 
REMARK    2  A    between atoms: C_4  and  N_6 
REMARK    3  A    between atoms: N_11  and  C_4 
REMARK    4  A    between atoms: N_6  and  N_5 
ROOT
ATOM      1  C   UNL d   1      53.291  31.161  54.106  0.00  0.00     0.768 A 
ATOM      2  N   UNL d   1      53.144  31.054  53.304  0.00  0.00    -0.058 NA
ATOM      3  N   UNL d   1      53.366  30.503  54.604  0.00  0.00    -0.058 NA
ATOM      4  C   UNL d   1      53.071  30.292  52.992  0.00  0.00     0.102 A 
ATOM      5  C   UNL d   1      53.294  29.741  54.292  0.00  0.00     0.102 A 
ATOM      6  C   UNL d   1      53.147  29.633  53.490  0.00  0.00     0.040 A 
ATOM      7  C   UNL d   1      53.369  29.085  54.786  0.00  0.00     0.021 C 
ATOM      8  C   UNL d   1      52.924  30.186  52.187  0.00  0.00     0.021 C 
ENDROOT
BRANCH   1   9
ATOM      9  N   UNL d   1      53.363  31.920  54.415  0.00  0.00     0.049 NA
BRANCH   9  10
ATOM     10  N   UNL d   1      54.068  32.333  54.323  0.00  0.00    -0.101 NA
BRANCH  10  11
ATOM     11  C   UNL d   1      54.161  33.064  54.679  0.00  0.00     0.241 C 
ATOM     12  S   UNL d   1      53.650  33.677  54.493  0.00  0.00    -0.035 SA
BRANCH  11  13
ATOM     13  N   UNL d   1      54.765  33.183  55.221  0.00  0.00    -0.213 NA
ATOM     14  C   UNL d   1      55.206  33.876  55.200  0.00  0.00     0.122 C 
ENDBRANCH  11  13
ENDBRANCH  10  11
ENDBRANCH   9  10
ENDBRANCH   1   9
TORSDOF 4
ENDMDL
MODEL 6
REMARK VINA RESULT:      -5.0      1.869      3.637
REMARK  4 active torsions:
REMARK  status: ('A' for Active; 'I' for Inactive)
REMARK    1  A    between atoms: N_5  and  C_1 
REMARK    2  A    between atoms: C_4  and  N_6 
REMARK    3  A    between atoms: N_11  and  C_4 
REMARK    4  A    between atoms: N_6  and  N_5 
ROOT
ATOM      1  C   UNL d   1      52.757  32.086  52.966  0.00  0.00     0.768 A 
ATOM      2  N   UNL d   1      53.278  32.161  53.598  0.00  0.00    -0.058 NA
ATOM      3  N   UNL d   1      52.575  31.335  52.668  0.00  0.00    -0.058 NA
ATOM      4  C   UNL d   1      53.621  31.489  53.937  0.00  0.00     0.102 A 
ATOM      5  C   UNL d   1      52.918  30.664  53.006  0.00  0.00     0.102 A 
ATOM      6  C   UNL d   1      53.439  30.738  53.638  0.00  0.00     0.040 A 
ATOM      7  C   UNL d   1      52.738  29.915  52.710  0.00  0.00     0.021 C 
ATOM      8  C   UNL d   1      54.144  31.566  54.571  0.00  0.00     0.021 C 
ENDROOT
BRANCH   1   9
ATOM      9  N   UNL d   1      52.416  32.755  52.630  0.00  0.00     0.049 NA
BRANCH   9  10
ATOM     10  N   UNL d   1      51.999  33.283  53.104  0.00  0.00    -0.101 NA
BRANCH  10  11
ATOM     11  C   UNL d   1      51.786  34.015  52.807  0.00  0.00     0.241 C 
ATOM     12  S   UNL d   1      51.081  34.102  52.400  0.00  0.00    -0.035 SA
BRANCH  11  13
ATOM     13  N   UNL d   1      52.280  34.661  52.916  0.00  0.00    -0.213 NA
ATOM     14  C   UNL d   1      52.154  35.173  53.547  0.00  0.00     0.122 C 
ENDBRANCH  11  13
ENDBRANCH  10  11
ENDBRANCH   9  10
ENDBRANCH   1   9
TORSDOF 4
ENDMDL
MODEL 7
REMARK VINA RESULT:      -4.7      1.594      3.474
REMARK  4 active torsions:
REMARK  status: ('A' for Active; 'I' for Inactive)
REMARK    1  A    between atoms: N_5  and  C_1 
REMARK    2  A    between atoms: C_4  and  N_6 
REMARK    3  A    between atoms: N_11  and  C_4 
REMARK    4  A    between atoms: N_6  and  N_5 
ROOT
ATOM      1  C   UNL d   1      53.609  31.960  53.543  0.00  0.00     0.768 A 
ATOM      2  N   UNL d   1      53.641  31.139  53.529  0.00  0.00    -0.058 NA
ATOM      3  N   UNL d   1      52.934  32.351  53.264  0.00  0.00    -0.058 NA
ATOM      4  C   UNL d   1      53.004  30.701  53.237  0.00  0.00     0.102 A 
ATOM      5  C   UNL d   1      52.296  31.914  52.972  0.00  0.00     0.102 A 
ATOM      6  C   UNL d   1      52.329  31.093  52.958  0.00  0.00     0.040 A 
ATOM      7  C   UNL d   1      51.623  32.302  52.694  0.00  0.00     0.021 C 
ATOM      8  C   UNL d   1      53.038  29.877  53.224  0.00  0.00     0.021 C 
ENDROOT
BRANCH   1   9
ATOM      9  N   UNL d   1      54.244  32.395  53.834  0.00  0.00     0.049 NA
BRANCH   9  10
ATOM     10  N   UNL d   1      54.114  32.984  54.394  0.00  0.00    -0.101 NA
BRANCH  10  11
ATOM     11  C   UNL d   1      54.751  33.349  54.755  0.00  0.00     0.241 C 
ATOM     12  S   UNL d   1      55.327  33.712  54.299  0.00  0.00    -0.035 SA
BRANCH  11  13
ATOM     13  N   UNL d   1      54.813  33.351  55.572  0.00  0.00    -0.213 NA
ATOM     14  C   UNL d   1      55.146  33.996  55.958  0.00  0.00     0.122 C 
ENDBRANCH  11  13
ENDBRANCH  10  11
ENDBRANCH   9  10
ENDBRANCH   1   9
TORSDOF 4
ENDMDL
MODEL 8
REMARK VINA RESULT:      -4.5      9.797     10.272
REMARK  4 active torsions:
REMARK  status: ('A' for Active; 'I' for Inactive)
REMARK    1  A    between atoms: N_5  and  C_1 
REMARK    2  A    between atoms: C_4  and  N_6 
REMARK    3  A    between atoms: N_11  and  C_4 
REMARK    4  A    between atoms: N_6  and  N_5 
ROOT
ATOM      1  C   UNL d   1      45.225  29.609  58.629  0.00  0.00     0.768 A 
ATOM      2  N   UNL d   1      45.087  30.166  58.039  0.00  0.00    -0.058 NA
ATOM      3  N   UNL d   1      45.111  29.814  59.424  0.00  0.00    -0.058 NA
ATOM      4  C   UNL d   1      44.836  30.928  58.236  0.00  0.00     0.102 A 
ATOM      5  C   UNL d   1      44.860  30.576  59.621  0.00  0.00     0.102 A 
ATOM      6  C   UNL d   1      44.723  31.132  59.031  0.00  0.00     0.040 A 
ATOM      7  C   UNL d   1      44.747  30.781  60.412  0.00  0.00     0.021 C 
ATOM      8  C   UNL d   1      44.698  31.485  57.643  0.00  0.00     0.021 C 
ENDROOT
BRANCH   1   9
ATOM      9  N   UNL d   1      45.475  28.851  58.431  0.00  0.00     0.049 NA
BRANCH   9  10
ATOM     10  N   UNL d   1      44.933  28.231  58.426  0.00  0.00    -0.101 NA
BRANCH  10  11
ATOM     11  C   UNL d   1      45.192  27.467  58.288  0.00  0.00     0.241 C 
ATOM     12  S   UNL d   1      45.471  27.258  57.547  0.00  0.00    -0.035 SA
BRANCH  11  13
ATOM     13  N   UNL d   1      45.171  26.912  58.891  0.00  0.00    -0.213 NA
ATOM     14  C   UNL d   1      44.975  26.131  58.725  0.00  0.00     0.122 C 
ENDBRANCH  11  13
ENDBRANCH  10  11
ENDBRANCH   9  10
ENDBRANCH   1   9
TORSDOF 4
ENDMDL
MODEL 9
REMARK VINA RESULT:      -4.3     10.037     10.773
REMARK  4 active torsions:
REMARK  status: ('A' for Active; 'I' for Inactive)
REMARK    1  A    between atoms: N_5  and  C_1 
REMARK    2  A    between atoms: C_4  and  N_6 
REMARK    3  A    between atoms: N_11  and  C_4 
REMARK    4  A    between atoms: N_6  and  N_5 
ROOT
ATOM      1  C   UNL d   1      45.156  29.450  58.324  0.00  0.00     0.768 A 
ATOM      2  N   UNL d   1      45.341  28.656  58.432  0.00  0.00    -0.058 NA
ATOM      3  N   UNL d   1      44.927  29.722  57.575  0.00  0.00    -0.058 NA
ATOM      4  C   UNL d   1      45.301  28.128  57.798  0.00  0.00     0.102 A 
ATOM      5  C   UNL d   1      44.887  29.194  56.941  0.00  0.00     0.102 A 
ATOM      6  C   UNL d   1      45.072  28.400  57.049  0.00  0.00     0.040 A 
ATOM      7  C   UNL d   1      44.659  29.463  56.195  0.00  0.00     0.021 C 
ATOM      8  C   UNL d   1      45.487  27.332  57.909  0.00  0.00     0.021 C 
ENDROOT
BRANCH   1   9
ATOM      9  N   UNL d   1      45.197  29.974  58.956  0.00  0.00     0.049 NA
BRANCH   9  10
ATOM     10  N   UNL d   1      44.628  29.943  59.550  0.00  0.00    -0.101 NA
BRANCH  10  11
ATOM     11  C   UNL d   1      44.652  30.484  60.164  0.00  0.00     0.241 C 
ATOM     12  S   UNL d   1      44.319  31.226  60.068  0.00  0.00    -0.035 SA
BRANCH  11  13
ATOM     13  N   UNL d   1      45.008  30.282  60.874  0.00  0.00    -0.213 NA
ATOM     14  C   UNL d   1      44.741  30.615  61.578  0.00  0.00     0.122 C 
ENDBRANCH  11  13
ENDBRANCH  10  11
ENDBRANCH   9  10
ENDBRANCH   1   9
TORSDOF 4
ENDMDL
