MODEL 1
REMARK VINA RESULT:      -5.1      0.000      0.000
REMARK  5 active torsions:
REMARK  status: ('A' for Active; 'I' for Inactive)
REMARK       I    between atoms: C_2  and  N_1 
REMARK    1  A    between atoms: C_5  and  C_2 
REMARK    2  A    between atoms: S_7  and  C_3 
REMARK    3  A    between atoms: N_4  and  C_8 
REMARK    4  A    between atoms: C_17  and  S_7 
REMARK    5  A    between atoms: C_18  and  C_17 
ROOT
ATOM      1  N   UNL d   1     -41.572-122.492 -50.666  0.00  0.00    -0.251 N 
ATOM      2  C   UNL d   1     -41.847-123.240 -50.452  0.00  0.00     0.266 C 
ATOM      3  C   UNL d   1     -41.451-122.216 -51.439  0.00  0.00     0.182 A 
ATOM      4  N   UNL d   1     -41.176-121.444 -51.388  0.00  0.00    -0.219 NA
ATOM      5  O   UNL d   1     -42.030-123.798 -51.033  0.00  0.00    -0.267 OA
ATOM      6  C   UNL d   1     -41.368-121.880 -50.139  0.00  0.00     0.106 A 
ATOM      7  C   UNL d   1     -41.123-121.231 -50.593  0.00  0.00     0.120 A 
ENDROOT
BRANCH   3   8
ATOM      8  S   UNL d   1     -41.587-122.649 -52.125  0.00  0.00    -0.049 SA
BRANCH   8   9
ATOM      9  C   UNL d   1     -41.123-122.520 -52.786  0.00  0.00     0.038 C 
BRANCH   9  10
ATOM     10  C   UNL d   1     -41.471-122.423 -53.522  0.00  0.00     0.007 A 
ATOM     11  C   UNL d   1     -41.857-121.722 -53.713  0.00  0.00     0.002 A 
ATOM     12  C   UNL d   1     -42.208-121.623 -54.453  0.00  0.00     0.024 A 
ATOM     13  C   UNL d   1     -42.170-122.233 -55.000  0.00  0.00     0.127 A 
ATOM     14  C   UNL d   1     -41.788-122.937 -54.823  0.00  0.00     0.024 A 
ATOM     15  C   UNL d   1     -41.436-123.037 -54.080  0.00  0.00     0.002 A 
BRANCH  13  16
ATOM     16  N   UNL d   1     -42.520-122.140 -55.746  0.00  0.00    -0.114 N 
ATOM     17  O   UNL d   1     -42.245-121.544 -56.272  0.00  0.00    -0.532 OA
ATOM     18  O   UNL d   1     -43.148-122.633 -55.987  0.00  0.00    -0.532 OA
ENDBRANCH  13  16
ENDBRANCH   9  10
ENDBRANCH   8   9
ENDBRANCH   3   8
BRANCH   2  19
ATOM     19  C   UNL d   1     -41.939-123.434 -49.650  0.00  0.00     0.057 A 
ATOM     20  C   UNL d   1     -42.703-123.524 -49.337  0.00  0.00     0.005 A 
ATOM     21  C   UNL d   1     -43.364-123.421 -49.821  0.00  0.00     0.000 C 
ATOM     22  C   UNL d   1     -42.785-123.715 -48.548  0.00  0.00     0.000 A 
ATOM     23  C   UNL d   1     -42.112-123.817 -48.067  0.00  0.00     0.000 A 
ATOM     24  C   UNL d   1     -41.360-123.728 -48.377  0.00  0.00     0.000 A 
ATOM     25  C   UNL d   1     -41.273-123.535 -49.174  0.00  0.00     0.005 A 
ENDBRANCH   2  19
TORSDOF 5
ENDMDL
MODEL 2
REMARK VINA RESULT:      -3.4      1.466      5.209
REMARK  5 active torsions:
REMARK  status: ('A' for Active; 'I' for Inactive)
REMARK       I    between atoms: C_2  and  N_1 
REMARK    1  A    between atoms: C_5  and  C_2 
REMARK    2  A    between atoms: S_7  and  C_3 
REMARK    3  A    between atoms: N_4  and  C_8 
REMARK    4  A    between atoms: C_17  and  S_7 
REMARK    5  A    between atoms: C_18  and  C_17 
ROOT
ATOM      1  N   UNL d   1     -41.659-121.898 -52.800  0.00  0.00    -0.251 N 
ATOM      2  C   UNL d   1     -41.811-122.563 -53.264  0.00  0.00     0.266 C 
ATOM      3  C   UNL d   1     -41.594-121.881 -51.974  0.00  0.00     0.182 A 
ATOM      4  N   UNL d   1     -41.440-121.106 -51.751  0.00  0.00    -0.219 NA
ATOM      5  O   UNL d   1     -41.917-123.302 -52.911  0.00  0.00    -0.267 OA
ATOM      6  C   UNL d   1     -41.541-121.124 -53.084  0.00  0.00     0.106 A 
ATOM      7  C   UNL d   1     -41.406-120.636 -52.428  0.00  0.00     0.120 A 
ENDROOT
BRANCH   3   8
ATOM      8  S   UNL d   1     -41.674-122.532 -51.476  0.00  0.00    -0.049 SA
BRANCH   8   9
ATOM      9  C   UNL d   1     -41.187-122.607 -50.824  0.00  0.00     0.038 C 
BRANCH   9  10
ATOM     10  C   UNL d   1     -41.493-122.872 -50.111  0.00  0.00     0.007 A 
ATOM     11  C   UNL d   1     -41.123-123.479 -49.696  0.00  0.00     0.002 A 
ATOM     12  C   UNL d   1     -41.430-123.747 -48.979  0.00  0.00     0.024 A 
ATOM     13  C   UNL d   1     -42.111-123.402 -48.679  0.00  0.00     0.127 A 
ATOM     14  C   UNL d   1     -42.490-122.795 -49.082  0.00  0.00     0.024 A 
ATOM     15  C   UNL d   1     -42.182-122.527 -49.802  0.00  0.00     0.002 A 
BRANCH  13  16
ATOM     16  N   UNL d   1     -42.425-123.666 -47.958  0.00  0.00    -0.114 N 
ATOM     17  O   UNL d   1     -41.920-123.788 -47.296  0.00  0.00    -0.532 OA
ATOM     18  O   UNL d   1     -43.241-123.814 -47.877  0.00  0.00    -0.532 OA
ENDBRANCH  13  16
ENDBRANCH   9  10
ENDBRANCH   8   9
ENDBRANCH   3   8
BRANCH   2  19
ATOM     19  C   UNL d   1     -41.860-122.490 -54.090  0.00  0.00     0.057 A 
ATOM     20  C   UNL d   1     -41.518-123.074 -54.572  0.00  0.00     0.005 A 
ATOM     21  C   UNL d   1     -41.135-123.720 -54.231  0.00  0.00     0.000 C 
ATOM     22  C   UNL d   1     -41.570-122.994 -55.382  0.00  0.00     0.000 A 
ATOM     23  C   UNL d   1     -41.959-122.339 -55.718  0.00  0.00     0.000 A 
ATOM     24  C   UNL d   1     -42.295-121.764 -55.241  0.00  0.00     0.000 A 
ATOM     25  C   UNL d   1     -42.245-121.840 -54.422  0.00  0.00     0.005 A 
ENDBRANCH   2  19
TORSDOF 5
ENDMDL
