MODEL 1
REMARK VINA RESULT:      -7.9      0.000      0.000
REMARK  7 active torsions:
REMARK  status: ('A' for Active; 'I' for Inactive)
REMARK    1  A    between atoms: C_6  and  C_1 
REMARK    2  A    between atoms: O_18  and  C_6 
REMARK    3  A    between atoms: C_7  and  C_11 
REMARK    4  A    between atoms: O_19  and  C_7 
REMARK    5  A    between atoms: O_10  and  C_12 
REMARK    6  A    between atoms: C_11  and  O_10 
REMARK    7  A    between atoms: C_21  and  O_18 
ROOT
ATOM      1  C   UNL d   1      53.661  33.063  53.966  0.00  0.00     0.081 A 
ATOM      2  C   UNL d   1      54.009  33.387  54.643  0.00  0.00     0.069 A 
ATOM      3  N   UNL d   1      53.664  34.120  54.773  0.00  0.00    -0.304 N 
ATOM      4  C   UNL d   1      53.108  33.593  53.684  0.00  0.00     0.025 A 
ATOM      5  C   UNL d   1      53.109  34.247  54.183  0.00  0.00     0.064 A 
ATOM      6  C   UNL d   1      52.604  34.878  54.036  0.00  0.00     0.020 A 
ATOM      7  C   UNL d   1      52.601  33.569  53.038  0.00  0.00     0.026 A 
ATOM      8  C   UNL d   1      52.089  34.209  52.892  0.00  0.00     0.100 A 
ATOM      9  C   UNL d   1      52.091  34.857  53.386  0.00  0.00     0.026 A 
ATOM     10  C   UNL d   1      54.595  33.039  55.104  0.00  0.00     0.019 C 
ATOM     11  C   UNL d   1      53.848  34.639  55.395  0.00  0.00     0.099 C 
ENDROOT
BRANCH   8  12
ATOM     12  O   UNL d   1      51.579  34.181  52.239  0.00  0.00    -0.302 OA
BRANCH  12  13
ATOM     13  C   UNL d   1      50.771  34.082  52.366  0.00  0.00     0.163 C 
ATOM     14  C   UNL d   1      50.495  33.781  53.087  0.00  0.00     0.032 C 
BRANCH  13  15
ATOM     15  C   UNL d   1      50.232  34.283  51.773  0.00  0.00     0.319 C 
ATOM     16  O   UNL d   1      50.462  34.272  50.978  0.00  0.00    -0.257 OA
BRANCH  15  17
ATOM     17  O   UNL d   1      49.462  34.495  51.965  0.00  0.00    -0.294 OA
ATOM     18  C   UNL d   1      48.916  34.652  51.366  0.00  0.00     0.185 C 
ENDBRANCH  15  17
ENDBRANCH  13  15
ENDBRANCH  12  13
ENDBRANCH   8  12
BRANCH   1  19
ATOM     19  C   UNL d   1      53.843  32.328  53.633  0.00  0.00     0.302 C 
ATOM     20  O   UNL d   1      54.486  32.262  53.117  0.00  0.00    -0.259 OA
BRANCH  19  21
ATOM     21  O   UNL d   1      53.389  31.668  53.812  0.00  0.00    -0.271 OA
BRANCH  21  22
ATOM     22  C   UNL d   1      53.571  30.939  53.471  0.00  0.00     0.126 C 
ATOM     23  C   UNL d   1      53.106  30.280  53.640  0.00  0.00     0.029 C 
ENDBRANCH  21  22
ENDBRANCH  19  21
ENDBRANCH   1  19
TORSDOF 7
ENDMDL
MODEL 2
REMARK VINA RESULT:      -7.8      0.980      3.769
REMARK  7 active torsions:
REMARK  status: ('A' for Active; 'I' for Inactive)
REMARK    1  A    between atoms: C_6  and  C_1 
REMARK    2  A    between atoms: O_18  and  C_6 
REMARK    3  A    between atoms: C_7  and  C_11 
REMARK    4  A    between atoms: O_19  and  C_7 
REMARK    5  A    between atoms: O_10  and  C_12 
REMARK    6  A    between atoms: C_11  and  O_10 
REMARK    7  A    between atoms: C_21  and  O_18 
ROOT
ATOM      1  C   UNL d   1      52.761  34.166  53.609  0.00  0.00     0.081 A 
ATOM      2  C   UNL d   1      53.018  34.671  54.211  0.00  0.00     0.069 A 
ATOM      3  N   UNL d   1      53.550  34.254  54.675  0.00  0.00    -0.304 N 
ATOM      4  C   UNL d   1      53.133  33.445  53.704  0.00  0.00     0.025 A 
ATOM      5  C   UNL d   1      53.621  33.500  54.364  0.00  0.00     0.064 A 
ATOM      6  C   UNL d   1      54.071  32.853  54.598  0.00  0.00     0.020 A 
ATOM      7  C   UNL d   1      53.093  32.743  53.279  0.00  0.00     0.026 A 
ATOM      8  C   UNL d   1      53.549  32.089  53.518  0.00  0.00     0.100 A 
ATOM      9  C   UNL d   1      54.033  32.144  54.171  0.00  0.00     0.026 A 
ATOM     10  C   UNL d   1      52.783  35.452  54.325  0.00  0.00     0.019 C 
ATOM     11  C   UNL d   1      53.945  34.551  55.343  0.00  0.00     0.099 C 
ENDROOT
BRANCH   8  12
ATOM     12  O   UNL d   1      53.506  31.384  53.086  0.00  0.00    -0.302 OA
BRANCH  12  13
ATOM     13  C   UNL d   1      52.995  30.789  53.340  0.00  0.00     0.163 C 
ATOM     14  C   UNL d   1      52.183  30.936  53.406  0.00  0.00     0.032 C 
BRANCH  13  15
ATOM     15  C   UNL d   1      53.294  30.042  53.529  0.00  0.00     0.319 C 
ATOM     16  O   UNL d   1      53.972  29.754  53.153  0.00  0.00    -0.257 OA
BRANCH  15  17
ATOM     17  O   UNL d   1      52.920  29.576  54.093  0.00  0.00    -0.294 OA
ATOM     18  C   UNL d   1      53.299  28.905  54.389  0.00  0.00     0.185 C 
ENDBRANCH  15  17
ENDBRANCH  13  15
ENDBRANCH  12  13
ENDBRANCH   8  12
BRANCH   1  19
ATOM     19  C   UNL d   1      52.220  34.357  53.013  0.00  0.00     0.302 C 
ATOM     20  O   UNL d   1      52.494  34.669  52.298  0.00  0.00    -0.259 OA
BRANCH  19  21
ATOM     21  O   UNL d   1      51.416  34.238  53.129  0.00  0.00    -0.271 OA
BRANCH  21  22
ATOM     22  C   UNL d   1      50.886  34.385  52.514  0.00  0.00     0.126 C 
ATOM     23  C   UNL d   1      50.076  34.297  52.641  0.00  0.00     0.029 C 
ENDBRANCH  21  22
ENDBRANCH  19  21
ENDBRANCH   1  19
TORSDOF 7
ENDMDL
MODEL 3
REMARK VINA RESULT:      -7.6      2.082      3.930
REMARK  7 active torsions:
REMARK  status: ('A' for Active; 'I' for Inactive)
REMARK    1  A    between atoms: C_6  and  C_1 
REMARK    2  A    between atoms: O_18  and  C_6 
REMARK    3  A    between atoms: C_7  and  C_11 
REMARK    4  A    between atoms: O_19  and  C_7 
REMARK    5  A    between atoms: O_10  and  C_12 
REMARK    6  A    between atoms: C_11  and  O_10 
REMARK    7  A    between atoms: C_21  and  O_18 
ROOT
ATOM      1  C   UNL d   1      53.255  33.599  54.161  0.00  0.00     0.081 A 
ATOM      2  C   UNL d   1      52.766  34.227  53.937  0.00  0.00     0.069 A 
ATOM      3  N   UNL d   1      52.278  33.961  53.334  0.00  0.00    -0.304 N 
ATOM      4  C   UNL d   1      53.069  32.953  53.698  0.00  0.00     0.025 A 
ATOM      5  C   UNL d   1      52.464  33.176  53.186  0.00  0.00     0.064 A 
ATOM      6  C   UNL d   1      52.159  32.635  52.648  0.00  0.00     0.020 A 
ATOM      7  C   UNL d   1      53.368  32.188  53.672  0.00  0.00     0.026 A 
ATOM      8  C   UNL d   1      53.057  31.642  53.126  0.00  0.00     0.100 A 
ATOM      9  C   UNL d   1      52.458  31.863  52.620  0.00  0.00     0.026 A 
ATOM     10  C   UNL d   1      52.766  34.984  54.261  0.00  0.00     0.019 C 
ATOM     11  C   UNL d   1      51.699  34.411  52.945  0.00  0.00     0.099 C 
ENDROOT
BRANCH   8  12
ATOM     12  O   UNL d   1      53.362  30.872  53.103  0.00  0.00    -0.302 OA
BRANCH  12  13
ATOM     13  C   UNL d   1      52.939  30.262  53.464  0.00  0.00     0.163 C 
ATOM     14  C   UNL d   1      52.114  30.236  53.405  0.00  0.00     0.032 C 
BRANCH  13  15
ATOM     15  C   UNL d   1      53.340  29.675  53.885  0.00  0.00     0.319 C 
ATOM     16  O   UNL d   1      54.140  29.527  53.739  0.00  0.00    -0.257 OA
BRANCH  15  17
ATOM     17  O   UNL d   1      52.948  29.232  54.455  0.00  0.00    -0.294 OA
ATOM     18  C   UNL d   1      53.369  28.701  54.926  0.00  0.00     0.185 C 
ENDBRANCH  15  17
ENDBRANCH  13  15
ENDBRANCH  12  13
ENDBRANCH   8  12
BRANCH   1  19
ATOM     19  C   UNL d   1      53.834  33.622  54.751  0.00  0.00     0.302 C 
ATOM     20  O   UNL d   1      53.639  33.395  55.522  0.00  0.00    -0.259 OA
BRANCH  19  21
ATOM     21  O   UNL d   1      54.597  33.867  54.575  0.00  0.00    -0.271 OA
BRANCH  21  22
ATOM     22  C   UNL d   1      55.196  33.780  55.134  0.00  0.00     0.126 C 
ATOM     23  C   UNL d   1      55.939  34.110  54.995  0.00  0.00     0.029 C 
ENDBRANCH  21  22
ENDBRANCH  19  21
ENDBRANCH   1  19
TORSDOF 7
ENDMDL
MODEL 4
REMARK VINA RESULT:      -7.2      1.246      2.322
REMARK  7 active torsions:
REMARK  status: ('A' for Active; 'I' for Inactive)
REMARK    1  A    between atoms: C_6  and  C_1 
REMARK    2  A    between atoms: O_18  and  C_6 
REMARK    3  A    between atoms: C_7  and  C_11 
REMARK    4  A    between atoms: O_19  and  C_7 
REMARK    5  A    between atoms: O_10  and  C_12 
REMARK    6  A    between atoms: C_11  and  O_10 
REMARK    7  A    between atoms: C_21  and  O_18 
ROOT
ATOM      1  C   UNL d   1      53.574  32.199  53.549  0.00  0.00     0.081 A 
ATOM      2  C   UNL d   1      53.652  31.385  53.426  0.00  0.00     0.069 A 
ATOM      3  N   UNL d   1      52.917  31.094  53.209  0.00  0.00    -0.304 N 
ATOM      4  C   UNL d   1      52.797  32.406  53.407  0.00  0.00     0.025 A 
ATOM      5  C   UNL d   1      52.390  31.722  53.197  0.00  0.00     0.064 A 
ATOM      6  C   UNL d   1      51.588  31.758  53.020  0.00  0.00     0.020 A 
ATOM      7  C   UNL d   1      52.402  33.125  53.441  0.00  0.00     0.026 A 
ATOM      8  C   UNL d   1      51.590  33.159  53.262  0.00  0.00     0.100 A 
ATOM      9  C   UNL d   1      51.187  32.482  53.054  0.00  0.00     0.026 A 
ATOM     10  C   UNL d   1      54.343  30.945  53.508  0.00  0.00     0.019 C 
ATOM     11  C   UNL d   1      52.742  30.302  53.032  0.00  0.00     0.099 C 
ENDROOT
BRANCH   8  12
ATOM     12  O   UNL d   1      51.196  33.887  53.298  0.00  0.00    -0.302 OA
BRANCH  12  13
ATOM     13  C   UNL d   1      50.906  34.221  52.602  0.00  0.00     0.163 C 
ATOM     14  C   UNL d   1      51.377  34.238  51.921  0.00  0.00     0.032 C 
BRANCH  13  15
ATOM     15  C   UNL d   1      50.144  34.540  52.583  0.00  0.00     0.319 C 
ATOM     16  O   UNL d   1      49.831  34.916  53.249  0.00  0.00    -0.257 OA
BRANCH  15  17
ATOM     17  O   UNL d   1      49.688  34.486  51.901  0.00  0.00    -0.294 OA
ATOM     18  C   UNL d   1      48.944  34.843  51.874  0.00  0.00     0.185 C 
ENDBRANCH  15  17
ENDBRANCH  13  15
ENDBRANCH  12  13
ENDBRANCH   8  12
BRANCH   1  19
ATOM     19  C   UNL d   1      54.179  32.716  53.776  0.00  0.00     0.302 C 
ATOM     20  O   UNL d   1      54.674  33.042  53.200  0.00  0.00    -0.259 OA
BRANCH  19  21
ATOM     21  O   UNL d   1      54.288  32.904  54.567  0.00  0.00    -0.271 OA
BRANCH  21  22
ATOM     22  C   UNL d   1      54.886  33.428  54.786  0.00  0.00     0.126 C 
ATOM     23  C   UNL d   1      54.953  33.670  55.571  0.00  0.00     0.029 C 
ENDBRANCH  21  22
ENDBRANCH  19  21
ENDBRANCH   1  19
TORSDOF 7
ENDMDL
MODEL 5
REMARK VINA RESULT:      -5.2      1.620      3.538
REMARK  7 active torsions:
REMARK  status: ('A' for Active; 'I' for Inactive)
REMARK    1  A    between atoms: C_6  and  C_1 
REMARK    2  A    between atoms: O_18  and  C_6 
REMARK    3  A    between atoms: C_7  and  C_11 
REMARK    4  A    between atoms: O_19  and  C_7 
REMARK    5  A    between atoms: O_10  and  C_12 
REMARK    6  A    between atoms: C_11  and  O_10 
REMARK    7  A    between atoms: C_21  and  O_18 
ROOT
ATOM      1  C   UNL d   1      52.668  32.147  53.137  0.00  0.00     0.081 A 
ATOM      2  C   UNL d   1      52.766  31.326  53.148  0.00  0.00     0.069 A 
ATOM      3  N   UNL d   1      53.435  31.161  53.593  0.00  0.00    -0.304 N 
ATOM      4  C   UNL d   1      53.273  32.482  53.572  0.00  0.00     0.025 A 
ATOM      5  C   UNL d   1      53.748  31.872  53.853  0.00  0.00     0.064 A 
ATOM      6  C   UNL d   1      54.407  32.042  54.314  0.00  0.00     0.020 A 
ATOM      7  C   UNL d   1      53.458  33.262  53.750  0.00  0.00     0.026 A 
ATOM      8  C   UNL d   1      54.125  33.432  54.216  0.00  0.00     0.100 A 
ATOM      9  C   UNL d   1      54.596  32.828  54.495  0.00  0.00     0.026 A 
ATOM     10  C   UNL d   1      52.280  30.773  52.780  0.00  0.00     0.019 C 
ATOM     11  C   UNL d   1      53.739  30.403  53.748  0.00  0.00     0.099 C 
ENDROOT
BRANCH   8  12
ATOM     12  O   UNL d   1      54.308  34.221  54.394  0.00  0.00    -0.302 OA
BRANCH  12  13
ATOM     13  C   UNL d   1      53.852  34.622  54.951  0.00  0.00     0.163 C 
ATOM     14  C   UNL d   1      53.717  34.289  55.698  0.00  0.00     0.032 C 
BRANCH  13  15
ATOM     15  C   UNL d   1      53.527  35.359  54.766  0.00  0.00     0.319 C 
ATOM     16  O   UNL d   1      53.923  35.874  54.254  0.00  0.00    -0.257 OA
BRANCH  15  17
ATOM     17  O   UNL d   1      52.807  35.589  55.088  0.00  0.00    -0.294 OA
ATOM     18  C   UNL d   1      52.473  36.313  54.875  0.00  0.00     0.185 C 
ENDBRANCH  15  17
ENDBRANCH  13  15
ENDBRANCH  12  13
ENDBRANCH   8  12
BRANCH   1  19
ATOM     19  C   UNL d   1      52.063  32.558  52.752  0.00  0.00     0.302 C 
ATOM     20  O   UNL d   1      52.112  32.688  51.937  0.00  0.00    -0.259 OA
BRANCH  19  21
ATOM     21  O   UNL d   1      51.416  32.835  53.175  0.00  0.00    -0.271 OA
BRANCH  21  22
ATOM     22  C   UNL d   1      50.894  33.369  52.825  0.00  0.00     0.126 C 
ATOM     23  C   UNL d   1      50.295  33.712  53.275  0.00  0.00     0.029 C 
ENDBRANCH  21  22
ENDBRANCH  19  21
ENDBRANCH   1  19
TORSDOF 7
ENDMDL
