MODEL 1
REMARK VINA RESULT:      54.2      0.000      0.000
REMARK  6 active torsions:
REMARK  status: ('A' for Active; 'I' for Inactive)
REMARK    1  A    between atoms: N_3  and  C_1 
REMARK       I    between atoms: C_7  and  N_3 
REMARK    2  A    between atoms: S_13  and  C_4 
REMARK    3  A    between atoms: C_20  and  C_7 
REMARK    4  A    between atoms: C_10  and  C_21 
REMARK       I    between atoms: N_12  and  C_10 
REMARK    5  A    between atoms: C_14  and  N_12 
REMARK    6  A    between atoms: C_21  and  S_13 
ROOT
ATOM      1  C   UNL d   1     -50.070  26.775  34.311  0.00  0.00     0.286 C 
ATOM      2  N   UNL d   1     -50.369  26.540  33.576  0.00  0.00    -0.207 NA
ATOM      3  O   UNL d   1     -50.141  26.281  34.969  0.00  0.00    -0.265 OA
ENDROOT
BRANCH   1   4
ATOM      4  C   UNL d   1     -49.702  27.507  34.378  0.00  0.00     0.100 C 
BRANCH   4   5
ATOM      5  S   UNL d   1     -48.917  27.552  34.644  0.00  0.00    -0.054 SA
BRANCH   5   6
ATOM      6  C   UNL d   1     -48.627  28.270  34.926  0.00  0.00     0.165 A 
ATOM      7  S   UNL d   1     -48.507  28.947  34.480  0.00  0.00    -0.019 SA
ATOM      8  C   UNL d   1     -48.213  29.538  34.970  0.00  0.00     0.219 A 
ATOM      9  N   UNL d   1     -48.152  29.220  35.732  0.00  0.00    -0.120 NA
ATOM     10  N   UNL d   1     -48.407  28.438  35.704  0.00  0.00    -0.133 NA
BRANCH   8  11
ATOM     11  N   UNL d   1     -48.016  30.308  34.740  0.00  0.00    -0.181 NA
ATOM     12  C   UNL d   1     -47.539  30.769  35.235  0.00  0.00     0.281 C 
ATOM     13  O   UNL d   1     -47.265  30.464  35.946  0.00  0.00    -0.265 OA
BRANCH  12  14
ATOM     14  C   UNL d   1     -47.340  31.538  35.008  0.00  0.00     0.058 C 
ATOM     15  C   UNL d   1     -47.114  32.086  35.584  0.00  0.00     0.005 C 
ATOM     16  C   UNL d   1     -47.369  31.750  34.218  0.00  0.00     0.005 C 
ENDBRANCH  12  14
ENDBRANCH   8  11
ENDBRANCH   5   6
ENDBRANCH   4   5
ENDBRANCH   1   4
BRANCH   2  17
ATOM     17  C   UNL d   1     -50.739  25.805  33.508  0.00  0.00     0.087 A 
ATOM     18  C   UNL d   1     -51.562  25.763  33.509  0.00  0.00     0.046 A 
ATOM     19  C   UNL d   1     -51.939  25.040  33.442  0.00  0.00     0.124 A 
ATOM     20  O   UNL d   1     -52.765  25.001  33.444  0.00  0.00    -0.301 OA
ATOM     21  C   UNL d   1     -51.492  24.347  33.373  0.00  0.00     0.123 A 
ATOM     22  C   UNL d   1     -53.138  24.263  33.376  0.00  0.00     0.149 A 
ATOM     23  C   UNL d   1     -52.690  23.570  33.306  0.00  0.00     0.149 A 
ATOM     24  O   UNL d   1     -51.856  23.619  33.306  0.00  0.00    -0.301 OA
ATOM     25  C   UNL d   1     -50.666  24.391  33.372  0.00  0.00     0.028 A 
ATOM     26  C   UNL d   1     -50.290  25.121  33.440  0.00  0.00     0.021 A 
ENDBRANCH   2  17
TORSDOF 6
ENDMDL
