MODEL 1
REMARK VINA RESULT:      12.2      0.000      0.000
REMARK  4 active torsions:
REMARK  status: ('A' for Active; 'I' for Inactive)
REMARK    1  A    between atoms: C_7  and  N_1 
REMARK    2  A    between atoms: C_6  and  C_8 
REMARK    3  A    between atoms: O_16  and  C_6 
REMARK    4  A    between atoms: C_17  and  O_16 
ROOT
ATOM      1  C   UNL d   1      46.126 -18.185  43.741  0.00  0.00     0.070 A 
ATOM      2  C   UNL d   1      45.730 -16.689  44.311  0.00  0.00     0.064 A 
ATOM      3  C   UNL d   1      45.793 -17.628  43.226  0.00  0.00     0.018 A 
ATOM      4  C   UNL d   1      46.257 -17.992  44.529  0.00  0.00     0.018 A 
ATOM      5  C   UNL d   1      45.592 -16.874  43.508  0.00  0.00     0.007 A 
ATOM      6  C   UNL d   1      46.061 -17.250  44.814  0.00  0.00     0.007 A 
ENDROOT
BRANCH   1   7
ATOM      7  N   UNL d   1      46.329 -18.937  43.467  0.00  0.00    -0.242 N 
ATOM      8  C   UNL d   1      46.457 -19.146  42.668  0.00  0.00     0.267 A 
ATOM      9  C   UNL d   1      46.647 -19.948  42.636  0.00  0.00     0.066 A 
ATOM     10  O   UNL d   1      46.411 -18.662  41.997  0.00  0.00    -0.267 OA
ATOM     11  C   UNL d   1      46.638 -20.242  43.412  0.00  0.00     0.066 A 
ATOM     12  C   UNL d   1      46.444 -19.625  43.917  0.00  0.00     0.267 A 
ATOM     13  O   UNL d   1      46.384 -19.724  44.743  0.00  0.00    -0.267 OA
ENDBRANCH   1   7
BRANCH   2  14
ATOM     14  C   UNL d   1      45.532 -15.943  44.594  0.00  0.00     0.300 C 
ATOM     15  O   UNL d   1      44.780 -15.822  44.955  0.00  0.00    -0.259 OA
BRANCH  14  16
ATOM     16  O   UNL d   1      46.065 -15.314  44.528  0.00  0.00    -0.271 OA
BRANCH  16  17
ATOM     17  C   UNL d   1      45.883 -14.573  44.868  0.00  0.00     0.126 C 
ATOM     18  C   UNL d   1      46.256 -13.905  44.578  0.00  0.00     0.029 C 
ENDBRANCH  16  17
ENDBRANCH  14  16
ENDBRANCH   2  14
TORSDOF 4
ENDMDL
MODEL 2
REMARK VINA RESULT:      12.6      2.035      4.904
REMARK  4 active torsions:
REMARK  status: ('A' for Active; 'I' for Inactive)
REMARK    1  A    between atoms: C_7  and  N_1 
REMARK    2  A    between atoms: C_6  and  C_8 
REMARK    3  A    between atoms: O_16  and  C_6 
REMARK    4  A    between atoms: C_17  and  O_16 
ROOT
ATOM      1  C   UNL d   1      45.538 -14.224  44.085  0.00  0.00     0.070 A 
ATOM      2  C   UNL d   1      45.735 -15.859  44.164  0.00  0.00     0.064 A 
ATOM      3  C   UNL d   1      46.046 -14.600  43.548  0.00  0.00     0.018 A 
ATOM      4  C   UNL d   1      45.137 -14.665  44.651  0.00  0.00     0.018 A 
ATOM      5  C   UNL d   1      46.148 -15.422  43.584  0.00  0.00     0.007 A 
ATOM      6  C   UNL d   1      45.234 -15.476  44.692  0.00  0.00     0.007 A 
ENDROOT
BRANCH   1   7
ATOM      7  N   UNL d   1      45.431 -13.406  44.055  0.00  0.00    -0.242 N 
ATOM      8  C   UNL d   1      45.898 -12.839  44.456  0.00  0.00     0.267 A 
ATOM      9  C   UNL d   1      45.606 -12.089  44.277  0.00  0.00     0.066 A 
ATOM     10  O   UNL d   1      46.546 -12.968  44.955  0.00  0.00    -0.267 OA
ATOM     11  C   UNL d   1      44.959 -12.184  43.766  0.00  0.00     0.066 A 
ATOM     12  C   UNL d   1      44.854 -12.987  43.631  0.00  0.00     0.267 A 
ATOM     13  O   UNL d   1      44.250 -13.283  43.140  0.00  0.00    -0.267 OA
ENDBRANCH   1   7
BRANCH   2  14
ATOM     14  C   UNL d   1      45.834 -16.675  44.203  0.00  0.00     0.300 C 
ATOM     15  O   UNL d   1      45.922 -17.047  44.954  0.00  0.00    -0.259 OA
BRANCH  14  16
ATOM     16  O   UNL d   1      45.848 -17.129  43.512  0.00  0.00    -0.271 OA
BRANCH  16  17
ATOM     17  C   UNL d   1      46.288 -17.839  43.487  0.00  0.00     0.126 C 
ATOM     18  C   UNL d   1      46.232 -18.312  42.821  0.00  0.00     0.029 C 
ENDBRANCH  16  17
ENDBRANCH  14  16
ENDBRANCH   2  14
TORSDOF 4
ENDMDL
MODEL 3
REMARK VINA RESULT:      14.9      1.220      4.208
REMARK  4 active torsions:
REMARK  status: ('A' for Active; 'I' for Inactive)
REMARK    1  A    between atoms: C_7  and  N_1 
REMARK    2  A    between atoms: C_6  and  C_8 
REMARK    3  A    between atoms: O_16  and  C_6 
REMARK    4  A    between atoms: C_17  and  O_16 
ROOT
ATOM      1  C   UNL d   1      45.599 -15.993  44.329  0.00  0.00     0.070 A 
ATOM      2  C   UNL d   1      46.044 -17.549  44.011  0.00  0.00     0.064 A 
ATOM      3  C   UNL d   1      45.676 -16.532  44.955  0.00  0.00     0.018 A 
ATOM      4  C   UNL d   1      45.745 -16.235  43.557  0.00  0.00     0.018 A 
ATOM      5  C   UNL d   1      45.899 -17.315  44.799  0.00  0.00     0.007 A 
ATOM      6  C   UNL d   1      45.966 -17.006  43.397  0.00  0.00     0.007 A 
ENDROOT
BRANCH   1   7
ATOM      7  N   UNL d   1      45.377 -15.212  44.476  0.00  0.00    -0.242 N 
ATOM      8  C   UNL d   1      44.620 -14.960  44.727  0.00  0.00     0.267 A 
ATOM      9  C   UNL d   1      44.632 -14.139  44.809  0.00  0.00     0.066 A 
ATOM     10  O   UNL d   1      43.949 -15.422  44.877  0.00  0.00    -0.267 OA
ATOM     11  C   UNL d   1      45.394 -13.877  44.610  0.00  0.00     0.066 A 
ATOM     12  C   UNL d   1      45.847 -14.532  44.408  0.00  0.00     0.267 A 
ATOM     13  O   UNL d   1      46.645 -14.470  44.178  0.00  0.00    -0.267 OA
ENDBRANCH   1   7
BRANCH   2  14
ATOM     14  C   UNL d   1      46.266 -18.325  43.852  0.00  0.00     0.300 C 
ATOM     15  O   UNL d   1      46.103 -18.927  44.420  0.00  0.00    -0.259 OA
BRANCH  14  16
ATOM     16  O   UNL d   1      46.647 -18.516  43.143  0.00  0.00    -0.271 OA
BRANCH  16  17
ATOM     17  C   UNL d   1      46.472 -19.236  42.756  0.00  0.00     0.126 C 
ATOM     18  C   UNL d   1      46.616 -19.293  41.952  0.00  0.00     0.029 C 
ENDBRANCH  16  17
ENDBRANCH  14  16
ENDBRANCH   2  14
TORSDOF 4
ENDMDL
