MODEL 1
REMARK VINA RESULT:      31.1      0.000      0.000
REMARK  4 active torsions:
REMARK  status: ('A' for Active; 'I' for Inactive)
REMARK    1  A    between atoms: C_2  and  C_1 
REMARK    2  A    between atoms: C_6  and  C_2 
REMARK    3  A    between atoms: C_9  and  C_6 
REMARK    4  A    between atoms: O_18  and  C_12 
ROOT
ATOM      1  C   UNL d   1      59.650  49.274  51.148  0.00  0.00     0.199 C 
ATOM      2  O   UNL d   1      59.225  48.693  51.469  0.00  0.00    -0.286 OA
ENDROOT
BRANCH   1   3
ATOM      3  C   UNL d   1      60.468  49.384  51.524  0.00  0.00     0.078 A 
ATOM      4  C   UNL d   1      61.118  49.343  51.017  0.00  0.00     0.202 A 
ATOM      5  C   UNL d   1      61.922  49.447  51.361  0.00  0.00     0.084 A 
ATOM      6  O   UNL d   1      61.017  49.209  50.212  0.00  0.00    -0.286 OA
ATOM      7  C   UNL d   1      62.011  49.584  52.190  0.00  0.00     0.199 A 
ATOM      8  C   UNL d   1      61.347  49.619  52.665  0.00  0.00     0.042 A 
ATOM      9  O   UNL d   1      62.798  49.683  52.508  0.00  0.00    -0.286 OA
ATOM     10  C   UNL d   1      60.555  49.518  52.334  0.00  0.00     0.010 A 
ENDBRANCH   1   3
BRANCH   1  11
ATOM     11  C   UNL d   1      59.444  49.702  50.603  0.00  0.00     0.042 C 
BRANCH  11  12
ATOM     12  C   UNL d   1      58.673  49.703  50.375  0.00  0.00     0.003 A 
ATOM     13  C   UNL d   1      58.088  49.702  50.924  0.00  0.00     0.002 A 
ATOM     14  C   UNL d   1      57.278  49.703  50.688  0.00  0.00     0.024 A 
ATOM     15  C   UNL d   1      57.064  49.705  49.896  0.00  0.00     0.094 A 
ATOM     16  C   UNL d   1      57.652  49.706  49.338  0.00  0.00     0.024 A 
ATOM     17  C   UNL d   1      58.445  49.705  49.550  0.00  0.00     0.002 A 
BRANCH  15  18
ATOM     18  O   UNL d   1      56.245  49.706  49.654  0.00  0.00    -0.328 OA
ATOM     19  C   UNL d   1      56.036  49.522  48.882  0.00  0.00     0.181 C 
ENDBRANCH  15  18
ENDBRANCH  11  12
ENDBRANCH   1  11
TORSDOF 4
ENDMDL
