MODEL 1
REMARK VINA RESULT:     114.3      0.000      0.000
REMARK  3 active torsions:
REMARK  status: ('A' for Active; 'I' for Inactive)
REMARK    1  A    between atoms: N_6  and  C_1 
REMARK       I    between atoms: C_8  and  N_6 
REMARK       I    between atoms: C_11  and  N_7 
REMARK    2  A    between atoms: C_14  and  C_8 
REMARK    3  A    between atoms: O_23  and  C_20 
ROOT
ATOM      1  C   UNL d   1      61.244  45.453  50.587  0.00  0.00     0.124 A 
ATOM      2  C   UNL d   1      61.847  45.170  50.099  0.00  0.00     0.093 A 
ATOM      3  C   UNL d   1      61.594  44.234  51.009  0.00  0.00     0.049 A 
ATOM      4  C   UNL d   1      62.061  44.407  50.370  0.00  0.00     0.021 A 
ATOM      5  S   UNL d   1      61.084  44.870  51.156  0.00  0.00    -0.066 SA
ATOM      6  N   UNL d   1      62.243  42.957  51.136  0.00  0.00    -0.272 N 
ATOM      7  C   UNL d   1      61.682  43.492  51.407  0.00  0.00     0.089 A 
ATOM      8  C   UNL d   1      62.176  45.572  49.461  0.00  0.00     0.103 C 
ATOM      9  C   UNL d   1      62.340  42.227  51.517  0.00  0.00     0.265 C 
ATOM     10  N   UNL d   1      62.503  45.969  48.828  0.00  0.00    -0.191 NA
ATOM     11  C   UNL d   1      62.631  43.871  50.089  0.00  0.00     0.020 A 
ATOM     12  C   UNL d   1      62.716  43.146  50.479  0.00  0.00     0.083 A 
ATOM     13  O   UNL d   1      61.871  42.040  52.167  0.00  0.00    -0.267 OA
ATOM     14  C   UNL d   1      62.903  41.688  51.246  0.00  0.00     0.066 C 
ENDROOT
BRANCH   1  15
ATOM     15  N   UNL d   1      60.861  46.189  50.523  0.00  0.00    -0.201 NA
ATOM     16  C   UNL d   1      60.936  46.736  51.135  0.00  0.00     0.280 C 
ATOM     17  O   UNL d   1      61.380  46.569  51.805  0.00  0.00    -0.265 OA
BRANCH  16  18
ATOM     18  C   UNL d   1      60.558  47.464  51.072  0.00  0.00     0.058 A 
ATOM     19  C   UNL d   1      59.748  47.516  51.149  0.00  0.00     0.007 A 
ATOM     20  C   UNL d   1      59.366  48.251  51.086  0.00  0.00     0.024 A 
ATOM     21  C   UNL d   1      59.812  48.926  50.944  0.00  0.00     0.094 A 
ATOM     22  C   UNL d   1      60.628  48.879  50.866  0.00  0.00     0.024 A 
ATOM     23  C   UNL d   1      61.006  48.151  50.929  0.00  0.00     0.007 A 
BRANCH  21  24
ATOM     24  O   UNL d   1      59.428  49.666  50.880  0.00  0.00    -0.328 OA
ATOM     25  C   UNL d   1      58.612  49.708  50.727  0.00  0.00     0.181 C 
ENDBRANCH  21  24
ENDBRANCH  16  18
ENDBRANCH   1  15
TORSDOF 3
ENDMDL
MODEL 2
REMARK VINA RESULT:     116.9      1.018      5.190
REMARK  3 active torsions:
REMARK  status: ('A' for Active; 'I' for Inactive)
REMARK    1  A    between atoms: N_6  and  C_1 
REMARK       I    between atoms: C_8  and  N_6 
REMARK       I    between atoms: C_11  and  N_7 
REMARK    2  A    between atoms: C_14  and  C_8 
REMARK    3  A    between atoms: O_23  and  C_20 
ROOT
ATOM      1  C   UNL d   1      61.668  45.873  50.639  0.00  0.00     0.124 A 
ATOM      2  C   UNL d   1      61.876  46.444  50.079  0.00  0.00     0.093 A 
ATOM      3  C   UNL d   1      61.017  47.005  50.926  0.00  0.00     0.049 A 
ATOM      4  C   UNL d   1      61.464  47.149  50.265  0.00  0.00     0.021 A 
ATOM      5  S   UNL d   1      61.132  46.221  51.169  0.00  0.00    -0.066 SA
ATOM      6  N   UNL d   1      60.527  48.356  50.888  0.00  0.00    -0.272 N 
ATOM      7  C   UNL d   1      60.534  47.619  51.251  0.00  0.00     0.089 A 
ATOM      8  C   UNL d   1      62.395  46.334  49.452  0.00  0.00     0.103 C 
ATOM      9  C   UNL d   1      60.058  48.967  51.196  0.00  0.00     0.265 C 
ATOM     10  N   UNL d   1      62.911  46.225  48.828  0.00  0.00    -0.191 NA
ATOM     11  C   UNL d   1      61.462  47.892  49.893  0.00  0.00     0.020 A 
ATOM     12  C   UNL d   1      60.990  48.492  50.211  0.00  0.00     0.083 A 
ATOM     13  O   UNL d   1      59.600  48.832  51.867  0.00  0.00    -0.267 OA
ATOM     14  C   UNL d   1      60.050  49.708  50.834  0.00  0.00     0.066 C 
ENDROOT
BRANCH   1  15
ATOM     15  N   UNL d   1      61.945  45.089  50.671  0.00  0.00    -0.201 NA
ATOM     16  C   UNL d   1      61.535  44.535  51.123  0.00  0.00     0.280 C 
ATOM     17  O   UNL d   1      60.860  44.742  51.542  0.00  0.00    -0.265 OA
BRANCH  16  18
ATOM     18  C   UNL d   1      61.809  43.760  51.154  0.00  0.00     0.058 A 
ATOM     19  C   UNL d   1      61.580  43.266  51.761  0.00  0.00     0.007 A 
ATOM     20  C   UNL d   1      61.856  42.483  51.792  0.00  0.00     0.024 A 
ATOM     21  C   UNL d   1      62.362  42.210  51.206  0.00  0.00     0.094 A 
ATOM     22  C   UNL d   1      62.595  42.704  50.593  0.00  0.00     0.024 A 
ATOM     23  C   UNL d   1      62.322  43.480  50.562  0.00  0.00     0.007 A 
BRANCH  21  24
ATOM     24  O   UNL d   1      62.640  41.423  51.238  0.00  0.00    -0.328 OA
ATOM     25  C   UNL d   1      63.113  41.115  50.628  0.00  0.00     0.181 C 
ENDBRANCH  21  24
ENDBRANCH  16  18
ENDBRANCH   1  15
TORSDOF 3
ENDMDL
