MODEL 1
REMARK VINA RESULT:      11.2      0.000      0.000
REMARK  3 active torsions:
REMARK  status: ('A' for Active; 'I' for Inactive)
REMARK    1  A    between atoms: N_7  and  C_3 
REMARK       I    between atoms: C_8  and  N_7 
REMARK    2  A    between atoms: C_14  and  C_8 
REMARK    3  A    between atoms: C_15  and  C_14 
ROOT
ATOM      1  C   UNL d   1      44.789 -13.307  43.801  0.00  0.00     0.343 A 
ATOM      2  N   UNL d   1      44.692 -14.061  44.100  0.00  0.00    -0.241 N 
ATOM      3  C   UNL d   1      45.223 -14.360  44.651  0.00  0.00     0.159 A 
ATOM      4  N   UNL d   1      45.423 -12.843  44.052  0.00  0.00    -0.224 N 
ATOM      5  C   UNL d   1      45.857 -13.896  44.902  0.00  0.00     0.099 A 
ATOM      6  C   UNL d   1      45.966 -13.129  44.605  0.00  0.00     0.271 A 
ATOM      7  O   UNL d   1      44.254 -13.008  43.247  0.00  0.00    -0.245 OA
ATOM      8  O   UNL d   1      46.594 -12.669  44.854  0.00  0.00    -0.266 OA
ATOM      9  C   UNL d   1      44.057 -14.525  43.848  0.00  0.00     0.105 C 
ATOM     10  C   UNL d   1      45.522 -12.080  43.750  0.00  0.00     0.107 C 
ENDROOT
BRANCH   3  11
ATOM     11  N   UNL d   1      45.125 -15.123  44.954  0.00  0.00    -0.190 NA
ATOM     12  C   UNL d   1      45.568 -15.747  44.652  0.00  0.00     0.281 C 
ATOM     13  O   UNL d   1      46.111 -15.612  44.045  0.00  0.00    -0.265 OA
BRANCH  12  14
ATOM     14  C   UNL d   1      45.469 -16.506  44.955  0.00  0.00     0.063 C 
BRANCH  14  15
ATOM     15  C   UNL d   1      46.090 -17.047  44.910  0.00  0.00     0.005 C 
ATOM     16  C   UNL d   1      45.953 -17.843  44.903  0.00  0.00     0.000 C 
ENDBRANCH  14  15
ENDBRANCH  12  14
ENDBRANCH   3  11
TORSDOF 3
ENDMDL
MODEL 2
REMARK VINA RESULT:      13.0      2.772      4.878
REMARK  3 active torsions:
REMARK  status: ('A' for Active; 'I' for Inactive)
REMARK    1  A    between atoms: N_7  and  C_3 
REMARK       I    between atoms: C_8  and  N_7 
REMARK    2  A    between atoms: C_14  and  C_8 
REMARK    3  A    between atoms: C_15  and  C_14 
ROOT
ATOM      1  C   UNL d   1      46.486 -19.375  42.991  0.00  0.00     0.343 A 
ATOM      2  N   UNL d   1      46.372 -18.937  43.671  0.00  0.00    -0.241 N 
ATOM      3  C   UNL d   1      46.302 -18.119  43.629  0.00  0.00     0.159 A 
ATOM      4  N   UNL d   1      46.531 -18.996  42.259  0.00  0.00    -0.224 N 
ATOM      5  C   UNL d   1      46.348 -17.740  42.898  0.00  0.00     0.099 A 
ATOM      6  C   UNL d   1      46.463 -18.176  42.201  0.00  0.00     0.271 A 
ATOM      7  O   UNL d   1      46.556 -20.197  43.034  0.00  0.00    -0.245 OA
ATOM      8  O   UNL d   1      46.508 -17.800  41.476  0.00  0.00    -0.266 OA
ATOM      9  C   UNL d   1      46.327 -19.315  44.402  0.00  0.00     0.105 C 
ATOM     10  C   UNL d   1      46.646 -19.440  41.571  0.00  0.00     0.107 C 
ENDROOT
BRANCH   3  11
ATOM     11  N   UNL d   1      46.187 -17.674  44.317  0.00  0.00    -0.190 NA
ATOM     12  C   UNL d   1      45.929 -16.895  44.265  0.00  0.00     0.281 C 
ATOM     13  O   UNL d   1      45.785 -16.556  43.527  0.00  0.00    -0.265 OA
BRANCH  12  14
ATOM     14  C   UNL d   1      45.815 -16.454  44.951  0.00  0.00     0.063 C 
BRANCH  14  15
ATOM     15  C   UNL d   1      45.420 -15.730  44.910  0.00  0.00     0.005 C 
ATOM     16  C   UNL d   1      45.803 -15.057  44.680  0.00  0.00     0.000 C 
ENDBRANCH  14  15
ENDBRANCH  12  14
ENDBRANCH   3  11
TORSDOF 3
ENDMDL
