MODEL 1
REMARK VINA RESULT:      -1.8      0.000      0.000
REMARK  1 active torsions:
REMARK  status: ('A' for Active; 'I' for Inactive)
REMARK    1  A    between atoms: C_7  and  C_5 
ROOT
ATOM      1  C   UNL d   1      29.640  17.004 -24.150  0.00  0.00     0.110 A 
ATOM      2  C   UNL d   1      29.425  18.209 -24.694  0.00  0.00     0.332 A 
ATOM      3  C   UNL d   1      28.859  17.218 -24.003  0.00  0.00     0.060 A 
ATOM      4  S   UNL d   1      28.723  17.959 -24.337  0.00  0.00    -0.018 SA
ATOM      5  C   UNL d   1      29.940  16.284 -23.881  0.00  0.00     0.027 A 
ATOM      6  O   UNL d   1      29.992  17.618 -24.579  0.00  0.00    -0.268 OA
ATOM      7  C   UNL d   1      28.368  16.692 -23.574  0.00  0.00     0.051 A 
ATOM      8  C   UNL d   1      29.454  15.768 -23.458  0.00  0.00     0.044 A 
ATOM      9  O   UNL d   1      29.544  18.921 -25.097  0.00  0.00    -0.251 OA
ATOM     10  C   UNL d   1      28.668  15.973 -23.305  0.00  0.00     0.196 A 
ATOM     11  O   UNL d   1      28.182  15.453 -22.880  0.00  0.00    -0.286 OA
ENDROOT
BRANCH   5  12
ATOM     12  C   UNL d   1      30.726  16.080 -24.035  0.00  0.00     0.004 A 
ATOM     13  C   UNL d   1      31.317  16.275 -23.493  0.00  0.00     0.030 A 
ATOM     14  C   UNL d   1      32.104  16.071 -23.647  0.00  0.00     0.140 A 
ATOM     15  F   UNL d   1      32.699  16.265 -23.106  0.00  0.00    -0.204 F 
ATOM     16  C   UNL d   1      32.299  15.672 -24.342  0.00  0.00     0.030 A 
ATOM     17  C   UNL d   1      31.708  15.477 -24.883  0.00  0.00     0.002 A 
ATOM     18  C   UNL d   1      30.921  15.681 -24.730  0.00  0.00     0.000 A 
ENDBRANCH   5  12
TORSDOF 1
ENDMDL
MODEL 2
REMARK VINA RESULT:      -1.8      1.060      2.073
REMARK  1 active torsions:
REMARK  status: ('A' for Active; 'I' for Inactive)
REMARK    1  A    between atoms: C_7  and  C_5 
ROOT
ATOM      1  C   UNL d   1      29.476  16.924 -23.823  0.00  0.00     0.110 A 
ATOM      2  C   UNL d   1      28.942  16.072 -22.939  0.00  0.00     0.332 A 
ATOM      3  C   UNL d   1      28.682  17.118 -23.724  0.00  0.00     0.060 A 
ATOM      4  S   UNL d   1      28.351  16.595 -23.180  0.00  0.00    -0.018 SA
ATOM      5  C   UNL d   1      29.957  17.354 -24.337  0.00  0.00     0.027 A 
ATOM      6  O   UNL d   1      29.639  16.275 -23.336  0.00  0.00    -0.268 OA
ATOM      7  C   UNL d   1      28.365  17.762 -24.156  0.00  0.00     0.051 A 
ATOM      8  C   UNL d   1      29.642  17.988 -24.761  0.00  0.00     0.044 A 
ATOM      9  O   UNL d   1      28.859  15.453 -22.397  0.00  0.00    -0.251 OA
ATOM     10  C   UNL d   1      28.845  18.192 -24.670  0.00  0.00     0.196 A 
ATOM     11  O   UNL d   1      28.531  18.829 -25.097  0.00  0.00    -0.286 OA
ENDROOT
BRANCH   5  12
ATOM     12  C   UNL d   1      30.753  17.150 -24.428  0.00  0.00     0.004 A 
ATOM     13  C   UNL d   1      31.328  17.510 -23.958  0.00  0.00     0.030 A 
ATOM     14  C   UNL d   1      32.124  17.306 -24.049  0.00  0.00     0.140 A 
ATOM     15  F   UNL d   1      32.703  17.663 -23.579  0.00  0.00    -0.204 F 
ATOM     16  C   UNL d   1      32.345  16.743 -24.610  0.00  0.00     0.030 A 
ATOM     17  C   UNL d   1      31.770  16.384 -25.080  0.00  0.00     0.002 A 
ATOM     18  C   UNL d   1      30.974  16.588 -24.989  0.00  0.00     0.000 A 
ENDBRANCH   5  12
TORSDOF 1
ENDMDL
MODEL 3
REMARK VINA RESULT:      -0.5      5.978      6.716
REMARK  1 active torsions:
REMARK  status: ('A' for Active; 'I' for Inactive)
REMARK    1  A    between atoms: C_7  and  C_5 
ROOT
ATOM      1  C   UNL d   1      32.824  22.515 -21.822  0.00  0.00     0.110 A 
ATOM      2  C   UNL d   1      33.042  23.116 -22.999  0.00  0.00     0.332 A 
ATOM      3  C   UNL d   1      32.724  23.325 -21.721  0.00  0.00     0.060 A 
ATOM      4  S   UNL d   1      32.857  23.698 -22.443  0.00  0.00    -0.018 SA
ATOM      5  C   UNL d   1      32.727  21.993 -21.190  0.00  0.00     0.027 A 
ATOM      6  O   UNL d   1      33.022  22.384 -22.615  0.00  0.00    -0.268 OA
ATOM      7  C   UNL d   1      32.519  23.617 -20.962  0.00  0.00     0.051 A 
ATOM      8  C   UNL d   1      32.525  22.283 -20.445  0.00  0.00     0.044 A 
ATOM      9  O   UNL d   1      33.217  23.238 -23.798  0.00  0.00    -0.251 OA
ATOM     10  C   UNL d   1      32.421  23.095 -20.331  0.00  0.00     0.196 A 
ATOM     11  O   UNL d   1      32.219  23.384 -19.581  0.00  0.00    -0.286 OA
ENDROOT
BRANCH   5  12
ATOM     12  C   UNL d   1      32.831  21.180 -21.305  0.00  0.00     0.004 A 
ATOM     13  C   UNL d   1      32.628  20.836 -22.026  0.00  0.00     0.030 A 
ATOM     14  C   UNL d   1      32.732  20.023 -22.140  0.00  0.00     0.140 A 
ATOM     15  F   UNL d   1      32.531  19.673 -22.863  0.00  0.00    -0.204 F 
ATOM     16  C   UNL d   1      33.039  19.557 -21.533  0.00  0.00     0.030 A 
ATOM     17  C   UNL d   1      33.241  19.901 -20.811  0.00  0.00     0.002 A 
ATOM     18  C   UNL d   1      33.137  20.714 -20.697  0.00  0.00     0.000 A 
ENDBRANCH   5  12
TORSDOF 1
ENDMDL
MODEL 4
REMARK VINA RESULT:      -0.4      5.719      6.656
REMARK  1 active torsions:
REMARK  status: ('A' for Active; 'I' for Inactive)
REMARK    1  A    between atoms: C_7  and  C_5 
ROOT
ATOM      1  C   UNL d   1      32.552  22.515 -21.810  0.00  0.00     0.110 A 
ATOM      2  C   UNL d   1      32.034  23.142 -20.745  0.00  0.00     0.332 A 
ATOM      3  C   UNL d   1      32.469  23.313 -21.994  0.00  0.00     0.060 A 
ATOM      4  S   UNL d   1      32.151  23.702 -21.341  0.00  0.00    -0.018 SA
ATOM      5  C   UNL d   1      32.859  21.982 -22.359  0.00  0.00     0.027 A 
ATOM      6  O   UNL d   1      32.282  22.408 -21.034  0.00  0.00    -0.268 OA
ATOM      7  C   UNL d   1      32.703  23.580 -22.753  0.00  0.00     0.051 A 
ATOM      8  C   UNL d   1      33.088  22.248 -23.106  0.00  0.00     0.044 A 
ATOM      9  O   UNL d   1      31.725  23.284 -19.991  0.00  0.00    -0.251 OA
ATOM     10  C   UNL d   1      33.010  23.047 -23.303  0.00  0.00     0.196 A 
ATOM     11  O   UNL d   1      33.241  23.312 -24.053  0.00  0.00    -0.286 OA
ENDROOT
BRANCH   5  12
ATOM     12  C   UNL d   1      32.937  21.183 -22.162  0.00  0.00     0.004 A 
ATOM     13  C   UNL d   1      32.788  20.601 -22.728  0.00  0.00     0.030 A 
ATOM     14  C   UNL d   1      32.866  19.802 -22.531  0.00  0.00     0.140 A 
ATOM     15  F   UNL d   1      32.718  19.216 -23.096  0.00  0.00    -0.204 F 
ATOM     16  C   UNL d   1      33.092  19.585 -21.768  0.00  0.00     0.030 A 
ATOM     17  C   UNL d   1      33.241  20.166 -21.202  0.00  0.00     0.002 A 
ATOM     18  C   UNL d   1      33.163  20.966 -21.399  0.00  0.00     0.000 A 
ENDBRANCH   5  12
TORSDOF 1
ENDMDL
MODEL 5
REMARK VINA RESULT:      -0.2      2.305      3.493
REMARK  1 active torsions:
REMARK  status: ('A' for Active; 'I' for Inactive)
REMARK    1  A    between atoms: C_7  and  C_5 
ROOT
ATOM      1  C   UNL d   1      32.122  17.647 -24.049  0.00  0.00     0.110 A 
ATOM      2  C   UNL d   1      32.654  18.668 -23.365  0.00  0.00     0.332 A 
ATOM      3  C   UNL d   1      32.898  17.452 -23.856  0.00  0.00     0.060 A 
ATOM      4  S   UNL d   1      33.228  18.078 -23.434  0.00  0.00    -0.018 SA
ATOM      5  C   UNL d   1      31.647  17.124 -24.475  0.00  0.00     0.027 A 
ATOM      6  O   UNL d   1      31.970  18.402 -23.745  0.00  0.00    -0.268 OA
ATOM      7  C   UNL d   1      33.202  16.710 -24.098  0.00  0.00     0.051 A 
ATOM      8  C   UNL d   1      31.949  16.394 -24.712  0.00  0.00     0.044 A 
ATOM      9  O   UNL d   1      32.742  19.397 -22.984  0.00  0.00    -0.251 OA
ATOM     10  C   UNL d   1      32.727  16.187 -24.523  0.00  0.00     0.196 A 
ATOM     11  O   UNL d   1      33.029  15.453 -24.762  0.00  0.00    -0.286 OA
ENDROOT
BRANCH   5  12
ATOM     12  C   UNL d   1      30.869  17.331 -24.664  0.00  0.00     0.004 A 
ATOM     13  C   UNL d   1      30.276  16.758 -24.657  0.00  0.00     0.030 A 
ATOM     14  C   UNL d   1      29.498  16.965 -24.846  0.00  0.00     0.140 A 
ATOM     15  F   UNL d   1      28.900  16.393 -24.841  0.00  0.00    -0.204 F 
ATOM     16  C   UNL d   1      29.314  17.745 -25.041  0.00  0.00     0.030 A 
ATOM     17  C   UNL d   1      29.907  18.318 -25.047  0.00  0.00     0.002 A 
ATOM     18  C   UNL d   1      30.685  18.111 -24.858  0.00  0.00     0.000 A 
ENDBRANCH   5  12
TORSDOF 1
ENDMDL
MODEL 6
REMARK VINA RESULT:      -0.2      3.725      4.415
REMARK  1 active torsions:
REMARK  status: ('A' for Active; 'I' for Inactive)
REMARK    1  A    between atoms: C_7  and  C_5 
ROOT
ATOM      1  C   UNL d   1      33.009  19.967 -23.324  0.00  0.00     0.110 A 
ATOM      2  C   UNL d   1      33.093  21.149 -23.949  0.00  0.00     0.332 A 
ATOM      3  C   UNL d   1      33.166  20.546 -22.761  0.00  0.00     0.060 A 
ATOM      4  S   UNL d   1      33.218  21.275 -23.142  0.00  0.00    -0.018 SA
ATOM      5  C   UNL d   1      32.926  19.175 -23.107  0.00  0.00     0.027 A 
ATOM      6  O   UNL d   1      32.964  20.340 -24.062  0.00  0.00    -0.268 OA
ATOM      7  C   UNL d   1      33.241  20.320 -21.958  0.00  0.00     0.051 A 
ATOM      8  C   UNL d   1      33.000  18.956 -22.316  0.00  0.00     0.044 A 
ATOM      9  O   UNL d   1      33.096  21.725 -24.542  0.00  0.00    -0.251 OA
ATOM     10  C   UNL d   1      33.158  19.529 -21.740  0.00  0.00     0.196 A 
ATOM     11  O   UNL d   1      33.232  19.307 -20.946  0.00  0.00    -0.286 OA
ENDROOT
BRANCH   5  12
ATOM     12  C   UNL d   1      32.769  18.602 -23.682  0.00  0.00     0.004 A 
ATOM     13  C   UNL d   1      32.140  18.078 -23.582  0.00  0.00     0.030 A 
ATOM     14  C   UNL d   1      31.982  17.505 -24.157  0.00  0.00     0.140 A 
ATOM     15  F   UNL d   1      31.352  16.978 -24.060  0.00  0.00    -0.204 F 
ATOM     16  C   UNL d   1      32.454  17.457 -24.832  0.00  0.00     0.030 A 
ATOM     17  C   UNL d   1      33.083  17.981 -24.933  0.00  0.00     0.002 A 
ATOM     18  C   UNL d   1      33.240  18.554 -24.357  0.00  0.00     0.000 A 
ENDBRANCH   5  12
TORSDOF 1
ENDMDL
MODEL 7
REMARK VINA RESULT:       0.3      6.096      6.939
REMARK  1 active torsions:
REMARK  status: ('A' for Active; 'I' for Inactive)
REMARK    1  A    between atoms: C_7  and  C_5 
ROOT
ATOM      1  C   UNL d   1      32.765  22.073 -21.400  0.00  0.00     0.110 A 
ATOM      2  C   UNL d   1      32.392  22.763 -20.314  0.00  0.00     0.332 A 
ATOM      3  C   UNL d   1      32.697  21.547 -20.770  0.00  0.00     0.060 A 
ATOM      4  S   UNL d   1      32.467  21.969 -20.100  0.00  0.00    -0.018 SA
ATOM      5  C   UNL d   1      32.989  21.810 -22.149  0.00  0.00     0.027 A 
ATOM      6  O   UNL d   1      32.576  22.828 -21.118  0.00  0.00    -0.268 OA
ATOM      7  C   UNL d   1      32.858  20.735 -20.900  0.00  0.00     0.051 A 
ATOM      8  C   UNL d   1      33.147  21.010 -22.274  0.00  0.00     0.044 A 
ATOM      9  O   UNL d   1      32.171  23.387 -19.818  0.00  0.00    -0.251 OA
ATOM     10  C   UNL d   1      33.082  20.472 -21.649  0.00  0.00     0.196 A 
ATOM     11  O   UNL d   1      33.241  19.669 -21.776  0.00  0.00    -0.286 OA
ENDROOT
BRANCH   5  12
ATOM     12  C   UNL d   1      33.055  22.347 -22.774  0.00  0.00     0.004 A 
ATOM     13  C   UNL d   1      32.999  22.083 -23.553  0.00  0.00     0.030 A 
ATOM     14  C   UNL d   1      33.065  22.621 -24.178  0.00  0.00     0.140 A 
ATOM     15  F   UNL d   1      33.010  22.360 -24.961  0.00  0.00    -0.204 F 
ATOM     16  C   UNL d   1      33.186  23.422 -24.023  0.00  0.00     0.030 A 
ATOM     17  C   UNL d   1      33.241  23.686 -23.243  0.00  0.00     0.002 A 
ATOM     18  C   UNL d   1      33.175  23.148 -22.618  0.00  0.00     0.000 A 
ENDBRANCH   5  12
TORSDOF 1
ENDMDL
