MODEL 1
REMARK VINA RESULT:      -9.1      0.000      0.000
REMARK  2 active torsions:
REMARK  status: ('A' for Active; 'I' for Inactive)
REMARK    1  A    between atoms: C_6  and  C_1 
REMARK    2  A    between atoms: C_7  and  C_5 
ROOT
ATOM      1  C   UNL d   1      54.509  33.327  54.692  0.00  0.00     0.169 A 
ATOM      2  C   UNL d   1      53.969  32.815  55.060  0.00  0.00     0.048 A 
ATOM      3  N   UNL d   1      54.483  32.523  53.528  0.00  0.00    -0.148 NA
ATOM      4  N   UNL d   1      54.768  33.183  53.925  0.00  0.00    -0.142 NA
ATOM      5  C   UNL d   1      53.945  32.012  53.891  0.00  0.00     0.105 A 
ENDROOT
BRANCH   5   6
ATOM      6  C   UNL d   1      53.555  31.321  53.670  0.00  0.00     0.019 A 
ATOM      7  C   UNL d   1      53.691  30.624  54.091  0.00  0.00     0.002 A 
ATOM      8  C   UNL d   1      53.301  29.934  53.871  0.00  0.00     0.000 A 
ATOM      9  C   UNL d   1      53.439  29.206  54.305  0.00  0.00     0.000 C 
ATOM     10  C   UNL d   1      52.776  29.939  53.229  0.00  0.00     0.000 A 
ATOM     11  C   UNL d   1      52.646  30.639  52.815  0.00  0.00     0.000 A 
ATOM     12  C   UNL d   1      52.386  29.245  53.010  0.00  0.00     0.000 C 
ATOM     13  C   UNL d   1      53.032  31.327  53.032  0.00  0.00     0.002 A 
ENDBRANCH   5   6
BRANCH   1  14
ATOM     14  C   UNL d   1      54.789  33.988  55.104  0.00  0.00     0.231 C 
ATOM     15  O   UNL d   1      54.290  34.629  55.235  0.00  0.00    -0.643 OA
ATOM     16  O   UNL d   1      55.560  34.005  55.379  0.00  0.00    -0.643 OA
ENDBRANCH   1  14
TORSDOF 2
ENDMDL
MODEL 2
REMARK VINA RESULT:      -8.7      2.592      4.045
REMARK  2 active torsions:
REMARK  status: ('A' for Active; 'I' for Inactive)
REMARK    1  A    between atoms: C_6  and  C_1 
REMARK    2  A    between atoms: C_7  and  C_5 
ROOT
ATOM      1  C   UNL d   1      52.975  30.585  53.325  0.00  0.00     0.169 A 
ATOM      2  C   UNL d   1      53.198  31.020  53.995  0.00  0.00     0.048 A 
ATOM      3  N   UNL d   1      52.654  31.785  52.648  0.00  0.00    -0.148 NA
ATOM      4  N   UNL d   1      52.702  30.966  52.649  0.00  0.00    -0.142 NA
ATOM      5  C   UNL d   1      52.875  32.222  53.313  0.00  0.00     0.105 A 
ENDROOT
BRANCH   5   6
ATOM      6  C   UNL d   1      52.900  33.023  53.505  0.00  0.00     0.019 A 
ATOM      7  C   UNL d   1      53.386  33.278  54.121  0.00  0.00     0.002 A 
ATOM      8  C   UNL d   1      53.411  34.078  54.314  0.00  0.00     0.000 A 
ATOM      9  C   UNL d   1      53.915  34.349  54.954  0.00  0.00     0.000 C 
ATOM     10  C   UNL d   1      52.950  34.622  53.891  0.00  0.00     0.000 A 
ATOM     11  C   UNL d   1      52.468  34.358  53.278  0.00  0.00     0.000 A 
ATOM     12  C   UNL d   1      52.977  35.424  54.086  0.00  0.00     0.000 C 
ATOM     13  C   UNL d   1      52.441  33.563  53.084  0.00  0.00     0.002 A 
ENDBRANCH   5   6
BRANCH   1  14
ATOM     14  C   UNL d   1      53.028  29.759  53.339  0.00  0.00     0.231 C 
ATOM     15  O   UNL d   1      53.617  29.395  53.782  0.00  0.00    -0.643 OA
ATOM     16  O   UNL d   1      52.495  29.305  52.913  0.00  0.00    -0.643 OA
ENDBRANCH   1  14
TORSDOF 2
ENDMDL
MODEL 3
REMARK VINA RESULT:      -8.3      3.140      4.188
REMARK  2 active torsions:
REMARK  status: ('A' for Active; 'I' for Inactive)
REMARK    1  A    between atoms: C_6  and  C_1 
REMARK    2  A    between atoms: C_7  and  C_5 
ROOT
ATOM      1  C   UNL d   1      50.644  34.331  52.695  0.00  0.00     0.169 A 
ATOM      2  C   UNL d   1      50.724  34.068  53.478  0.00  0.00     0.048 A 
ATOM      3  N   UNL d   1      52.049  34.288  52.534  0.00  0.00    -0.148 NA
ATOM      4  N   UNL d   1      51.307  34.442  52.220  0.00  0.00    -0.142 NA
ATOM      5  C   UNL d   1      52.132  34.027  53.313  0.00  0.00     0.105 A 
ENDROOT
BRANCH   5   6
ATOM      6  C   UNL d   1      52.767  33.825  53.798  0.00  0.00     0.019 A 
ATOM      7  C   UNL d   1      53.084  33.065  53.757  0.00  0.00     0.002 A 
ATOM      8  C   UNL d   1      53.718  32.862  54.241  0.00  0.00     0.000 A 
ATOM      9  C   UNL d   1      54.051  32.072  54.203  0.00  0.00     0.000 C 
ATOM     10  C   UNL d   1      54.036  33.421  54.766  0.00  0.00     0.000 A 
ATOM     11  C   UNL d   1      53.714  34.178  54.799  0.00  0.00     0.000 A 
ATOM     12  C   UNL d   1      54.673  33.215  55.250  0.00  0.00     0.000 C 
ATOM     13  C   UNL d   1      53.083  34.382  54.319  0.00  0.00     0.002 A 
ENDBRANCH   5   6
BRANCH   1  14
ATOM     14  C   UNL d   1      49.889  34.481  52.390  0.00  0.00     0.231 C 
ATOM     15  O   UNL d   1      49.335  34.877  52.850  0.00  0.00    -0.643 OA
ATOM     16  O   UNL d   1      49.695  34.237  51.632  0.00  0.00    -0.643 OA
ENDBRANCH   1  14
TORSDOF 2
ENDMDL
MODEL 4
REMARK VINA RESULT:      -8.1      1.589      2.098
REMARK  2 active torsions:
REMARK  status: ('A' for Active; 'I' for Inactive)
REMARK    1  A    between atoms: C_6  and  C_1 
REMARK    2  A    between atoms: C_7  and  C_5 
ROOT
ATOM      1  C   UNL d   1      52.980  34.846  54.096  0.00  0.00     0.169 A 
ATOM      2  C   UNL d   1      53.288  34.276  54.615  0.00  0.00     0.048 A 
ATOM      3  N   UNL d   1      52.801  33.851  53.106  0.00  0.00    -0.148 NA
ATOM      4  N   UNL d   1      52.735  34.635  53.339  0.00  0.00    -0.142 NA
ATOM      5  C   UNL d   1      53.107  33.281  53.620  0.00  0.00     0.105 A 
ENDROOT
BRANCH   5   6
ATOM      6  C   UNL d   1      53.249  32.471  53.577  0.00  0.00     0.019 A 
ATOM      7  C   UNL d   1      52.699  31.981  53.206  0.00  0.00     0.002 A 
ATOM      8  C   UNL d   1      52.840  31.171  53.163  0.00  0.00     0.000 A 
ATOM      9  C   UNL d   1      52.271  30.656  52.779  0.00  0.00     0.000 C 
ATOM     10  C   UNL d   1      53.533  30.852  53.490  0.00  0.00     0.000 A 
ATOM     11  C   UNL d   1      54.077  31.349  53.858  0.00  0.00     0.000 A 
ATOM     12  C   UNL d   1      53.673  30.039  53.445  0.00  0.00     0.000 C 
ATOM     13  C   UNL d   1      53.938  32.155  53.902  0.00  0.00     0.002 A 
ENDBRANCH   5   6
BRANCH   1  14
ATOM     14  C   UNL d   1      52.920  35.633  54.344  0.00  0.00     0.231 C 
ATOM     15  O   UNL d   1      53.596  36.097  54.396  0.00  0.00    -0.643 OA
ATOM     16  O   UNL d   1      52.189  35.948  54.537  0.00  0.00    -0.643 OA
ENDBRANCH   1  14
TORSDOF 2
ENDMDL
MODEL 5
REMARK VINA RESULT:      -7.8      2.632      3.264
REMARK  2 active torsions:
REMARK  status: ('A' for Active; 'I' for Inactive)
REMARK    1  A    between atoms: C_6  and  C_1 
REMARK    2  A    between atoms: C_7  and  C_5 
ROOT
ATOM      1  C   UNL d   1      54.316  33.872  54.908  0.00  0.00     0.169 A 
ATOM      2  C   UNL d   1      54.041  33.320  54.353  0.00  0.00     0.048 A 
ATOM      3  N   UNL d   1      53.284  34.765  54.535  0.00  0.00    -0.148 NA
ATOM      4  N   UNL d   1      53.937  34.597  55.001  0.00  0.00    -0.142 NA
ATOM      5  C   UNL d   1      53.008  34.218  53.980  0.00  0.00     0.105 A 
ENDROOT
BRANCH   5   6
ATOM      6  C   UNL d   1      52.390  34.198  53.436  0.00  0.00     0.019 A 
ATOM      7  C   UNL d   1      51.708  33.769  53.611  0.00  0.00     0.002 A 
ATOM      8  C   UNL d   1      51.090  33.749  53.067  0.00  0.00     0.000 A 
ATOM      9  C   UNL d   1      50.377  33.304  53.244  0.00  0.00     0.000 C 
ATOM     10  C   UNL d   1      51.155  34.157  52.348  0.00  0.00     0.000 A 
ATOM     11  C   UNL d   1      51.841  34.583  52.182  0.00  0.00     0.000 A 
ATOM     12  C   UNL d   1      50.534  34.135  51.804  0.00  0.00     0.000 C 
ATOM     13  C   UNL d   1      52.456  34.605  52.721  0.00  0.00     0.002 A 
ENDBRANCH   5   6
BRANCH   1  14
ATOM     14  C   UNL d   1      54.976  33.689  55.373  0.00  0.00     0.231 C 
ATOM     15  O   UNL d   1      54.902  33.159  55.997  0.00  0.00    -0.643 OA
ATOM     16  O   UNL d   1      55.701  34.035  55.211  0.00  0.00    -0.643 OA
ENDBRANCH   1  14
TORSDOF 2
ENDMDL
MODEL 6
REMARK VINA RESULT:      -6.4      4.826      5.586
REMARK  2 active torsions:
REMARK  status: ('A' for Active; 'I' for Inactive)
REMARK    1  A    between atoms: C_6  and  C_1 
REMARK    2  A    between atoms: C_7  and  C_5 
ROOT
ATOM      1  C   UNL d   1      48.690  35.212  52.273  0.00  0.00     0.169 A 
ATOM      2  C   UNL d   1      49.070  35.276  53.008  0.00  0.00     0.048 A 
ATOM      3  N   UNL d   1      49.725  34.366  51.808  0.00  0.00    -0.148 NA
ATOM      4  N   UNL d   1      49.016  34.757  51.670  0.00  0.00    -0.142 NA
ATOM      5  C   UNL d   1      50.106  34.427  52.538  0.00  0.00     0.105 A 
ENDROOT
BRANCH   5   6
ATOM      6  C   UNL d   1      50.799  34.124  52.863  0.00  0.00     0.019 A 
ATOM      7  C   UNL d   1      51.467  34.605  52.919  0.00  0.00     0.002 A 
ATOM      8  C   UNL d   1      52.160  34.303  53.243  0.00  0.00     0.000 A 
ATOM      9  C   UNL d   1      52.858  34.799  53.304  0.00  0.00     0.000 C 
ATOM     10  C   UNL d   1      52.186  33.518  53.512  0.00  0.00     0.000 A 
ATOM     11  C   UNL d   1      51.515  33.045  53.452  0.00  0.00     0.000 A 
ATOM     12  C   UNL d   1      52.883  33.217  53.837  0.00  0.00     0.000 C 
ATOM     13  C   UNL d   1      50.824  33.343  53.130  0.00  0.00     0.002 A 
ENDBRANCH   5   6
BRANCH   1  14
ATOM     14  C   UNL d   1      47.976  35.611  52.148  0.00  0.00     0.231 C 
ATOM     15  O   UNL d   1      47.706  36.150  52.707  0.00  0.00    -0.643 OA
ATOM     16  O   UNL d   1      47.540  35.469  51.469  0.00  0.00    -0.643 OA
ENDBRANCH   1  14
TORSDOF 2
ENDMDL
