MODEL 1
REMARK VINA RESULT:      55.1      0.000      0.000
REMARK  7 active torsions:
REMARK  status: ('A' for Active; 'I' for Inactive)
REMARK    1  A    between atoms: C_11  and  C_4 
REMARK    2  A    between atoms: N_12  and  C_5 
REMARK    3  A    between atoms: C_10  and  C_8 
REMARK    4  A    between atoms: C_15  and  N_12 
REMARK    5  A    between atoms: N_13  and  C_19 
REMARK    6  A    between atoms: C_14  and  C_15 
REMARK    7  A    between atoms: C_19  and  C_14 
ROOT
ATOM      1  C   UNL d   1     -50.872  25.508  33.700  0.00  0.00     0.168 A 
ATOM      2  N   UNL d   1     -50.125  25.865  33.833  0.00  0.00    -0.184 N 
ATOM      3  N   UNL d   1     -51.529  25.977  33.572  0.00  0.00    -0.231 NA
ATOM      4  C   UNL d   1     -50.942  24.703  33.697  0.00  0.00     0.057 A 
ATOM      5  C   UNL d   1     -50.079  26.670  33.832  0.00  0.00     0.217 A 
ATOM      6  N   UNL d   1     -49.554  24.594  33.955  0.00  0.00    -0.160 NA
ATOM      7  C   UNL d   1     -50.731  27.149  33.705  0.00  0.00     0.067 A 
ATOM      8  C   UNL d   1     -51.466  26.798  33.574  0.00  0.00     0.064 A 
ATOM      9  C   UNL d   1     -50.289  24.242  33.823  0.00  0.00     0.124 A 
ENDROOT
BRANCH   5  10
ATOM     10  N   UNL d   1     -49.320  27.033  33.968  0.00  0.00    -0.380 NA
BRANCH  10  11
ATOM     11  C   UNL d   1     -48.594  27.417  34.167  0.00  0.00     0.164 C 
BRANCH  11  12
ATOM     12  C   UNL d   1     -48.615  28.239  34.388  0.00  0.00     0.054 C 
BRANCH  12  13
ATOM     13  C   UNL d   1     -48.166  28.502  35.069  0.00  0.00     0.083 C 
BRANCH  13  14
ATOM     14  N   UNL d   1     -47.924  29.312  35.125  0.00  0.00    -0.300 N 
ATOM     15  C   UNL d   1     -47.379  29.131  35.750  0.00  0.00     0.100 C 
ATOM     16  C   UNL d   1     -47.990  30.119  34.854  0.00  0.00     0.100 C 
ENDBRANCH  13  14
ENDBRANCH  12  13
ENDBRANCH  11  12
ENDBRANCH  10  11
ENDBRANCH   5  10
BRANCH   8  17
ATOM     17  C   UNL d   1     -52.154  27.284  33.440  0.00  0.00     0.036 C 
ATOM     18  C   UNL d   1     -52.831  27.767  33.308  0.00  0.00     0.006 C 
ATOM     19  C   UNL d   1     -52.925  26.924  33.416  0.00  0.00     0.006 C 
ATOM     20  C   UNL d   1     -52.066  28.127  33.332  0.00  0.00     0.006 C 
ENDBRANCH   8  17
BRANCH   4  21
ATOM     21  C   UNL d   1     -51.677  24.352  33.565  0.00  0.00     0.004 A 
ATOM     22  C   UNL d   1     -52.325  24.817  33.481  0.00  0.00     0.000 A 
ATOM     23  C   UNL d   1     -53.060  24.466  33.349  0.00  0.00     0.000 A 
ATOM     24  C   UNL d   1     -53.123  23.660  33.306  0.00  0.00     0.000 A 
ATOM     25  C   UNL d   1     -52.460  23.193  33.392  0.00  0.00     0.000 A 
ATOM     26  C   UNL d   1     -51.725  23.544  33.524  0.00  0.00     0.000 A 
ENDBRANCH   4  21
TORSDOF 7
ENDMDL
