MODEL 1
REMARK VINA RESULT:      -6.4      0.000      0.000
REMARK  3 active torsions:
REMARK  status: ('A' for Active; 'I' for Inactive)
REMARK    1  A    between atoms: N_9  and  C_3 
REMARK    2  A    between atoms: C_14  and  C_4 
REMARK       I    between atoms: C_10  and  N_11 
REMARK    3  A    between atoms: C_13  and  C_10 
ROOT
ATOM      1  N   UNL d   1     -39.070  14.887  18.005  0.00  0.00    -0.196 N 
ATOM      2  C   UNL d   1     -39.207  14.875  17.197  0.00  0.00     0.167 A 
ATOM      3  C   UNL d   1     -39.672  15.104  18.527  0.00  0.00     0.152 A 
ATOM      4  C   UNL d   1     -38.515  14.641  16.824  0.00  0.00     0.057 A 
ATOM      5  N   UNL d   1     -38.292  14.661  18.136  0.00  0.00    -0.161 NA
ATOM      6  N   UNL d   1     -39.949  15.079  16.898  0.00  0.00    -0.227 NA
ATOM      7  C   UNL d   1     -40.418  15.309  18.228  0.00  0.00     0.057 A 
ATOM      8  C   UNL d   1     -37.953  14.509  17.399  0.00  0.00     0.124 A 
ATOM      9  C   UNL d   1     -40.555  15.297  17.419  0.00  0.00     0.086 A 
ATOM     10  C   UNL d   1     -41.309  15.505  17.126  0.00  0.00     0.021 C 
ENDROOT
BRANCH   3  11
ATOM     11  N   UNL d   1     -39.535  15.116  19.336  0.00  0.00    -0.286 N 
ATOM     12  C   UNL d   1     -39.492  14.420  19.767  0.00  0.00     0.101 A 
ATOM     13  C   UNL d   1     -39.353  14.437  20.584  0.00  0.00     0.102 A 
ATOM     14  N   UNL d   1     -39.257  15.164  20.966  0.00  0.00    -0.267 N 
ATOM     15  C   UNL d   1     -39.117  15.190  21.787  0.00  0.00     0.288 C 
ATOM     16  C   UNL d   1     -39.300  15.860  20.539  0.00  0.00     0.102 A 
ATOM     17  O   UNL d   1     -39.021  15.908  22.174  0.00  0.00    -0.264 OA
ATOM     18  C   UNL d   1     -39.439  15.844  19.722  0.00  0.00     0.101 A 
BRANCH  15  19
ATOM     19  C   UNL d   1     -39.075  14.485  22.214  0.00  0.00     0.156 A 
ATOM     20  O   UNL d   1     -39.579  13.844  22.269  0.00  0.00    -0.300 OA
ATOM     21  C   UNL d   1     -39.244  13.291  22.789  0.00  0.00     0.123 A 
ATOM     22  C   UNL d   1     -38.543  13.596  23.046  0.00  0.00     0.029 A 
ATOM     23  C   UNL d   1     -38.431  14.330  22.697  0.00  0.00     0.032 A 
ENDBRANCH  15  19
ENDBRANCH   3  11
BRANCH   4  24
ATOM     24  C   UNL d   1     -38.324  14.530  16.030  0.00  0.00     0.004 A 
ATOM     25  C   UNL d   1     -38.132  15.185  15.555  0.00  0.00     0.000 A 
ATOM     26  C   UNL d   1     -37.942  15.074  14.760  0.00  0.00     0.000 A 
ATOM     27  C   UNL d   1     -37.940  14.316  14.433  0.00  0.00     0.000 A 
ATOM     28  C   UNL d   1     -38.131  13.664  14.905  0.00  0.00     0.000 A 
ATOM     29  C   UNL d   1     -38.321  13.774  15.700  0.00  0.00     0.000 A 
ENDBRANCH   4  24
TORSDOF 3
ENDMDL
MODEL 2
REMARK VINA RESULT:      -6.3      8.683     10.484
REMARK  3 active torsions:
REMARK  status: ('A' for Active; 'I' for Inactive)
REMARK    1  A    between atoms: N_9  and  C_3 
REMARK    2  A    between atoms: C_14  and  C_4 
REMARK       I    between atoms: C_10  and  N_11 
REMARK    3  A    between atoms: C_13  and  C_10 
ROOT
ATOM      1  N   UNL d   1     -48.224  13.294  23.148  0.00  0.00    -0.196 N 
ATOM      2  C   UNL d   1     -49.017  13.489  23.226  0.00  0.00     0.167 A 
ATOM      3  C   UNL d   1     -47.974  12.513  23.245  0.00  0.00     0.152 A 
ATOM      4  C   UNL d   1     -49.095  14.296  23.100  0.00  0.00     0.057 A 
ATOM      5  N   UNL d   1     -47.808  13.980  22.974  0.00  0.00    -0.161 NA
ATOM      6  N   UNL d   1     -49.573  12.905  23.402  0.00  0.00    -0.227 NA
ATOM      7  C   UNL d   1     -48.532  11.925  23.422  0.00  0.00     0.057 A 
ATOM      8  C   UNL d   1     -48.354  14.598  22.946  0.00  0.00     0.124 A 
ATOM      9  C   UNL d   1     -49.325  12.120  23.500  0.00  0.00     0.086 A 
ATOM     10  C   UNL d   1     -49.880  11.522  23.679  0.00  0.00     0.021 C 
ENDROOT
BRANCH   3  11
ATOM     11  N   UNL d   1     -47.182  12.318  23.167  0.00  0.00    -0.286 N 
ATOM     12  C   UNL d   1     -46.701  12.712  22.632  0.00  0.00     0.101 A 
ATOM     13  C   UNL d   1     -45.900  12.513  22.555  0.00  0.00     0.102 A 
ATOM     14  N   UNL d   1     -45.585  11.910  23.025  0.00  0.00    -0.267 N 
ATOM     15  C   UNL d   1     -44.780  11.703  22.955  0.00  0.00     0.288 C 
ATOM     16  C   UNL d   1     -46.060  11.515  23.560  0.00  0.00     0.102 A 
ATOM     17  O   UNL d   1     -44.459  11.106  23.418  0.00  0.00    -0.264 OA
ATOM     18  C   UNL d   1     -46.861  11.714  23.636  0.00  0.00     0.101 A 
BRANCH  15  19
ATOM     19  C   UNL d   1     -44.303  12.105  22.414  0.00  0.00     0.156 A 
ATOM     20  O   UNL d   1     -44.427  12.775  21.964  0.00  0.00    -0.300 OA
ATOM     21  C   UNL d   1     -43.744  12.920  21.517  0.00  0.00     0.123 A 
ATOM     22  C   UNL d   1     -43.212  12.341  21.695  0.00  0.00     0.029 A 
ATOM     23  C   UNL d   1     -43.548  11.834  22.247  0.00  0.00     0.032 A 
ENDBRANCH  15  19
ENDBRANCH   3  11
BRANCH   4  24
ATOM     24  C   UNL d   1     -49.750  14.796  23.108  0.00  0.00     0.004 A 
ATOM     25  C   UNL d   1     -49.816  15.385  23.690  0.00  0.00     0.000 A 
ATOM     26  C   UNL d   1     -50.471  15.885  23.698  0.00  0.00     0.000 A 
ATOM     27  C   UNL d   1     -51.064  15.804  23.128  0.00  0.00     0.000 A 
ATOM     28  C   UNL d   1     -51.000  15.218  22.547  0.00  0.00     0.000 A 
ATOM     29  C   UNL d   1     -50.344  14.718  22.540  0.00  0.00     0.000 A 
ENDBRANCH   4  24
TORSDOF 3
ENDMDL
MODEL 3
REMARK VINA RESULT:      -5.5      7.870      9.526
REMARK  3 active torsions:
REMARK  status: ('A' for Active; 'I' for Inactive)
REMARK    1  A    between atoms: N_9  and  C_3 
REMARK    2  A    between atoms: C_14  and  C_4 
REMARK       I    between atoms: C_10  and  N_11 
REMARK    3  A    between atoms: C_13  and  C_10 
ROOT
ATOM      1  N   UNL d   1     -47.330  13.069  22.334  0.00  0.00    -0.196 N 
ATOM      2  C   UNL d   1     -48.013  13.522  22.313  0.00  0.00     0.167 A 
ATOM      3  C   UNL d   1     -46.604  13.418  22.514  0.00  0.00     0.152 A 
ATOM      4  C   UNL d   1     -48.641  13.029  22.121  0.00  0.00     0.057 A 
ATOM      5  N   UNL d   1     -47.532  12.293  22.155  0.00  0.00    -0.161 NA
ATOM      6  N   UNL d   1     -47.980  14.331  22.471  0.00  0.00    -0.227 NA
ATOM      7  C   UNL d   1     -46.570  14.231  22.674  0.00  0.00     0.057 A 
ATOM      8  C   UNL d   1     -48.347  12.275  22.024  0.00  0.00     0.124 A 
ATOM      9  C   UNL d   1     -47.252  14.684  22.652  0.00  0.00     0.086 A 
ATOM     10  C   UNL d   1     -47.209  15.502  22.814  0.00  0.00     0.021 C 
ENDROOT
BRANCH   3  11
ATOM     11  N   UNL d   1     -45.921  12.964  22.536  0.00  0.00    -0.286 N 
ATOM     12  C   UNL d   1     -45.895  12.259  22.954  0.00  0.00     0.101 A 
ATOM     13  C   UNL d   1     -45.203  11.804  22.973  0.00  0.00     0.102 A 
ATOM     14  N   UNL d   1     -44.533  12.065  22.566  0.00  0.00    -0.267 N 
ATOM     15  C   UNL d   1     -43.832  11.613  22.580  0.00  0.00     0.288 C 
ATOM     16  C   UNL d   1     -44.554  12.767  22.148  0.00  0.00     0.102 A 
ATOM     17  O   UNL d   1     -43.162  11.865  22.178  0.00  0.00    -0.264 OA
ATOM     18  C   UNL d   1     -45.246  13.223  22.128  0.00  0.00     0.101 A 
BRANCH  15  19
ATOM     19  C   UNL d   1     -43.815  10.905  23.003  0.00  0.00     0.156 A 
ATOM     20  O   UNL d   1     -44.404  10.450  23.339  0.00  0.00    -0.300 OA
ATOM     21  C   UNL d   1     -44.054   9.790  23.698  0.00  0.00     0.123 A 
ATOM     22  C   UNL d   1     -43.258   9.846  23.580  0.00  0.00     0.029 A 
ATOM     23  C   UNL d   1     -43.101  10.529  23.153  0.00  0.00     0.032 A 
ENDBRANCH  15  19
ENDBRANCH   3  11
BRANCH   4  24
ATOM     24  C   UNL d   1     -49.447  13.172  22.021  0.00  0.00     0.004 A 
ATOM     25  C   UNL d   1     -49.733  13.433  21.286  0.00  0.00     0.000 A 
ATOM     26  C   UNL d   1     -50.539  13.577  21.187  0.00  0.00     0.000 A 
ATOM     27  C   UNL d   1     -51.064  13.462  21.814  0.00  0.00     0.000 A 
ATOM     28  C   UNL d   1     -50.780  13.202  22.546  0.00  0.00     0.000 A 
ATOM     29  C   UNL d   1     -49.974  13.059  22.646  0.00  0.00     0.000 A 
ENDBRANCH   4  24
TORSDOF 3
ENDMDL
MODEL 4
REMARK VINA RESULT:      -3.9      1.518      2.217
REMARK  3 active torsions:
REMARK  status: ('A' for Active; 'I' for Inactive)
REMARK    1  A    between atoms: N_9  and  C_3 
REMARK    2  A    between atoms: C_14  and  C_4 
REMARK       I    between atoms: C_10  and  N_11 
REMARK    3  A    between atoms: C_13  and  C_10 
ROOT
ATOM      1  N   UNL d   1     -39.727  14.725  18.753  0.00  0.00    -0.196 N 
ATOM      2  C   UNL d   1     -39.925  14.661  17.959  0.00  0.00     0.167 A 
ATOM      3  C   UNL d   1     -39.217  14.177  19.101  0.00  0.00     0.152 A 
ATOM      4  C   UNL d   1     -40.435  15.276  17.773  0.00  0.00     0.057 A 
ATOM      5  N   UNL d   1     -40.115  15.380  19.061  0.00  0.00    -0.161 NA
ATOM      6  N   UNL d   1     -39.615  14.048  17.502  0.00  0.00    -0.227 NA
ATOM      7  C   UNL d   1     -38.904  13.561  18.642  0.00  0.00     0.057 A 
ATOM      8  C   UNL d   1     -40.552  15.717  18.447  0.00  0.00     0.124 A 
ATOM      9  C   UNL d   1     -39.102  13.496  17.849  0.00  0.00     0.086 A 
ATOM     10  C   UNL d   1     -38.783  12.873  17.394  0.00  0.00     0.021 C 
ENDROOT
BRANCH   3  11
ATOM     11  N   UNL d   1     -39.019  14.241  19.894  0.00  0.00    -0.286 N 
ATOM     12  C   UNL d   1     -39.276  13.685  20.439  0.00  0.00     0.101 A 
ATOM     13  C   UNL d   1     -39.074  13.754  21.241  0.00  0.00     0.102 A 
ATOM     14  N   UNL d   1     -38.609  14.390  21.490  0.00  0.00    -0.267 N 
ATOM     15  C   UNL d   1     -38.402  14.466  22.294  0.00  0.00     0.288 C 
ATOM     16  C   UNL d   1     -38.351  14.946  20.949  0.00  0.00     0.102 A 
ATOM     17  O   UNL d   1     -37.940  15.096  22.550  0.00  0.00    -0.264 OA
ATOM     18  C   UNL d   1     -38.553  14.878  20.148  0.00  0.00     0.101 A 
BRANCH  15  19
ATOM     19  C   UNL d   1     -38.664  13.903  22.836  0.00  0.00     0.156 A 
ATOM     20  O   UNL d   1     -39.404  13.732  23.138  0.00  0.00    -0.300 OA
ATOM     21  C   UNL d   1     -39.331  13.100  23.669  0.00  0.00     0.123 A 
ATOM     22  C   UNL d   1     -38.553  12.890  23.688  0.00  0.00     0.029 A 
ATOM     23  C   UNL d   1     -38.135  13.379  23.179  0.00  0.00     0.032 A 
ENDBRANCH  15  19
ENDBRANCH   3  11
BRANCH   4  24
ATOM     24  C   UNL d   1     -40.810  15.490  17.070  0.00  0.00     0.004 A 
ATOM     25  C   UNL d   1     -40.356  15.681  16.400  0.00  0.00     0.000 A 
ATOM     26  C   UNL d   1     -40.731  15.895  15.698  0.00  0.00     0.000 A 
ATOM     27  C   UNL d   1     -41.556  15.922  15.657  0.00  0.00     0.000 A 
ATOM     28  C   UNL d   1     -42.008  15.733  16.323  0.00  0.00     0.000 A 
ATOM     29  C   UNL d   1     -41.633  15.518  17.025  0.00  0.00     0.000 A 
ENDBRANCH   4  24
TORSDOF 3
ENDMDL
