MODEL 1
REMARK VINA RESULT:       8.5      0.000      0.000
REMARK  4 active torsions:
REMARK  status: ('A' for Active; 'I' for Inactive)
REMARK    1  A    between atoms: C_7  and  N_2 
REMARK    2  A    between atoms: C_15  and  C_7 
REMARK    3  A    between atoms: C_8  and  O_14 
REMARK    4  A    between atoms: O_14  and  C_15 
ROOT
ATOM      1  C   UNL d   1      46.338 -17.795  43.253  0.00  0.00     0.296 A 
ATOM      2  N   UNL d   1      46.300 -17.895  44.068  0.00  0.00    -0.266 N 
ATOM      3  S   UNL d   1      46.469 -18.549  42.911  0.00  0.00    -0.025 SA
ATOM      4  C   UNL d   1      46.407 -18.700  44.235  0.00  0.00     0.074 A 
ATOM      5  C   UNL d   1      46.510 -19.101  43.527  0.00  0.00     0.050 A 
ATOM      6  O   UNL d   1      46.261 -17.089  42.842  0.00  0.00    -0.259 OA
ATOM      7  C   UNL d   1      46.421 -19.110  44.954  0.00  0.00     0.018 A 
ATOM      8  C   UNL d   1      46.630 -19.922  43.520  0.00  0.00     0.008 A 
ATOM      9  C   UNL d   1      46.540 -19.929  44.950  0.00  0.00     0.002 A 
ATOM     10  C   UNL d   1      46.644 -20.330  44.241  0.00  0.00     0.001 A 
ENDROOT
BRANCH   2  11
ATOM     11  C   UNL d   1      46.178 -17.298  44.624  0.00  0.00     0.110 C 
BRANCH  11  12
ATOM     12  C   UNL d   1      45.863 -16.573  44.393  0.00  0.00     0.142 C 
BRANCH  12  13
ATOM     13  O   UNL d   1      45.531 -16.056  44.948  0.00  0.00    -0.304 OA
BRANCH  13  14
ATOM     14  C   UNL d   1      45.528 -15.243  44.811  0.00  0.00     0.100 A 
ATOM     15  C   UNL d   1      46.242 -14.836  44.730  0.00  0.00     0.025 A 
ATOM     16  C   UNL d   1      46.237 -14.028  44.593  0.00  0.00     0.002 A 
ATOM     17  C   UNL d   1      45.519 -13.625  44.537  0.00  0.00     0.000 A 
ATOM     18  C   UNL d   1      44.805 -14.037  44.618  0.00  0.00     0.002 A 
ATOM     19  C   UNL d   1      45.517 -12.808  44.398  0.00  0.00     0.000 C 
ATOM     20  C   UNL d   1      44.818 -14.848  44.755  0.00  0.00     0.025 A 
ENDBRANCH  13  14
ENDBRANCH  12  13
ENDBRANCH  11  12
ENDBRANCH   2  11
TORSDOF 4
ENDMDL
