MODEL 1
REMARK VINA RESULT:      51.0      0.000      0.000
REMARK  6 active torsions:
REMARK  status: ('A' for Active; 'I' for Inactive)
REMARK    1  A    between atoms: C_4  and  C_1 
REMARK    2  A    between atoms: N_7  and  C_2 
REMARK    3  A    between atoms: C_6  and  C_4 
REMARK    4  A    between atoms: C_8  and  C_4 
REMARK    5  A    between atoms: O_13  and  C_6 
REMARK    6  A    between atoms: C_19  and  O_13 
ROOT
ATOM      1  C   UNL d   1      14.056  13.483  -2.759  0.00  0.00     0.122 A 
ATOM      2  C   UNL d   1      13.923  12.688  -2.936  0.00  0.00     0.166 A 
ATOM      3  N   UNL d   1      13.982  12.119  -2.336  0.00  0.00    -0.225 NA
ATOM      4  N   UNL d   1      14.248  13.717  -1.987  0.00  0.00    -0.241 NA
ATOM      5  C   UNL d   1      14.173  12.349  -1.565  0.00  0.00     0.101 A 
ATOM      6  C   UNL d   1      14.305  13.152  -1.394  0.00  0.00     0.099 A 
ATOM      7  C   UNL d   1      14.231  11.783  -0.968  0.00  0.00     0.021 A 
ATOM      8  C   UNL d   1      14.495  13.377  -0.625  0.00  0.00     0.021 A 
ATOM      9  C   UNL d   1      14.553  12.811  -0.028  0.00  0.00     0.002 A 
ATOM     10  C   UNL d   1      14.422  12.017  -0.197  0.00  0.00     0.002 A 
ENDROOT
BRANCH   1  11
ATOM     11  C   UNL d   1      13.999  14.062  -3.357  0.00  0.00     0.105 C 
BRANCH  11  12
ATOM     12  C   UNL d   1      14.491  14.723  -3.352  0.00  0.00     0.303 C 
ATOM     13  O   UNL d   1      14.834  14.983  -4.057  0.00  0.00    -0.259 OA
BRANCH  12  14
ATOM     14  O   UNL d   1      14.641  15.123  -2.647  0.00  0.00    -0.273 OA
BRANCH  14  15
ATOM     15  C   UNL d   1      14.823  15.822  -2.253  0.00  0.00     0.103 A 
ATOM     16  C   UNL d   1      15.294  15.794  -1.580  0.00  0.00     0.025 A 
ATOM     17  C   UNL d   1      15.476  16.489  -1.187  0.00  0.00     0.002 A 
ATOM     18  C   UNL d   1      15.195  17.215  -1.457  0.00  0.00     0.000 A 
ATOM     19  C   UNL d   1      14.722  17.231  -2.136  0.00  0.00     0.002 A 
ATOM     20  C   UNL d   1      14.538  16.536  -2.532  0.00  0.00     0.025 A 
ENDBRANCH  14  15
ENDBRANCH  12  14
ENDBRANCH  11  12
BRANCH  11  21
ATOM     21  C   UNL d   1      13.437  13.974  -3.971  0.00  0.00     0.129 C 
ATOM     22  N   UNL d   1      12.769  14.630  -4.156  0.00  0.00    -0.146 N 
ENDBRANCH  11  21
ENDBRANCH   1  11
BRANCH   2  23
ATOM     23  N   UNL d   1      13.733  12.461  -3.706  0.00  0.00    -0.285 N 
ATOM     24  C   UNL d   1      14.335  12.402  -4.276  0.00  0.00     0.101 A 
ATOM     25  C   UNL d   1      14.156  12.178  -5.046  0.00  0.00     0.100 A 
ATOM     26  N   UNL d   1      13.371  12.010  -5.251  0.00  0.00    -0.299 N 
ATOM     27  C   UNL d   1      12.770  12.069  -4.681  0.00  0.00     0.100 A 
ATOM     28  C   UNL d   1      13.181  11.780  -6.033  0.00  0.00     0.100 C 
ATOM     29  C   UNL d   1      12.954  12.296  -3.906  0.00  0.00     0.101 A 
ENDBRANCH   2  23
TORSDOF 6
ENDMDL
MODEL 2
REMARK VINA RESULT:      53.3      0.948      1.345
REMARK  6 active torsions:
REMARK  status: ('A' for Active; 'I' for Inactive)
REMARK    1  A    between atoms: C_4  and  C_1 
REMARK    2  A    between atoms: N_7  and  C_2 
REMARK    3  A    between atoms: C_6  and  C_4 
REMARK    4  A    between atoms: C_8  and  C_4 
REMARK    5  A    between atoms: O_13  and  C_6 
REMARK    6  A    between atoms: C_19  and  O_13 
ROOT
ATOM      1  C   UNL d   1      13.863  13.456  -2.763  0.00  0.00     0.122 A 
ATOM      2  C   UNL d   1      13.944  12.671  -3.007  0.00  0.00     0.166 A 
ATOM      3  N   UNL d   1      14.261  12.111  -2.484  0.00  0.00    -0.225 NA
ATOM      4  N   UNL d   1      14.094  13.687  -2.001  0.00  0.00    -0.241 NA
ATOM      5  C   UNL d   1      14.493  12.338  -1.724  0.00  0.00     0.101 A 
ATOM      6  C   UNL d   1      14.407  13.130  -1.486  0.00  0.00     0.099 A 
ATOM      7  C   UNL d   1      14.807  11.780  -1.204  0.00  0.00     0.021 A 
ATOM      8  C   UNL d   1      14.640  13.353  -0.727  0.00  0.00     0.021 A 
ATOM      9  C   UNL d   1      14.955  12.795  -0.208  0.00  0.00     0.002 A 
ATOM     10  C   UNL d   1      15.039  12.012  -0.443  0.00  0.00     0.002 A 
ENDROOT
BRANCH   1  11
ATOM     11  C   UNL d   1      13.545  14.026  -3.282  0.00  0.00     0.105 C 
BRANCH  11  12
ATOM     12  C   UNL d   1      13.702  14.827  -3.175  0.00  0.00     0.303 C 
ATOM     13  O   UNL d   1      13.533  15.185  -2.450  0.00  0.00    -0.259 OA
BRANCH  12  14
ATOM     14  O   UNL d   1      14.028  15.272  -3.789  0.00  0.00    -0.273 OA
BRANCH  14  15
ATOM     15  C   UNL d   1      14.553  15.851  -4.044  0.00  0.00     0.103 A 
ATOM     16  C   UNL d   1      14.795  15.858  -4.829  0.00  0.00     0.025 A 
ATOM     17  C   UNL d   1      15.318  16.435  -5.083  0.00  0.00     0.002 A 
ATOM     18  C   UNL d   1      15.604  17.007  -4.565  0.00  0.00     0.000 A 
ATOM     19  C   UNL d   1      15.353  16.990  -3.777  0.00  0.00     0.002 A 
ATOM     20  C   UNL d   1      14.829  16.413  -3.518  0.00  0.00     0.025 A 
ENDBRANCH  14  15
ENDBRANCH  12  14
ENDBRANCH  11  12
BRANCH  11  21
ATOM     21  C   UNL d   1      13.060  13.785  -3.921  0.00  0.00     0.129 C 
ATOM     22  N   UNL d   1      12.842  14.363  -4.649  0.00  0.00    -0.146 N 
ENDBRANCH  11  21
ENDBRANCH   1  11
BRANCH   2  23
ATOM     23  N   UNL d   1      13.712  12.447  -3.765  0.00  0.00    -0.285 N 
ATOM     24  C   UNL d   1      14.205  12.617  -4.412  0.00  0.00     0.101 A 
ATOM     25  C   UNL d   1      13.983  12.398  -5.172  0.00  0.00     0.100 A 
ATOM     26  N   UNL d   1      13.263  12.006  -5.291  0.00  0.00    -0.299 N 
ATOM     27  C   UNL d   1      12.770  11.836  -4.644  0.00  0.00     0.100 A 
ATOM     28  C   UNL d   1      13.029  11.780  -6.062  0.00  0.00     0.100 C 
ATOM     29  C   UNL d   1      12.997  12.058  -3.879  0.00  0.00     0.101 A 
ENDBRANCH   2  23
TORSDOF 6
ENDMDL
