MODEL 1
REMARK VINA RESULT:       0.2      0.000      0.000
REMARK  3 active torsions:
REMARK  status: ('A' for Active; 'I' for Inactive)
REMARK    1  A    between atoms: C_2  and  C_1 
REMARK    2  A    between atoms: C_3  and  C_2 
REMARK    3  A    between atoms: C_8  and  C_2 
ROOT
ATOM      1  C   UNL d   1      59.263  -0.658  29.453  0.00  0.00     0.018 C 
ENDROOT
BRANCH   1   2
ATOM      2  C   UNL d   1      58.645  -0.353  29.917  0.00  0.00     0.078 A 
ATOM      3  C   UNL d   1      58.654  -0.492  30.810  0.00  0.00     0.195 A 
ATOM      4  C   UNL d   1      58.026  -0.167  31.188  0.00  0.00     0.019 A 
ATOM      5  O   UNL d   1      59.109  -0.827  31.194  0.00  0.00    -0.287 OA
ATOM      6  C   UNL d   1      57.418   0.256  30.829  0.00  0.00     0.043 A 
ATOM      7  C   UNL d   1      57.420   0.378  30.016  0.00  0.00     0.019 A 
ATOM      8  C   UNL d   1      56.705   0.680  30.895  0.00  0.00     0.009 C 
ATOM      9  C   UNL d   1      57.231   0.248  31.639  0.00  0.00     0.009 C 
ATOM     10  C   UNL d   1      58.034   0.073  29.560  0.00  0.00     0.195 A 
ATOM     11  O   UNL d   1      58.032   0.198  28.737  0.00  0.00    -0.287 OA
ENDBRANCH   1   2
BRANCH   1  12
ATOM     12  C   UNL d   1      59.261  -1.459  29.236  0.00  0.00     0.078 A 
ATOM     13  C   UNL d   1      59.796  -1.979  29.563  0.00  0.00     0.195 A 
ATOM     14  C   UNL d   1      59.797  -2.770  29.350  0.00  0.00     0.019 A 
ATOM     15  O   UNL d   1      60.349  -1.696  30.122  0.00  0.00    -0.287 OA
ATOM     16  C   UNL d   1      59.256  -3.049  28.803  0.00  0.00     0.043 A 
ATOM     17  C   UNL d   1      58.704  -2.532  28.462  0.00  0.00     0.019 A 
ATOM     18  C   UNL d   1      59.087  -3.784  28.458  0.00  0.00     0.009 C 
ATOM     19  C   UNL d   1      59.657  -3.755  28.963  0.00  0.00     0.009 C 
ATOM     20  C   UNL d   1      58.706  -1.730  28.679  0.00  0.00     0.195 A 
ATOM     21  O   UNL d   1      58.361  -1.443  28.455  0.00  0.00    -0.287 OA
ENDBRANCH   1  12
BRANCH   1  22
ATOM     22  C   UNL d   1      59.872  -0.174  29.210  0.00  0.00     0.030 A 
ATOM     23  S   UNL d   1      60.127   0.065  28.459  0.00  0.00    -0.086 SA
ATOM     24  C   UNL d   1      60.775   0.559  28.555  0.00  0.00     0.035 A 
ATOM     25  C   UNL d   1      60.930   0.634  29.352  0.00  0.00     0.007 A 
ATOM     26  C   UNL d   1      60.374   0.182  29.755  0.00  0.00     0.007 A 
ENDBRANCH   1  22
TORSDOF 3
ENDMDL
MODEL 2
REMARK VINA RESULT:       0.5      0.287      3.345
REMARK  3 active torsions:
REMARK  status: ('A' for Active; 'I' for Inactive)
REMARK    1  A    between atoms: C_2  and  C_1 
REMARK    2  A    between atoms: C_3  and  C_2 
REMARK    3  A    between atoms: C_8  and  C_2 
ROOT
ATOM      1  C   UNL d   1      59.081  -0.643  29.557  0.00  0.00     0.018 C 
ENDROOT
BRANCH   1   2
ATOM      2  C   UNL d   1      59.098  -1.452  29.370  0.00  0.00     0.078 A 
ATOM      3  C   UNL d   1      58.490  -1.782  28.788  0.00  0.00     0.195 A 
ATOM      4  C   UNL d   1      58.570  -2.570  28.659  0.00  0.00     0.019 A 
ATOM      5  O   UNL d   1      57.987  -1.462  28.455  0.00  0.00    -0.287 OA
ATOM      6  C   UNL d   1      59.138  -3.056  29.004  0.00  0.00     0.043 A 
ATOM      7  C   UNL d   1      59.687  -2.745  29.532  0.00  0.00     0.019 A 
ATOM      8  C   UNL d   1      59.475  -3.812  29.093  0.00  0.00     0.009 C 
ATOM      9  C   UNL d   1      58.691  -3.555  28.513  0.00  0.00     0.009 C 
ATOM     10  C   UNL d   1      59.666  -1.942  29.715  0.00  0.00     0.195 A 
ATOM     11  O   UNL d   1      60.223  -1.631  30.249  0.00  0.00    -0.287 OA
ENDBRANCH   1   2
BRANCH   1  12
ATOM     12  C   UNL d   1      58.510  -0.351  30.084  0.00  0.00     0.078 A 
ATOM     13  C   UNL d   1      57.888   0.100  29.814  0.00  0.00     0.195 A 
ATOM     14  C   UNL d   1      57.323   0.390  30.332  0.00  0.00     0.019 A 
ATOM     15  O   UNL d   1      57.830   0.267  28.997  0.00  0.00    -0.287 OA
ATOM     16  C   UNL d   1      57.378   0.228  31.132  0.00  0.00     0.043 A 
ATOM     17  C   UNL d   1      58.006  -0.230  31.422  0.00  0.00     0.019 A 
ATOM     18  C   UNL d   1      56.933   0.414  31.806  0.00  0.00     0.009 C 
ATOM     19  C   UNL d   1      56.686   0.682  31.136  0.00  0.00     0.009 C 
ATOM     20  C   UNL d   1      58.577  -0.522  30.895  0.00  0.00     0.195 A 
ATOM     21  O   UNL d   1      58.944  -0.796  31.101  0.00  0.00    -0.287 OA
ENDBRANCH   1  12
BRANCH   1  22
ATOM     22  C   UNL d   1      59.623  -0.133  29.225  0.00  0.00     0.030 A 
ATOM     23  S   UNL d   1      59.678   0.211  28.473  0.00  0.00    -0.086 SA
ATOM     24  C   UNL d   1      60.349   0.682  28.455  0.00  0.00     0.035 A 
ATOM     25  C   UNL d   1      60.716   0.640  29.182  0.00  0.00     0.007 A 
ATOM     26  C   UNL d   1      60.268   0.139  29.656  0.00  0.00     0.007 A 
ENDBRANCH   1  22
TORSDOF 3
ENDMDL
MODEL 3
REMARK VINA RESULT:       0.9      0.260      3.208
REMARK  3 active torsions:
REMARK  status: ('A' for Active; 'I' for Inactive)
REMARK    1  A    between atoms: C_2  and  C_1 
REMARK    2  A    between atoms: C_3  and  C_2 
REMARK    3  A    between atoms: C_8  and  C_2 
ROOT
ATOM      1  C   UNL d   1      59.212  -0.652  29.533  0.00  0.00     0.018 C 
ENDROOT
BRANCH   1   2
ATOM      2  C   UNL d   1      59.187  -1.450  29.303  0.00  0.00     0.078 A 
ATOM      3  C   UNL d   1      59.864  -1.998  29.541  0.00  0.00     0.195 A 
ATOM      4  C   UNL d   1      59.768  -2.751  29.282  0.00  0.00     0.019 A 
ATOM      5  O   UNL d   1      60.429  -1.862  29.899  0.00  0.00    -0.287 OA
ATOM      6  C   UNL d   1      59.128  -3.029  28.843  0.00  0.00     0.043 A 
ATOM      7  C   UNL d   1      58.517  -2.521  28.633  0.00  0.00     0.019 A 
ATOM      8  C   UNL d   1      58.746  -3.658  28.456  0.00  0.00     0.009 C 
ATOM      9  C   UNL d   1      59.624  -3.687  28.948  0.00  0.00     0.009 C 
ATOM     10  C   UNL d   1      58.546  -1.731  28.863  0.00  0.00     0.195 A 
ATOM     11  O   UNL d   1      57.926  -1.220  28.647  0.00  0.00    -0.287 OA
ENDBRANCH   1   2
BRANCH   1  12
ATOM     12  C   UNL d   1      58.666  -0.362  30.087  0.00  0.00     0.078 A 
ATOM     13  C   UNL d   1      58.044   0.108  29.850  0.00  0.00     0.195 A 
ATOM     14  C   UNL d   1      57.504   0.396  30.394  0.00  0.00     0.019 A 
ATOM     15  O   UNL d   1      57.963   0.297  29.040  0.00  0.00    -0.287 OA
ATOM     16  C   UNL d   1      57.582   0.212  31.188  0.00  0.00     0.043 A 
ATOM     17  C   UNL d   1      58.210  -0.267  31.444  0.00  0.00     0.019 A 
ATOM     18  C   UNL d   1      57.165   0.389  31.882  0.00  0.00     0.009 C 
ATOM     19  C   UNL d   1      56.900   0.679  31.228  0.00  0.00     0.009 C 
ATOM     20  C   UNL d   1      58.756  -0.556  30.890  0.00  0.00     0.195 A 
ATOM     21  O   UNL d   1      59.124  -0.843  31.076  0.00  0.00    -0.287 OA
ENDBRANCH   1  12
BRANCH   1  22
ATOM     22  C   UNL d   1      59.772  -0.150  29.217  0.00  0.00     0.030 A 
ATOM     23  S   UNL d   1      59.878   0.156  28.455  0.00  0.00    -0.086 SA
ATOM     24  C   UNL d   1      60.543   0.636  28.463  0.00  0.00     0.035 A 
ATOM     25  C   UNL d   1      60.855   0.636  29.216  0.00  0.00     0.007 A 
ATOM     26  C   UNL d   1      60.380   0.151  29.680  0.00  0.00     0.007 A 
ENDBRANCH   1  22
TORSDOF 3
ENDMDL
MODEL 4
REMARK VINA RESULT:       2.4      1.240      1.857
REMARK  3 active torsions:
REMARK  status: ('A' for Active; 'I' for Inactive)
REMARK    1  A    between atoms: C_2  and  C_1 
REMARK    2  A    between atoms: C_3  and  C_2 
REMARK    3  A    between atoms: C_8  and  C_2 
ROOT
ATOM      1  C   UNL d   1      58.409  -0.740  29.989  0.00  0.00     0.018 C 
ENDROOT
BRANCH   1   2
ATOM      2  C   UNL d   1      57.983  -0.662  30.697  0.00  0.00     0.078 A 
ATOM      3  C   UNL d   1      57.305  -1.234  30.869  0.00  0.00     0.195 A 
ATOM      4  C   UNL d   1      56.942  -1.096  31.571  0.00  0.00     0.019 A 
ATOM      5  O   UNL d   1      57.066  -1.752  30.493  0.00  0.00    -0.287 OA
ATOM      6  C   UNL d   1      57.144  -0.502  32.104  0.00  0.00     0.043 A 
ATOM      7  C   UNL d   1      57.763   0.013  31.938  0.00  0.00     0.019 A 
ATOM      8  C   UNL d   1      57.009  -0.114  32.828  0.00  0.00     0.009 C 
ATOM      9  C   UNL d   1      56.506  -0.903  32.453  0.00  0.00     0.009 C 
ATOM     10  C   UNL d   1      58.183  -0.067  31.235  0.00  0.00     0.195 A 
ATOM     11  O   UNL d   1      58.808   0.456  31.071  0.00  0.00    -0.287 OA
ENDBRANCH   1   2
BRANCH   1  12
ATOM     12  C   UNL d   1      58.926  -1.381  29.883  0.00  0.00     0.078 A 
ATOM     13  C   UNL d   1      58.666  -2.070  29.536  0.00  0.00     0.195 A 
ATOM     14  C   UNL d   1      59.174  -2.704  29.430  0.00  0.00     0.019 A 
ATOM     15  O   UNL d   1      57.871  -2.125  29.286  0.00  0.00    -0.287 OA
ATOM     16  C   UNL d   1      59.954  -2.652  29.675  0.00  0.00     0.043 A 
ATOM     17  C   UNL d   1      60.232  -1.956  30.031  0.00  0.00     0.019 A 
ATOM     18  C   UNL d   1      60.613  -3.154  29.666  0.00  0.00     0.009 C 
ATOM     19  C   UNL d   1      59.962  -3.422  29.372  0.00  0.00     0.009 C 
ATOM     20  C   UNL d   1      59.715  -1.315  30.136  0.00  0.00     0.195 A 
ATOM     21  O   UNL d   1      59.914  -0.908  30.354  0.00  0.00    -0.287 OA
ENDBRANCH   1  12
BRANCH   1  22
ATOM     22  C   UNL d   1      58.322  -0.188  29.394  0.00  0.00     0.030 A 
ATOM     23  S   UNL d   1      57.653   0.147  29.039  0.00  0.00    -0.086 SA
ATOM     24  C   UNL d   1      57.906   0.676  28.466  0.00  0.00     0.035 A 
ATOM     25  C   UNL d   1      58.722   0.678  28.455  0.00  0.00     0.007 A 
ATOM     26  C   UNL d   1      58.977   0.145  29.027  0.00  0.00     0.007 A 
ENDBRANCH   1  22
TORSDOF 3
ENDMDL
