MODEL 1
REMARK VINA RESULT:      72.4      0.000      0.000
REMARK  4 active torsions:
REMARK  status: ('A' for Active; 'I' for Inactive)
REMARK    1  A    between atoms: C_5  and  N_1 
REMARK    2  A    between atoms: C_7  and  C_3 
REMARK    3  A    between atoms: C_10  and  C_4 
REMARK    4  A    between atoms: N_11  and  C_5 
ROOT
ATOM      1  N   UNL d   1     -47.131  30.690  35.693  0.00  0.00    -0.203 N 
ATOM      2  N   UNL d   1     -47.036  31.446  35.364  0.00  0.00    -0.163 NA
ATOM      3  C   UNL d   1     -47.753  30.313  35.306  0.00  0.00     0.088 A 
ATOM      4  C   UNL d   1     -47.611  31.533  34.763  0.00  0.00     0.103 A 
ATOM      5  C   UNL d   1     -48.050  30.836  34.731  0.00  0.00     0.040 A 
ENDROOT
BRANCH   3   6
ATOM      6  C   UNL d   1     -48.062  29.554  35.434  0.00  0.00     0.028 A 
ATOM      7  C   UNL d   1     -47.965  28.976  34.866  0.00  0.00     0.059 A 
ATOM      8 CL   UNL d   1     -47.725  29.112  34.472  0.00  0.00    -0.082 Cl
ATOM      9  C   UNL d   1     -48.270  28.216  34.987  0.00  0.00     0.011 A 
ATOM     10  C   UNL d   1     -48.672  28.039  35.678  0.00  0.00     0.001 A 
ATOM     11  C   UNL d   1     -48.763  28.636  36.247  0.00  0.00     0.000 A 
ATOM     12  C   UNL d   1     -48.460  29.376  36.118  0.00  0.00     0.002 A 
ENDBRANCH   3   6
BRANCH   1  13
ATOM     13  C   UNL d   1     -46.661  30.373  36.320  0.00  0.00     0.222 C 
ATOM     14  S   UNL d   1     -46.019  29.881  36.130  0.00  0.00    -0.037 SA
BRANCH  13  15
ATOM     15  N   UNL d   1     -46.846  30.555  37.111  0.00  0.00    -0.214 NA
ATOM     16  C   UNL d   1     -46.316  30.328  37.723  0.00  0.00     0.122 C 
ENDBRANCH  13  15
ENDBRANCH   1  13
BRANCH   4  17
ATOM     17  C   UNL d   1     -47.707  32.195  34.302  0.00  0.00     0.019 A 
ATOM     18  C   UNL d   1     -47.051  32.523  33.926  0.00  0.00     0.002 A 
ATOM     19  C   UNL d   1     -47.135  33.196  33.455  0.00  0.00     0.000 A 
ATOM     20  C   UNL d   1     -47.875  33.544  33.358  0.00  0.00     0.000 A 
ATOM     21  C   UNL d   1     -48.529  33.222  33.729  0.00  0.00     0.000 A 
ATOM     22  C   UNL d   1     -48.445  32.550  34.200  0.00  0.00     0.002 A 
ENDBRANCH   4  17
TORSDOF 4
ENDMDL
