MODEL 1
REMARK VINA RESULT:      97.8      0.000      0.000
REMARK  8 active torsions:
REMARK  status: ('A' for Active; 'I' for Inactive)
REMARK    1  A    between atoms: O_4  and  C_1 
REMARK    2  A    between atoms: C_15  and  C_2 
REMARK    3  A    between atoms: C_5  and  O_4 
REMARK    4  A    between atoms: C_7  and  C_5 
REMARK    5  A    between atoms: O_21  and  C_8 
REMARK    6  A    between atoms: O_22  and  C_10 
REMARK    7  A    between atoms: O_23  and  C_11 
REMARK    8  A    between atoms: N_16  and  C_15 
ROOT
ATOM      1  C   UNL d   1     -50.024  27.288  36.010  0.00  0.00     0.122 A 
ATOM      2  C   UNL d   1     -49.538  27.947  35.915  0.00  0.00     0.043 A 
ATOM      3  C   UNL d   1     -50.354  27.123  36.748  0.00  0.00     0.105 A 
ATOM      4  C   UNL d   1     -50.198  27.617  37.389  0.00  0.00     0.030 A 
ATOM      5  C   UNL d   1     -49.714  28.271  37.286  0.00  0.00     0.059 A 
ATOM      6  C   UNL d   1     -49.382  28.441  36.556  0.00  0.00     0.015 A 
ATOM      7  N   UNL d   1     -50.835  26.468  36.839  0.00  0.00    -0.242 NA
ATOM      8 CL   UNL d   1     -49.571  28.757  37.950  0.00  0.00    -0.082 Cl
ATOM      9  C   UNL d   1     -50.526  27.451  38.115  0.00  0.00     0.004 A 
ATOM     10  C   UNL d   1     -51.165  26.304  37.577  0.00  0.00     0.099 A 
ATOM     11  C   UNL d   1     -51.010  26.797  38.218  0.00  0.00     0.021 A 
ENDROOT
BRANCH   1  12
ATOM     12  O   UNL d   1     -50.171  26.833  35.436  0.00  0.00    -0.271 OA
BRANCH  12  13
ATOM     13  C   UNL d   1     -50.705  26.791  34.634  0.00  0.00     0.300 C 
ATOM     14  O   UNL d   1     -50.986  27.687  34.280  0.00  0.00    -0.259 OA
BRANCH  13  15
ATOM     15  C   UNL d   1     -50.900  26.070  34.288  0.00  0.00     0.068 A 
ATOM     16  C   UNL d   1     -50.303  25.556  34.024  0.00  0.00     0.032 A 
ATOM     17  C   UNL d   1     -50.497  24.826  33.673  0.00  0.00     0.118 A 
ATOM     18  C   UNL d   1     -51.293  24.608  33.585  0.00  0.00     0.138 A 
ATOM     19  C   UNL d   1     -51.894  25.124  33.850  0.00  0.00     0.118 A 
ATOM     20  C   UNL d   1     -51.699  25.855  34.201  0.00  0.00     0.032 A 
BRANCH  17  21
ATOM     21  O   UNL d   1     -49.669  24.462  33.477  0.00  0.00    -0.326 OA
ATOM     22  C   UNL d   1     -49.843  23.830  33.312  0.00  0.00     0.181 C 
ENDBRANCH  17  21
BRANCH  18  23
ATOM     23  O   UNL d   1     -51.464  24.091  33.338  0.00  0.00    -0.324 OA
ATOM     24  C   UNL d   1     -51.866  23.525  33.622  0.00  0.00     0.182 C 
ENDBRANCH  18  23
BRANCH  19  25
ATOM     25  O   UNL d   1     -52.720  24.990  33.804  0.00  0.00    -0.326 OA
ATOM     26  C   UNL d   1     -52.946  25.640  33.313  0.00  0.00     0.181 C 
ENDBRANCH  19  25
ENDBRANCH  13  15
ENDBRANCH  12  13
ENDBRANCH   1  12
BRANCH   2  27
ATOM     27  C   UNL d   1     -49.094  28.284  35.196  0.00  0.00     0.082 C 
BRANCH  27  28
ATOM     28  N   UNL d   1     -48.410  28.722  35.313  0.00  0.00    -0.299 N 
ATOM     29  C   UNL d   1     -47.690  28.342  35.375  0.00  0.00     0.107 A 
ATOM     30  C   UNL d   1     -46.993  28.770  35.493  0.00  0.00     0.142 A 
ATOM     31  O   UNL d   1     -47.033  29.584  35.546  0.00  0.00    -0.300 OA
ATOM     32  C   UNL d   1     -47.762  29.973  35.483  0.00  0.00     0.142 A 
ATOM     33  C   UNL d   1     -48.443  29.533  35.367  0.00  0.00     0.107 A 
ENDBRANCH  27  28
ENDBRANCH   2  27
TORSDOF 8
ENDMDL
MODEL 2
REMARK VINA RESULT:      97.9      1.928      3.909
REMARK  8 active torsions:
REMARK  status: ('A' for Active; 'I' for Inactive)
REMARK    1  A    between atoms: O_4  and  C_1 
REMARK    2  A    between atoms: C_15  and  C_2 
REMARK    3  A    between atoms: C_5  and  O_4 
REMARK    4  A    between atoms: C_7  and  C_5 
REMARK    5  A    between atoms: O_21  and  C_8 
REMARK    6  A    between atoms: O_22  and  C_10 
REMARK    7  A    between atoms: O_23  and  C_11 
REMARK    8  A    between atoms: N_16  and  C_15 
ROOT
ATOM      1  C   UNL d   1     -51.593  26.221  37.129  0.00  0.00     0.122 A 
ATOM      2  C   UNL d   1     -52.103  26.048  37.754  0.00  0.00     0.043 A 
ATOM      3  C   UNL d   1     -50.995  26.780  37.229  0.00  0.00     0.105 A 
ATOM      4  C   UNL d   1     -50.907  27.165  37.952  0.00  0.00     0.030 A 
ATOM      5  C   UNL d   1     -51.419  26.988  38.568  0.00  0.00     0.059 A 
ATOM      6  C   UNL d   1     -52.016  26.433  38.477  0.00  0.00     0.015 A 
ATOM      7  N   UNL d   1     -50.491  26.949  36.607  0.00  0.00    -0.242 NA
ATOM      8 CL   UNL d   1     -51.310  27.391  39.292  0.00  0.00    -0.082 Cl
ATOM      9  C   UNL d   1     -50.316  27.715  38.047  0.00  0.00     0.004 A 
ATOM     10  C   UNL d   1     -49.893  27.508  36.708  0.00  0.00     0.099 A 
ATOM     11  C   UNL d   1     -49.805  27.893  37.431  0.00  0.00     0.021 A 
ENDROOT
BRANCH   1  12
ATOM     12  O   UNL d   1     -51.664  25.877  36.469  0.00  0.00    -0.271 OA
BRANCH  12  13
ATOM     13  C   UNL d   1     -52.190  25.909  35.662  0.00  0.00     0.300 C 
ATOM     14  O   UNL d   1     -52.912  26.607  35.670  0.00  0.00    -0.259 OA
BRANCH  13  15
ATOM     15  C   UNL d   1     -52.042  25.398  35.034  0.00  0.00     0.068 A 
ATOM     16  C   UNL d   1     -51.393  25.528  34.533  0.00  0.00     0.032 A 
ATOM     17  C   UNL d   1     -51.240  25.013  33.896  0.00  0.00     0.118 A 
ATOM     18  C   UNL d   1     -51.738  24.364  33.759  0.00  0.00     0.138 A 
ATOM     19  C   UNL d   1     -52.392  24.233  34.264  0.00  0.00     0.118 A 
ATOM     20  C   UNL d   1     -52.545  24.749  34.901  0.00  0.00     0.032 A 
BRANCH  17  21
ATOM     21  O   UNL d   1     -50.480  25.377  33.511  0.00  0.00    -0.326 OA
ATOM     22  C   UNL d   1     -50.716  25.978  33.308  0.00  0.00     0.181 C 
ENDBRANCH  17  21
BRANCH  18  23
ATOM     23  O   UNL d   1     -51.655  23.977  33.311  0.00  0.00    -0.324 OA
ATOM     24  C   UNL d   1     -51.578  23.231  33.321  0.00  0.00     0.182 C 
ENDBRANCH  18  23
BRANCH  19  25
ATOM     25  O   UNL d   1     -52.947  23.608  34.204  0.00  0.00    -0.326 OA
ATOM     26  C   UNL d   1     -53.473  23.934  33.628  0.00  0.00     0.181 C 
ENDBRANCH  19  25
ENDBRANCH  13  15
ENDBRANCH  12  13
ENDBRANCH   1  12
BRANCH   2  27
ATOM     27  C   UNL d   1     -52.806  25.475  37.832  0.00  0.00     0.082 C 
BRANCH  27  28
ATOM     28  N   UNL d   1     -52.813  24.925  38.441  0.00  0.00    -0.299 N 
ATOM     29  C   UNL d   1     -53.320  25.026  39.073  0.00  0.00     0.107 A 
ATOM     30  C   UNL d   1     -53.338  24.480  39.694  0.00  0.00     0.142 A 
ATOM     31  O   UNL d   1     -52.839  23.835  39.667  0.00  0.00    -0.300 OA
ATOM     32  C   UNL d   1     -52.322  23.730  39.027  0.00  0.00     0.142 A 
ATOM     33  C   UNL d   1     -52.318  24.280  38.421  0.00  0.00     0.107 A 
ENDBRANCH  27  28
ENDBRANCH   2  27
TORSDOF 8
ENDMDL
