MODEL 1
REMARK VINA RESULT:      82.3      0.000      0.000
REMARK  7 active torsions:
REMARK  status: ('A' for Active; 'I' for Inactive)
REMARK    1  A    between atoms: S_2  and  C_1 
REMARK    2  A    between atoms: C_7  and  S_2 
REMARK    3  A    between atoms: C_9  and  N_3 
REMARK    4  A    between atoms: C_11  and  C_7 
REMARK    5  A    between atoms: C_8  and  C_9 
REMARK       I    between atoms: N_10  and  C_8 
REMARK       I    between atoms: N_15  and  C_11 
REMARK    6  A    between atoms: C_12  and  C_16 
REMARK    7  A    between atoms: C_23  and  N_15 
ROOT
ATOM      1  C   UNL d   1     -55.796-101.394 -43.108  0.00  0.00     0.107 A 
ATOM      2  N   UNL d   1     -56.139-100.185 -43.547  0.00  0.00    -0.299 N 
ATOM      3  C   UNL d   1     -56.128-100.670 -42.882  0.00  0.00     0.092 A 
ATOM      4  C   UNL d   1     -55.605-101.349 -43.908  0.00  0.00     0.028 A 
ATOM      5  C   UNL d   1     -55.819-100.598 -44.178  0.00  0.00     0.065 A 
ATOM      6  C   UNL d   1     -55.266-101.892 -44.423  0.00  0.00     0.002 A 
ATOM      7  C   UNL d   1     -55.690-100.398 -44.967  0.00  0.00     0.018 A 
ATOM      8  C   UNL d   1     -55.135-101.693 -45.216  0.00  0.00     0.000 A 
ATOM      9  C   UNL d   1     -55.350-100.942 -45.483  0.00  0.00     0.002 A 
ENDROOT
BRANCH   1  10
ATOM     10  S   UNL d   1     -55.677-102.047 -42.615  0.00  0.00     0.217 S 
ATOM     11  O   UNL d   1     -55.098-101.668 -42.178  0.00  0.00    -0.217 OA
ATOM     12  O   UNL d   1     -56.265-102.430 -43.060  0.00  0.00    -0.217 OA
BRANCH  10  13
ATOM     13  C   UNL d   1     -55.562-102.705 -42.123  0.00  0.00     0.161 C 
BRANCH  13  14
ATOM     14  C   UNL d   1     -55.585-102.617 -41.314  0.00  0.00     0.291 C 
ATOM     15  N   UNL d   1     -54.922-102.348 -40.905  0.00  0.00    -0.207 NA
ATOM     16  O   UNL d   1     -56.277-102.797 -40.899  0.00  0.00    -0.264 OA
BRANCH  15  17
ATOM     17  C   UNL d   1     -54.949-102.260 -40.086  0.00  0.00     0.085 A 
ATOM     18  C   UNL d   1     -54.711-102.879 -39.591  0.00  0.00     0.019 A 
ATOM     19  C   UNL d   1     -54.735-102.798 -38.774  0.00  0.00     0.006 A 
ATOM     20  C   UNL d   1     -55.002-102.086 -38.435  0.00  0.00     0.059 A 
ATOM     21  C   UNL d   1     -55.241-101.461 -38.919  0.00  0.00     0.006 A 
ATOM     22  C   UNL d   1     -55.216-101.547 -39.750  0.00  0.00     0.019 A 
BRANCH  20  23
ATOM     23  C   UNL d   1     -55.030-101.995 -37.623  0.00  0.00     0.297 C 
ATOM     24  O   UNL d   1     -55.026-101.242 -37.277  0.00  0.00    -0.264 OA
ATOM     25  N   UNL d   1     -55.063-102.673 -37.133  0.00  0.00    -0.102 N 
ENDBRANCH  20  23
ENDBRANCH  15  17
ENDBRANCH  13  14
ENDBRANCH  10  13
ENDBRANCH   1  10
BRANCH   2  26
ATOM     26  C   UNL d   1     -56.424 -99.413 -43.572  0.00  0.00     0.142 C 
BRANCH  26  27
ATOM     27  C   UNL d   1     -57.023 -99.212 -44.099  0.00  0.00     0.282 C 
ATOM     28  N   UNL d   1     -57.791 -99.093 -43.825  0.00  0.00    -0.271 N 
ATOM     29  C   UNL d   1     -57.968 -99.174 -43.022  0.00  0.00     0.083 A 
ATOM     30  C   UNL d   1     -58.390 -98.893 -44.351  0.00  0.00     0.083 A 
ATOM     31  C   UNL d   1     -58.740 -99.055 -42.746  0.00  0.00     0.019 A 
ATOM     32  C   UNL d   1     -59.334 -98.855 -43.275  0.00  0.00     0.003 A 
ATOM     33  C   UNL d   1     -59.166 -98.773 -44.075  0.00  0.00     0.019 A 
ATOM     34  O   UNL d   1     -56.854 -99.130 -44.899  0.00  0.00    -0.265 OA
ENDBRANCH  26  27
ENDBRANCH   2  26
TORSDOF 7
ENDMDL
