MODEL 1
REMARK VINA RESULT:      -2.9      0.000      0.000
REMARK  2 active torsions:
REMARK  status: ('A' for Active; 'I' for Inactive)
REMARK    1  A    between atoms: C_6  and  C_3 
REMARK    2  A    between atoms: C_9  and  C_6 
ROOT
ATOM      1  C   UNL d   1      31.195  16.160 -24.244  0.00  0.00     0.011 C 
ENDROOT
BRANCH   1   2
ATOM      2  C   UNL d   1      31.811  16.572 -23.856  0.00  0.00     0.092 A 
ATOM      3  C   UNL d   1      32.493  16.283 -23.558  0.00  0.00     0.288 A 
ATOM      4  N   UNL d   1      32.912  16.884 -23.238  0.00  0.00    -0.163 NA
ATOM      5  O   UNL d   1      32.723  15.453 -23.586  0.00  0.00    -0.265 OA
ATOM      6  C   UNL d   1      32.445  17.574 -23.356  0.00  0.00     0.313 A 
ATOM      7  S   UNL d   1      31.777  17.340 -23.739  0.00  0.00    -0.021 SA
ATOM      8  O   UNL d   1      32.660  18.352 -23.110  0.00  0.00    -0.258 OA
ENDBRANCH   1   2
BRANCH   1   9
ATOM      9  C   UNL d   1      30.406  16.172 -23.999  0.00  0.00     0.001 A 
ATOM     10  C   UNL d   1      30.127  15.765 -23.338  0.00  0.00     0.001 A 
ATOM     11  C   UNL d   1      29.351  15.802 -23.131  0.00  0.00     0.011 A 
ATOM     12  C   UNL d   1      28.803  16.259 -23.588  0.00  0.00     0.058 A 
ATOM     13  C   UNL d   1      29.082  16.665 -24.249  0.00  0.00     0.011 A 
ATOM     14 CL   UNL d   1      28.002  16.308 -23.390  0.00  0.00    -0.082 Cl
ATOM     15  C   UNL d   1      29.895  16.624 -24.461  0.00  0.00     0.001 A 
ENDBRANCH   1   9
TORSDOF 2
ENDMDL
MODEL 2
REMARK VINA RESULT:      -2.8      2.584      3.510
REMARK  2 active torsions:
REMARK  status: ('A' for Active; 'I' for Inactive)
REMARK    1  A    between atoms: C_6  and  C_3 
REMARK    2  A    between atoms: C_9  and  C_6 
ROOT
ATOM      1  C   UNL d   1      30.390  16.918 -24.850  0.00  0.00     0.011 C 
ENDROOT
BRANCH   1   2
ATOM      2  C   UNL d   1      29.630  16.889 -24.500  0.00  0.00     0.092 A 
ATOM      3  C   UNL d   1      29.019  17.393 -24.592  0.00  0.00     0.288 A 
ATOM      4  N   UNL d   1      28.404  17.141 -24.147  0.00  0.00    -0.163 NA
ATOM      5  O   UNL d   1      29.037  18.093 -25.097  0.00  0.00    -0.265 OA
ATOM      6  C   UNL d   1      28.673  16.441 -23.767  0.00  0.00     0.313 A 
ATOM      7  S   UNL d   1      29.430  16.320 -24.009  0.00  0.00    -0.021 SA
ATOM      8  O   UNL d   1      28.213  15.973 -23.235  0.00  0.00    -0.258 OA
ENDBRANCH   1   2
BRANCH   1   9
ATOM      9  C   UNL d   1      31.096  16.903 -24.423  0.00  0.00     0.001 A 
ATOM     10  C   UNL d   1      31.387  17.545 -23.995  0.00  0.00     0.001 A 
ATOM     11  C   UNL d   1      32.079  17.491 -23.592  0.00  0.00     0.011 A 
ATOM     12  C   UNL d   1      32.526  16.770 -23.596  0.00  0.00     0.058 A 
ATOM     13  C   UNL d   1      32.236  16.128 -24.023  0.00  0.00     0.011 A 
ATOM     14 CL   UNL d   1      33.240  16.697 -23.186  0.00  0.00    -0.082 Cl
ATOM     15  C   UNL d   1      31.511  16.190 -24.444  0.00  0.00     0.001 A 
ENDBRANCH   1   9
TORSDOF 2
ENDMDL
MODEL 3
REMARK VINA RESULT:      -2.7      1.367      1.778
REMARK  2 active torsions:
REMARK  status: ('A' for Active; 'I' for Inactive)
REMARK    1  A    between atoms: C_6  and  C_3 
REMARK    2  A    between atoms: C_9  and  C_6 
ROOT
ATOM      1  C   UNL d   1      32.061  17.068 -24.310  0.00  0.00     0.011 C 
ENDROOT
BRANCH   1   2
ATOM      2  C   UNL d   1      32.393  17.746 -23.948  0.00  0.00     0.092 A 
ATOM      3  C   UNL d   1      32.550  18.458 -24.272  0.00  0.00     0.288 A 
ATOM      4  N   UNL d   1      32.866  18.934 -23.713  0.00  0.00    -0.163 NA
ATOM      5  O   UNL d   1      32.397  18.662 -25.096  0.00  0.00    -0.265 OA
ATOM      6  C   UNL d   1      32.896  18.471 -23.012  0.00  0.00     0.313 A 
ATOM      7  S   UNL d   1      32.597  17.748 -23.197  0.00  0.00    -0.021 SA
ATOM      8  O   UNL d   1      33.190  18.739 -22.267  0.00  0.00    -0.258 OA
ENDBRANCH   1   2
BRANCH   1   9
ATOM      9  C   UNL d   1      31.372  16.695 -24.048  0.00  0.00     0.001 A 
ATOM     10  C   UNL d   1      30.613  16.986 -24.185  0.00  0.00     0.001 A 
ATOM     11  C   UNL d   1      29.968  16.593 -23.913  0.00  0.00     0.011 A 
ATOM     12  C   UNL d   1      30.053  15.870 -23.478  0.00  0.00     0.058 A 
ATOM     13  C   UNL d   1      30.812  15.579 -23.340  0.00  0.00     0.011 A 
ATOM     14 CL   UNL d   1      29.400  15.453 -23.191  0.00  0.00    -0.082 Cl
ATOM     15  C   UNL d   1      31.484  15.994 -23.628  0.00  0.00     0.001 A 
ENDBRANCH   1   9
TORSDOF 2
ENDMDL
MODEL 4
REMARK VINA RESULT:      -2.7      2.440      3.366
REMARK  2 active torsions:
REMARK  status: ('A' for Active; 'I' for Inactive)
REMARK    1  A    between atoms: C_6  and  C_3 
REMARK    2  A    between atoms: C_9  and  C_6 
ROOT
ATOM      1  C   UNL d   1      31.440  16.767 -24.508  0.00  0.00     0.011 C 
ENDROOT
BRANCH   1   2
ATOM      2  C   UNL d   1      30.623  16.699 -24.340  0.00  0.00     0.092 A 
ATOM      3  C   UNL d   1      30.244  16.132 -23.925  0.00  0.00     0.288 A 
ATOM      4  N   UNL d   1      29.462  16.299 -23.910  0.00  0.00    -0.163 NA
ATOM      5  O   UNL d   1      30.634  15.455 -23.560  0.00  0.00    -0.265 OA
ATOM      6  C   UNL d   1      29.375  17.013 -24.345  0.00  0.00     0.313 A 
ATOM      7  S   UNL d   1      30.110  17.227 -24.592  0.00  0.00    -0.021 SA
ATOM      8  O   UNL d   1      28.642  17.410 -24.482  0.00  0.00    -0.258 OA
ENDBRANCH   1   2
BRANCH   1   9
ATOM      9  C   UNL d   1      31.888  17.444 -24.355  0.00  0.00     0.001 A 
ATOM     10  C   UNL d   1      32.105  17.687 -23.597  0.00  0.00     0.001 A 
ATOM     11  C   UNL d   1      32.542  18.352 -23.490  0.00  0.00     0.011 A 
ATOM     12  C   UNL d   1      32.790  18.819 -24.153  0.00  0.00     0.058 A 
ATOM     13  C   UNL d   1      32.573  18.576 -24.910  0.00  0.00     0.011 A 
ATOM     14 CL   UNL d   1      33.240  19.506 -24.060  0.00  0.00    -0.082 Cl
ATOM     15  C   UNL d   1      32.115  17.879 -25.017  0.00  0.00     0.001 A 
ENDBRANCH   1   9
TORSDOF 2
ENDMDL
MODEL 5
REMARK VINA RESULT:      -2.3      4.738      5.709
REMARK  2 active torsions:
REMARK  status: ('A' for Active; 'I' for Inactive)
REMARK    1  A    between atoms: C_6  and  C_3 
REMARK    2  A    between atoms: C_9  and  C_6 
ROOT
ATOM      1  C   UNL d   1      33.241  20.996 -21.516  0.00  0.00     0.011 C 
ENDROOT
BRANCH   1   2
ATOM      2  C   UNL d   1      32.809  21.712 -21.534  0.00  0.00     0.092 A 
ATOM      3  C   UNL d   1      32.145  21.904 -21.134  0.00  0.00     0.288 A 
ATOM      4  N   UNL d   1      31.932  22.650 -21.327  0.00  0.00    -0.163 NA
ATOM      5  O   UNL d   1      31.738  21.377 -20.586  0.00  0.00    -0.265 OA
ATOM      6  C   UNL d   1      32.509  22.915 -21.878  0.00  0.00     0.313 A 
ATOM      7  S   UNL d   1      33.030  22.311 -21.979  0.00  0.00    -0.021 SA
ATOM      8  O   UNL d   1      32.517  23.677 -22.242  0.00  0.00    -0.258 OA
ENDBRANCH   1   2
BRANCH   1   9
ATOM      9  C   UNL d   1      33.237  20.440 -22.127  0.00  0.00     0.001 A 
ATOM     10  C   UNL d   1      33.231  20.639 -22.928  0.00  0.00     0.001 A 
ATOM     11  C   UNL d   1      33.228  20.069 -23.493  0.00  0.00     0.011 A 
ATOM     12  C   UNL d   1      33.231  19.248 -23.279  0.00  0.00     0.058 A 
ATOM     13  C   UNL d   1      33.237  19.048 -22.479  0.00  0.00     0.011 A 
ATOM     14 CL   UNL d   1      33.227  18.648 -23.847  0.00  0.00    -0.082 Cl
ATOM     15  C   UNL d   1      33.240  19.650 -21.891  0.00  0.00     0.001 A 
ENDBRANCH   1   9
TORSDOF 2
ENDMDL
MODEL 6
REMARK VINA RESULT:      -2.1      6.358      7.383
REMARK  2 active torsions:
REMARK  status: ('A' for Active; 'I' for Inactive)
REMARK    1  A    between atoms: C_6  and  C_3 
REMARK    2  A    between atoms: C_9  and  C_6 
ROOT
ATOM      1  C   UNL d   1      32.380  22.050 -20.994  0.00  0.00     0.011 C 
ENDROOT
BRANCH   1   2
ATOM      2  C   UNL d   1      32.690  22.260 -21.743  0.00  0.00     0.092 A 
ATOM      3  C   UNL d   1      33.025  21.789 -22.293  0.00  0.00     0.288 A 
ATOM      4  N   UNL d   1      33.238  22.235 -22.922  0.00  0.00    -0.163 NA
ATOM      5  O   UNL d   1      33.131  20.938 -22.206  0.00  0.00    -0.265 OA
ATOM      6  C   UNL d   1      33.013  23.022 -22.728  0.00  0.00     0.313 A 
ATOM      7  S   UNL d   1      32.680  22.995 -21.996  0.00  0.00    -0.021 SA
ATOM      8  O   UNL d   1      33.128  23.694 -23.226  0.00  0.00    -0.258 OA
ENDBRANCH   1   2
BRANCH   1   9
ATOM      9  C   UNL d   1      32.540  22.463 -20.296  0.00  0.00     0.001 A 
ATOM     10  C   UNL d   1      32.227  23.206 -20.123  0.00  0.00     0.001 A 
ATOM     11  C   UNL d   1      32.407  23.576 -19.433  0.00  0.00     0.011 A 
ATOM     12  C   UNL d   1      32.922  23.210 -18.867  0.00  0.00     0.058 A 
ATOM     13  C   UNL d   1      33.235  22.466 -19.041  0.00  0.00     0.011 A 
ATOM     14 CL   UNL d   1      33.117  23.575 -18.152  0.00  0.00    -0.082 Cl
ATOM     15  C   UNL d   1      33.043  22.084 -19.765  0.00  0.00     0.001 A 
ENDBRANCH   1   9
TORSDOF 2
ENDMDL
MODEL 7
REMARK VINA RESULT:      -1.6      2.998      3.827
REMARK  2 active torsions:
REMARK  status: ('A' for Active; 'I' for Inactive)
REMARK    1  A    between atoms: C_6  and  C_3 
REMARK    2  A    between atoms: C_9  and  C_6 
ROOT
ATOM      1  C   UNL d   1      33.171  19.409 -23.364  0.00  0.00     0.011 C 
ENDROOT
BRANCH   1   2
ATOM      2  C   UNL d   1      33.133  19.872 -22.667  0.00  0.00     0.092 A 
ATOM      3  C   UNL d   1      32.994  20.654 -22.596  0.00  0.00     0.288 A 
ATOM      4  N   UNL d   1      33.010  20.852 -21.821  0.00  0.00    -0.163 NA
ATOM      5  O   UNL d   1      32.851  21.186 -23.260  0.00  0.00    -0.265 OA
ATOM      6  C   UNL d   1      33.170  20.136 -21.409  0.00  0.00     0.313 A 
ATOM      7  S   UNL d   1      33.238  19.558 -21.963  0.00  0.00    -0.021 SA
ATOM      8  O   UNL d   1      33.239  20.067 -20.570  0.00  0.00    -0.258 OA
ENDBRANCH   1   2
BRANCH   1   9
ATOM      9  C   UNL d   1      32.885  18.636 -23.420  0.00  0.00     0.001 A 
ATOM     10  C   UNL d   1      33.179  18.006 -22.976  0.00  0.00     0.001 A 
ATOM     11  C   UNL d   1      32.875  17.268 -23.059  0.00  0.00     0.011 A 
ATOM     12  C   UNL d   1      32.244  17.119 -23.606  0.00  0.00     0.058 A 
ATOM     13  C   UNL d   1      31.950  17.749 -24.051  0.00  0.00     0.011 A 
ATOM     14 CL   UNL d   1      31.919  16.366 -23.705  0.00  0.00    -0.082 Cl
ATOM     15  C   UNL d   1      32.273  18.520 -23.959  0.00  0.00     0.001 A 
ENDBRANCH   1   9
TORSDOF 2
ENDMDL
MODEL 8
REMARK VINA RESULT:      -1.1      6.468      7.355
REMARK  2 active torsions:
REMARK  status: ('A' for Active; 'I' for Inactive)
REMARK    1  A    between atoms: C_6  and  C_3 
REMARK    2  A    between atoms: C_9  and  C_6 
ROOT
ATOM      1  C   UNL d   1      32.674  23.625 -21.674  0.00  0.00     0.011 C 
ENDROOT
BRANCH   1   2
ATOM      2  C   UNL d   1      32.534  22.958 -21.187  0.00  0.00     0.092 A 
ATOM      3  C   UNL d   1      32.131  22.919 -20.499  0.00  0.00     0.288 A 
ATOM      4  N   UNL d   1      32.144  22.165 -20.234  0.00  0.00    -0.163 NA
ATOM      5  O   UNL d   1      31.751  23.593 -20.119  0.00  0.00    -0.265 OA
ATOM      6  C   UNL d   1      32.584  21.731 -20.804  0.00  0.00     0.313 A 
ATOM      7  S   UNL d   1      32.806  22.254 -21.374  0.00  0.00    -0.021 SA
ATOM      8  O   UNL d   1      32.747  20.904 -20.762  0.00  0.00    -0.258 OA
ENDBRANCH   1   2
BRANCH   1   9
ATOM      9  C   UNL d   1      32.602  23.619 -22.497  0.00  0.00     0.001 A 
ATOM     10  C   UNL d   1      33.241  23.537 -23.011  0.00  0.00     0.001 A 
ATOM     11  C   UNL d   1      33.130  23.536 -23.807  0.00  0.00     0.011 A 
ATOM     12  C   UNL d   1      32.352  23.620 -24.135  0.00  0.00     0.058 A 
ATOM     13  C   UNL d   1      31.713  23.702 -23.620  0.00  0.00     0.011 A 
ATOM     14 CL   UNL d   1      32.220  23.621 -24.950  0.00  0.00    -0.082 Cl
ATOM     15  C   UNL d   1      31.835  23.702 -22.788  0.00  0.00     0.001 A 
ENDBRANCH   1   9
TORSDOF 2
ENDMDL
