MODEL 1
REMARK VINA RESULT:      -7.8      0.000      0.000
REMARK  6 active torsions:
REMARK  status: ('A' for Active; 'I' for Inactive)
REMARK    1  A    between atoms: C_7  and  C_1 
REMARK    2  A    between atoms: C_10  and  C_2 
REMARK    3  A    between atoms: C_8  and  C_7 
REMARK    4  A    between atoms: C_9  and  C_8 
REMARK    5  A    between atoms: C_13  and  C_9 
REMARK    6  A    between atoms: O_20  and  C_16 
ROOT
ATOM      1  C   UNL d   1      52.164  33.594  53.027  0.00  0.00     0.097 A 
ATOM      2  C   UNL d   1      52.706  33.764  53.624  0.00  0.00     0.009 A 
ATOM      3  C   UNL d   1      52.078  32.814  52.760  0.00  0.00     0.282 A 
ATOM      4  C   UNL d   1      53.165  33.164  53.960  0.00  0.00     0.018 A 
ATOM      5  N   UNL d   1      52.536  32.226  53.098  0.00  0.00    -0.208 NA
ATOM      6  C   UNL d   1      53.079  32.384  53.693  0.00  0.00     0.085 A 
ATOM      7  C   UNL d   1      53.697  33.339  54.547  0.00  0.00     0.008 A 
ATOM      8  O   UNL d   1      51.538  32.636  52.164  0.00  0.00    -0.265 OA
ATOM      9  C   UNL d   1      53.527  31.801  54.021  0.00  0.00     0.020 A 
ATOM     10  C   UNL d   1      54.158  32.738  54.885  0.00  0.00     0.035 A 
ATOM     11  C   UNL d   1      54.072  31.958  54.618  0.00  0.00     0.008 A 
ATOM     12 BR   UNL d   1      54.713  32.903  55.494  0.00  0.00    -0.049 Br
ENDROOT
BRANCH   1  13
ATOM     13  C   UNL d   1      51.690  34.200  52.677  0.00  0.00     0.200 C 
ATOM     14  O   UNL d   1      52.030  34.700  52.122  0.00  0.00    -0.286 OA
BRANCH  13  15
ATOM     15  C   UNL d   1      50.910  34.290  52.885  0.00  0.00     0.042 C 
BRANCH  15  16
ATOM     16  C   UNL d   1      50.343  34.475  52.309  0.00  0.00     0.005 C 
BRANCH  16  17
ATOM     17  C   UNL d   1      49.640  34.830  52.517  0.00  0.00     0.022 A 
ATOM     18  C   UNL d   1      49.037  34.864  51.967  0.00  0.00     0.094 A 
ATOM     19  C   UNL d   1      48.314  35.224  52.170  0.00  0.00     0.024 A 
ATOM     20  C   UNL d   1      48.232  35.538  52.929  0.00  0.00     0.002 A 
ATOM     21  C   UNL d   1      48.838  35.499  53.468  0.00  0.00     0.000 A 
ATOM     22  C   UNL d   1      49.538  35.149  53.271  0.00  0.00     0.002 A 
BRANCH  18  23
ATOM     23  O   UNL d   1      49.119  34.548  51.204  0.00  0.00    -0.328 OA
ATOM     24  C   UNL d   1      48.493  34.578  50.676  0.00  0.00     0.181 C 
ENDBRANCH  18  23
ENDBRANCH  16  17
ENDBRANCH  15  16
ENDBRANCH  13  15
ENDBRANCH   1  13
BRANCH   2  25
ATOM     25  C   UNL d   1      52.794  34.558  53.895  0.00  0.00     0.000 A 
ATOM     26  C   UNL d   1      53.283  35.083  53.483  0.00  0.00     0.000 A 
ATOM     27  C   UNL d   1      53.369  35.866  53.750  0.00  0.00     0.000 A 
ATOM     28  C   UNL d   1      52.964  36.103  54.424  0.00  0.00     0.000 A 
ATOM     29  C   UNL d   1      52.476  35.575  54.834  0.00  0.00     0.000 A 
ATOM     30  C   UNL d   1      52.391  34.809  54.572  0.00  0.00     0.000 A 
ENDBRANCH   2  25
TORSDOF 6
ENDMDL
MODEL 2
REMARK VINA RESULT:      -7.7      2.037      4.572
REMARK  6 active torsions:
REMARK  status: ('A' for Active; 'I' for Inactive)
REMARK    1  A    between atoms: C_7  and  C_1 
REMARK    2  A    between atoms: C_10  and  C_2 
REMARK    3  A    between atoms: C_8  and  C_7 
REMARK    4  A    between atoms: C_9  and  C_8 
REMARK    5  A    between atoms: C_13  and  C_9 
REMARK    6  A    between atoms: O_20  and  C_16 
ROOT
ATOM      1  C   UNL d   1      53.172  32.682  53.358  0.00  0.00     0.097 A 
ATOM      2  C   UNL d   1      53.326  33.354  53.811  0.00  0.00     0.009 A 
ATOM      3  C   UNL d   1      52.525  32.675  52.840  0.00  0.00     0.282 A 
ATOM      4  C   UNL d   1      52.842  34.020  53.753  0.00  0.00     0.018 A 
ATOM      5  N   UNL d   1      52.050  33.340  52.789  0.00  0.00    -0.208 NA
ATOM      6  C   UNL d   1      52.194  34.013  53.235  0.00  0.00     0.085 A 
ATOM      7  C   UNL d   1      52.999  34.678  54.201  0.00  0.00     0.008 A 
ATOM      8  O   UNL d   1      52.364  32.008  52.385  0.00  0.00    -0.265 OA
ATOM      9  C   UNL d   1      51.723  34.664  53.180  0.00  0.00     0.020 A 
ATOM     10  C   UNL d   1      52.514  35.348  54.144  0.00  0.00     0.035 A 
ATOM     11  C   UNL d   1      51.867  35.342  53.626  0.00  0.00     0.008 A 
ATOM     12 BR   UNL d   1      52.664  36.037  54.602  0.00  0.00    -0.049 Br
ENDROOT
BRANCH   1  13
ATOM     13  C   UNL d   1      53.661  31.995  53.410  0.00  0.00     0.200 C 
ATOM     14  O   UNL d   1      54.376  31.984  53.005  0.00  0.00    -0.286 OA
BRANCH  13  15
ATOM     15  C   UNL d   1      53.432  31.353  53.851  0.00  0.00     0.042 C 
BRANCH  15  16
ATOM     16  C   UNL d   1      53.567  30.584  53.572  0.00  0.00     0.005 C 
BRANCH  16  17
ATOM     17  C   UNL d   1      53.453  29.941  54.058  0.00  0.00     0.022 A 
ATOM     18  C   UNL d   1      53.059  29.289  53.763  0.00  0.00     0.094 A 
ATOM     19  C   UNL d   1      52.937  28.626  54.252  0.00  0.00     0.024 A 
ATOM     20  C   UNL d   1      53.222  28.650  55.026  0.00  0.00     0.002 A 
ATOM     21  C   UNL d   1      53.613  29.303  55.309  0.00  0.00     0.000 A 
ATOM     22  C   UNL d   1      53.731  29.946  54.835  0.00  0.00     0.002 A 
BRANCH  18  23
ATOM     23  O   UNL d   1      52.771  29.263  52.986  0.00  0.00    -0.328 OA
ATOM     24  C   UNL d   1      52.286  28.648  52.745  0.00  0.00     0.181 C 
ENDBRANCH  18  23
ENDBRANCH  16  17
ENDBRANCH  15  16
ENDBRANCH  13  15
ENDBRANCH   1  13
BRANCH   2  25
ATOM     25  C   UNL d   1      53.984  33.361  54.337  0.00  0.00     0.000 A 
ATOM     26  C   UNL d   1      54.737  33.554  54.053  0.00  0.00     0.000 A 
ATOM     27  C   UNL d   1      55.387  33.561  54.573  0.00  0.00     0.000 A 
ATOM     28  C   UNL d   1      55.266  33.374  55.363  0.00  0.00     0.000 A 
ATOM     29  C   UNL d   1      54.511  33.181  55.644  0.00  0.00     0.000 A 
ATOM     30  C   UNL d   1      53.876  33.174  55.135  0.00  0.00     0.000 A 
ENDBRANCH   2  25
TORSDOF 6
ENDMDL
MODEL 3
REMARK VINA RESULT:      -6.5      0.933      2.059
REMARK  6 active torsions:
REMARK  status: ('A' for Active; 'I' for Inactive)
REMARK    1  A    between atoms: C_7  and  C_1 
REMARK    2  A    between atoms: C_10  and  C_2 
REMARK    3  A    between atoms: C_8  and  C_7 
REMARK    4  A    between atoms: C_9  and  C_8 
REMARK    5  A    between atoms: C_13  and  C_9 
REMARK    6  A    between atoms: O_20  and  C_16 
ROOT
ATOM      1  C   UNL d   1      52.317  34.207  53.346  0.00  0.00     0.097 A 
ATOM      2  C   UNL d   1      52.648  33.523  53.665  0.00  0.00     0.009 A 
ATOM      3  C   UNL d   1      52.574  34.950  53.610  0.00  0.00     0.282 A 
ATOM      4  C   UNL d   1      53.235  33.571  54.246  0.00  0.00     0.018 A 
ATOM      5  N   UNL d   1      53.155  34.988  54.185  0.00  0.00    -0.208 NA
ATOM      6  C   UNL d   1      53.491  34.313  54.509  0.00  0.00     0.085 A 
ATOM      7  C   UNL d   1      53.557  32.893  54.555  0.00  0.00     0.008 A 
ATOM      8  O   UNL d   1      52.247  35.637  53.296  0.00  0.00    -0.265 OA
ATOM      9  C   UNL d   1      54.063  34.358  55.075  0.00  0.00     0.020 A 
ATOM     10  C   UNL d   1      54.146  32.939  55.138  0.00  0.00     0.035 A 
ATOM     11  C   UNL d   1      54.402  33.682  55.402  0.00  0.00     0.008 A 
ATOM     12 BR   UNL d   1      54.489  32.247  55.469  0.00  0.00    -0.049 Br
ENDROOT
BRANCH   1  13
ATOM     13  C   UNL d   1      51.717  34.169  52.752  0.00  0.00     0.200 C 
ATOM     14  O   UNL d   1      51.933  33.994  51.980  0.00  0.00    -0.286 OA
BRANCH  13  15
ATOM     15  C   UNL d   1      50.938  34.303  52.939  0.00  0.00     0.042 C 
BRANCH  15  16
ATOM     16  C   UNL d   1      50.391  34.484  52.343  0.00  0.00     0.005 C 
BRANCH  16  17
ATOM     17  C   UNL d   1      49.675  34.827  52.527  0.00  0.00     0.022 A 
ATOM     18  C   UNL d   1      49.086  34.838  51.961  0.00  0.00     0.094 A 
ATOM     19  C   UNL d   1      48.351  35.187  52.139  0.00  0.00     0.024 A 
ATOM     20  C   UNL d   1      48.242  35.512  52.890  0.00  0.00     0.002 A 
ATOM     21  C   UNL d   1      48.835  35.496  53.445  0.00  0.00     0.000 A 
ATOM     22  C   UNL d   1      49.547  35.158  53.272  0.00  0.00     0.002 A 
BRANCH  18  23
ATOM     23  O   UNL d   1      49.195  34.512  51.207  0.00  0.00    -0.328 OA
ATOM     24  C   UNL d   1      48.571  34.484  50.675  0.00  0.00     0.181 C 
ENDBRANCH  18  23
ENDBRANCH  16  17
ENDBRANCH  15  16
ENDBRANCH  13  15
ENDBRANCH   1  13
BRANCH   2  25
ATOM     25  C   UNL d   1      52.387  32.767  53.397  0.00  0.00     0.000 A 
ATOM     26  C   UNL d   1      52.824  32.361  52.823  0.00  0.00     0.000 A 
ATOM     27  C   UNL d   1      52.566  31.615  52.559  0.00  0.00     0.000 A 
ATOM     28  C   UNL d   1      51.879  31.296  52.875  0.00  0.00     0.000 A 
ATOM     29  C   UNL d   1      51.446  31.706  53.450  0.00  0.00     0.000 A 
ATOM     30  C   UNL d   1      51.698  32.436  53.708  0.00  0.00     0.000 A 
ENDBRANCH   2  25
TORSDOF 6
ENDMDL
MODEL 4
REMARK VINA RESULT:      -5.6      2.132      4.505
REMARK  6 active torsions:
REMARK  status: ('A' for Active; 'I' for Inactive)
REMARK    1  A    between atoms: C_7  and  C_1 
REMARK    2  A    between atoms: C_10  and  C_2 
REMARK    3  A    between atoms: C_8  and  C_7 
REMARK    4  A    between atoms: C_9  and  C_8 
REMARK    5  A    between atoms: C_13  and  C_9 
REMARK    6  A    between atoms: O_20  and  C_16 
ROOT
ATOM      1  C   UNL d   1      53.673  33.118  53.829  0.00  0.00     0.097 A 
ATOM      2  C   UNL d   1      53.103  33.714  53.842  0.00  0.00     0.009 A 
ATOM      3  C   UNL d   1      54.385  33.221  54.239  0.00  0.00     0.282 A 
ATOM      4  C   UNL d   1      53.236  34.414  54.259  0.00  0.00     0.018 A 
ATOM      5  N   UNL d   1      54.509  33.918  54.651  0.00  0.00    -0.208 NA
ATOM      6  C   UNL d   1      53.949  34.518  54.670  0.00  0.00     0.085 A 
ATOM      7  C   UNL d   1      52.671  34.996  54.267  0.00  0.00     0.008 A 
ATOM      8  O   UNL d   1      54.959  32.631  54.231  0.00  0.00    -0.265 OA
ATOM      9  C   UNL d   1      54.077  35.201  55.077  0.00  0.00     0.020 A 
ATOM     10  C   UNL d   1      52.803  35.700  54.687  0.00  0.00     0.035 A 
ATOM     11  C   UNL d   1      53.516  35.804  55.097  0.00  0.00     0.008 A 
ATOM     12 BR   UNL d   1      52.228  36.313  54.705  0.00  0.00    -0.049 Br
ENDROOT
BRANCH   1  13
ATOM     13  C   UNL d   1      53.546  32.397  53.404  0.00  0.00     0.200 C 
ATOM     14  O   UNL d   1      53.592  32.406  52.585  0.00  0.00    -0.286 OA
BRANCH  13  15
ATOM     15  C   UNL d   1      53.382  31.707  53.797  0.00  0.00     0.042 C 
BRANCH  15  16
ATOM     16  C   UNL d   1      53.479  30.976  53.417  0.00  0.00     0.005 C 
BRANCH  16  17
ATOM     17  C   UNL d   1      53.334  30.280  53.813  0.00  0.00     0.022 A 
ATOM     18  C   UNL d   1      52.967  29.668  53.414  0.00  0.00     0.094 A 
ATOM     19  C   UNL d   1      52.814  28.952  53.811  0.00  0.00     0.024 A 
ATOM     20  C   UNL d   1      53.041  28.884  54.601  0.00  0.00     0.002 A 
ATOM     21  C   UNL d   1      53.405  29.498  54.988  0.00  0.00     0.000 A 
ATOM     22  C   UNL d   1      53.553  30.192  54.604  0.00  0.00     0.002 A 
BRANCH  18  23
ATOM     23  O   UNL d   1      52.739  29.735  52.620  0.00  0.00    -0.328 OA
ATOM     24  C   UNL d   1      52.441  29.085  52.219  0.00  0.00     0.181 C 
ENDBRANCH  18  23
ENDBRANCH  16  17
ENDBRANCH  15  16
ENDBRANCH  13  15
ENDBRANCH   1  13
BRANCH   2  25
ATOM     25  C   UNL d   1      52.378  33.608  53.424  0.00  0.00     0.000 A 
ATOM     26  C   UNL d   1      51.727  33.269  53.808  0.00  0.00     0.000 A 
ATOM     27  C   UNL d   1      51.012  33.165  53.396  0.00  0.00     0.000 A 
ATOM     28  C   UNL d   1      50.966  33.402  52.612  0.00  0.00     0.000 A 
ATOM     29  C   UNL d   1      51.619  33.741  52.232  0.00  0.00     0.000 A 
ATOM     30  C   UNL d   1      52.319  33.843  52.635  0.00  0.00     0.000 A 
ENDBRANCH   2  25
TORSDOF 6
ENDMDL
MODEL 5
REMARK VINA RESULT:      -5.3      1.507      2.282
REMARK  6 active torsions:
REMARK  status: ('A' for Active; 'I' for Inactive)
REMARK    1  A    between atoms: C_7  and  C_1 
REMARK    2  A    between atoms: C_10  and  C_2 
REMARK    3  A    between atoms: C_8  and  C_7 
REMARK    4  A    between atoms: C_9  and  C_8 
REMARK    5  A    between atoms: C_13  and  C_9 
REMARK    6  A    between atoms: O_20  and  C_16 
ROOT
ATOM      1  C   UNL d   1      52.815  31.989  52.996  0.00  0.00     0.097 A 
ATOM      2  C   UNL d   1      53.263  31.670  53.610  0.00  0.00     0.009 A 
ATOM      3  C   UNL d   1      52.372  31.488  52.506  0.00  0.00     0.282 A 
ATOM      4  C   UNL d   1      53.275  30.855  53.742  0.00  0.00     0.018 A 
ATOM      5  N   UNL d   1      52.390  30.681  52.644  0.00  0.00    -0.208 NA
ATOM      6  C   UNL d   1      52.833  30.353  53.252  0.00  0.00     0.085 A 
ATOM      7  C   UNL d   1      53.718  30.547  54.349  0.00  0.00     0.008 A 
ATOM      8  O   UNL d   1      51.923  31.799  51.891  0.00  0.00    -0.265 OA
ATOM      9  C   UNL d   1      52.846  29.558  53.382  0.00  0.00     0.020 A 
ATOM     10  C   UNL d   1      53.732  29.729  54.483  0.00  0.00     0.035 A 
ATOM     11  C   UNL d   1      53.289  29.227  53.993  0.00  0.00     0.008 A 
ATOM     12 BR   UNL d   1      54.186  29.395  55.106  0.00  0.00    -0.049 Br
ENDROOT
BRANCH   1  13
ATOM     13  C   UNL d   1      52.795  32.822  52.852  0.00  0.00     0.200 C 
ATOM     14  O   UNL d   1      53.423  33.171  52.455  0.00  0.00    -0.286 OA
BRANCH  13  15
ATOM     15  C   UNL d   1      52.168  33.273  53.102  0.00  0.00     0.042 C 
BRANCH  15  16
ATOM     16  C   UNL d   1      51.830  33.835  52.596  0.00  0.00     0.005 C 
BRANCH  16  17
ATOM     17  C   UNL d   1      51.140  34.217  52.802  0.00  0.00     0.022 A 
ATOM     18  C   UNL d   1      50.613  34.424  52.213  0.00  0.00     0.094 A 
ATOM     19  C   UNL d   1      49.905  34.815  52.414  0.00  0.00     0.024 A 
ATOM     20  C   UNL d   1      49.760  34.982  53.209  0.00  0.00     0.002 A 
ATOM     21  C   UNL d   1      50.292  34.772  53.785  0.00  0.00     0.000 A 
ATOM     22  C   UNL d   1      50.977  34.393  53.591  0.00  0.00     0.002 A 
BRANCH  18  23
ATOM     23  O   UNL d   1      50.757  34.256  51.414  0.00  0.00    -0.328 OA
ATOM     24  C   UNL d   1      50.187  34.418  50.848  0.00  0.00     0.181 C 
ENDBRANCH  18  23
ENDBRANCH  16  17
ENDBRANCH  15  16
ENDBRANCH  13  15
ENDBRANCH   1  13
BRANCH   2  25
ATOM     25  C   UNL d   1      53.713  32.180  54.108  0.00  0.00     0.000 A 
ATOM     26  C   UNL d   1      54.447  32.464  53.852  0.00  0.00     0.000 A 
ATOM     27  C   UNL d   1      54.891  32.968  54.344  0.00  0.00     0.000 A 
ATOM     28  C   UNL d   1      54.589  33.174  55.079  0.00  0.00     0.000 A 
ATOM     29  C   UNL d   1      53.854  32.887  55.331  0.00  0.00     0.000 A 
ATOM     30  C   UNL d   1      53.420  32.395  54.850  0.00  0.00     0.000 A 
ENDBRANCH   2  25
TORSDOF 6
ENDMDL
