MODEL 1
REMARK VINA RESULT:      -7.5      0.000      0.000
REMARK  4 active torsions:
REMARK  status: ('A' for Active; 'I' for Inactive)
REMARK    1  A    between atoms: C_6  and  C_1 
REMARK    2  A    between atoms: C_3  and  C_15 
REMARK    3  A    between atoms: O_11  and  C_6 
REMARK    4  A    between atoms: C_15  and  O_11 
ROOT
ATOM      1  C   UNL d   1     -48.556  12.810  22.429  0.00  0.00     0.127 A 
ATOM      2  C   UNL d   1     -48.959  12.420  21.837  0.00  0.00     0.305 A 
ATOM      3  C   UNL d   1     -48.874  13.503  22.759  0.00  0.00     0.013 A 
ATOM      4  C   UNL d   1     -49.606  13.768  22.461  0.00  0.00     0.023 A 
ATOM      5  O   UNL d   1     -49.671  12.671  21.542  0.00  0.00    -0.273 OA
ATOM      6  C   UNL d   1     -50.007  13.381  21.873  0.00  0.00     0.103 A 
ATOM      7  C   UNL d   1     -49.943  14.473  22.788  0.00  0.00     0.002 A 
ATOM      8  O   UNL d   1     -48.608  11.699  21.508  0.00  0.00    -0.259 OA
ATOM      9  C   UNL d   1     -50.746  13.644  21.569  0.00  0.00     0.025 A 
ATOM     10  C   UNL d   1     -50.675  14.738  22.489  0.00  0.00     0.000 A 
ATOM     11  C   UNL d   1     -51.064  14.332  21.895  0.00  0.00     0.002 A 
ATOM     12  C   UNL d   1     -49.572  14.898  23.383  0.00  0.00     0.000 A 
ATOM     13  C   UNL d   1     -51.018  15.405  22.781  0.00  0.00     0.000 A 
ATOM     14  C   UNL d   1     -49.928  15.593  23.690  0.00  0.00     0.000 A 
ATOM     15  C   UNL d   1     -50.645  15.847  23.392  0.00  0.00     0.000 A 
ENDROOT
BRANCH   1  16
ATOM     16  C   UNL d   1     -47.784  12.495  22.715  0.00  0.00     0.305 C 
ATOM     17  O   UNL d   1     -47.812  11.948  23.331  0.00  0.00    -0.259 OA
BRANCH  16  18
ATOM     18  O   UNL d   1     -47.067  12.730  22.390  0.00  0.00    -0.271 OA
BRANCH  18  19
ATOM     19  C   UNL d   1     -46.393  12.743  22.873  0.00  0.00     0.127 C 
ATOM     20  C   UNL d   1     -46.492  12.819  23.698  0.00  0.00     0.029 C 
BRANCH  19  21
ATOM     21  C   UNL d   1     -45.628  12.684  22.577  0.00  0.00     0.134 A 
ATOM     22  N   UNL d   1     -45.062  12.126  22.737  0.00  0.00    -0.236 NA
ATOM     23  C   UNL d   1     -44.387  12.344  22.276  0.00  0.00     0.088 A 
ATOM     24  C   UNL d   1     -43.649  11.999  22.203  0.00  0.00     0.020 A 
ATOM     25  C   UNL d   1     -44.539  12.972  21.881  0.00  0.00     0.049 A 
ATOM     26  C   UNL d   1     -43.034  12.309  21.702  0.00  0.00     0.002 A 
ATOM     27  C   UNL d   1     -43.224  12.964  21.303  0.00  0.00     0.001 A 
ATOM     28  C   UNL d   1     -43.967  13.312  21.376  0.00  0.00     0.008 A 
ATOM     29  S   UNL d   1     -45.311  13.226  22.036  0.00  0.00    -0.065 SA
ENDBRANCH  19  21
ENDBRANCH  18  19
ENDBRANCH  16  18
ENDBRANCH   1  16
TORSDOF 4
ENDMDL
MODEL 2
REMARK VINA RESULT:      -7.0      1.644      2.390
REMARK  4 active torsions:
REMARK  status: ('A' for Active; 'I' for Inactive)
REMARK    1  A    between atoms: C_6  and  C_1 
REMARK    2  A    between atoms: C_3  and  C_15 
REMARK    3  A    between atoms: O_11  and  C_6 
REMARK    4  A    between atoms: C_15  and  O_11 
ROOT
ATOM      1  C   UNL d   1     -47.755  14.115  22.900  0.00  0.00     0.127 A 
ATOM      2  C   UNL d   1     -48.058  14.863  22.785  0.00  0.00     0.305 A 
ATOM      3  C   UNL d   1     -48.266  13.484  23.075  0.00  0.00     0.013 A 
ATOM      4  C   UNL d   1     -49.081  13.654  23.125  0.00  0.00     0.023 A 
ATOM      5  O   UNL d   1     -48.849  15.036  22.832  0.00  0.00    -0.273 OA
ATOM      6  C   UNL d   1     -49.383  14.397  23.011  0.00  0.00     0.103 A 
ATOM      7  C   UNL d   1     -49.614  13.020  23.303  0.00  0.00     0.002 A 
ATOM      8  O   UNL d   1     -47.506  15.507  22.604  0.00  0.00    -0.259 OA
ATOM      9  C   UNL d   1     -50.204  14.573  23.060  0.00  0.00     0.025 A 
ATOM     10  C   UNL d   1     -50.429  13.190  23.353  0.00  0.00     0.000 A 
ATOM     11  C   UNL d   1     -50.713  13.948  23.234  0.00  0.00     0.002 A 
ATOM     12  C   UNL d   1     -49.354  12.253  23.426  0.00  0.00     0.000 A 
ATOM     13  C   UNL d   1     -50.959  12.607  23.520  0.00  0.00     0.000 A 
ATOM     14  C   UNL d   1     -49.903  11.643  23.601  0.00  0.00     0.000 A 
ATOM     15  C   UNL d   1     -50.700  11.817  23.648  0.00  0.00     0.000 A 
ENDROOT
BRANCH   1  16
ATOM     16  C   UNL d   1     -46.886  13.980  22.838  0.00  0.00     0.305 C 
ATOM     17  O   UNL d   1     -46.441  14.581  22.493  0.00  0.00    -0.259 OA
BRANCH  16  18
ATOM     18  O   UNL d   1     -46.529  13.292  23.109  0.00  0.00    -0.271 OA
BRANCH  18  19
ATOM     19  C   UNL d   1     -45.922  12.951  22.658  0.00  0.00     0.127 C 
ATOM     20  C   UNL d   1     -45.689  13.326  21.949  0.00  0.00     0.029 C 
BRANCH  19  21
ATOM     21  C   UNL d   1     -45.535  12.259  22.877  0.00  0.00     0.134 A 
ATOM     22  N   UNL d   1     -45.832  11.612  23.266  0.00  0.00    -0.236 NA
ATOM     23  C   UNL d   1     -45.186  11.072  23.340  0.00  0.00     0.088 A 
ATOM     24  C   UNL d   1     -45.140  10.329  23.679  0.00  0.00     0.020 A 
ATOM     25  C   UNL d   1     -44.565  11.371  23.025  0.00  0.00     0.049 A 
ATOM     26  C   UNL d   1     -44.426   9.866  23.697  0.00  0.00     0.002 A 
ATOM     27  C   UNL d   1     -43.796  10.205  23.360  0.00  0.00     0.001 A 
ATOM     28  C   UNL d   1     -43.842  10.953  23.019  0.00  0.00     0.008 A 
ATOM     29  S   UNL d   1     -44.734  12.120  22.718  0.00  0.00    -0.065 SA
ENDBRANCH  19  21
ENDBRANCH  18  19
ENDBRANCH  16  18
ENDBRANCH   1  16
TORSDOF 4
ENDMDL
MODEL 3
REMARK VINA RESULT:      -6.0      1.301      1.973
REMARK  4 active torsions:
REMARK  status: ('A' for Active; 'I' for Inactive)
REMARK    1  A    between atoms: C_6  and  C_1 
REMARK    2  A    between atoms: C_3  and  C_15 
REMARK    3  A    between atoms: O_11  and  C_6 
REMARK    4  A    between atoms: C_15  and  O_11 
ROOT
ATOM      1  C   UNL d   1     -47.673  14.083  22.826  0.00  0.00     0.127 A 
ATOM      2  C   UNL d   1     -47.879  14.838  22.599  0.00  0.00     0.305 A 
ATOM      3  C   UNL d   1     -48.264  13.515  22.957  0.00  0.00     0.013 A 
ATOM      4  C   UNL d   1     -49.055  13.753  22.847  0.00  0.00     0.023 A 
ATOM      5  O   UNL d   1     -48.646  15.078  22.490  0.00  0.00    -0.273 OA
ATOM      6  C   UNL d   1     -49.261  14.503  22.622  0.00  0.00     0.103 A 
ATOM      7  C   UNL d   1     -49.669  13.184  22.978  0.00  0.00     0.002 A 
ATOM      8  O   UNL d   1     -47.245  15.415  22.467  0.00  0.00    -0.259 OA
ATOM      9  C   UNL d   1     -50.058  14.748  22.510  0.00  0.00     0.025 A 
ATOM     10  C   UNL d   1     -50.461  13.422  22.868  0.00  0.00     0.000 A 
ATOM     11  C   UNL d   1     -50.647  14.186  22.639  0.00  0.00     0.002 A 
ATOM     12  C   UNL d   1     -49.508  12.413  23.207  0.00  0.00     0.000 A 
ATOM     13  C   UNL d   1     -51.064  12.902  22.984  0.00  0.00     0.000 A 
ATOM     14  C   UNL d   1     -50.135  11.869  23.329  0.00  0.00     0.000 A 
ATOM     15  C   UNL d   1     -50.908  12.110  23.219  0.00  0.00     0.000 A 
ENDROOT
BRANCH   1  16
ATOM     16  C   UNL d   1     -46.823  13.873  22.931  0.00  0.00     0.305 C 
ATOM     17  O   UNL d   1     -46.485  14.047  23.662  0.00  0.00    -0.259 OA
BRANCH  16  18
ATOM     18  O   UNL d   1     -46.381  13.521  22.335  0.00  0.00    -0.271 OA
BRANCH  18  19
ATOM     19  C   UNL d   1     -45.784  12.984  22.542  0.00  0.00     0.127 C 
ATOM     20  C   UNL d   1     -45.954  12.392  23.105  0.00  0.00     0.029 C 
BRANCH  19  21
ATOM     21  C   UNL d   1     -45.029  13.007  22.217  0.00  0.00     0.134 A 
ATOM     22  N   UNL d   1     -44.654  13.622  21.844  0.00  0.00    -0.236 NA
ATOM     23  C   UNL d   1     -43.891  13.328  21.627  0.00  0.00     0.088 A 
ATOM     24  C   UNL d   1     -43.266  13.686  21.240  0.00  0.00     0.020 A 
ATOM     25  C   UNL d   1     -43.821  12.608  21.851  0.00  0.00     0.049 A 
ATOM     26  C   UNL d   1     -42.531  13.290  21.071  0.00  0.00     0.002 A 
ATOM     27  C   UNL d   1     -42.489  12.540  21.317  0.00  0.00     0.001 A 
ATOM     28  C   UNL d   1     -43.119  12.179  21.707  0.00  0.00     0.008 A 
ATOM     29  S   UNL d   1     -44.513  12.358  22.228  0.00  0.00    -0.065 SA
ENDBRANCH  19  21
ENDBRANCH  18  19
ENDBRANCH  16  18
ENDBRANCH   1  16
TORSDOF 4
ENDMDL
MODEL 4
REMARK VINA RESULT:      -5.6      1.647      5.781
REMARK  4 active torsions:
REMARK  status: ('A' for Active; 'I' for Inactive)
REMARK    1  A    between atoms: C_6  and  C_1 
REMARK    2  A    between atoms: C_3  and  C_15 
REMARK    3  A    between atoms: O_11  and  C_6 
REMARK    4  A    between atoms: C_15  and  O_11 
ROOT
ATOM      1  C   UNL d   1     -45.834  12.931  22.710  0.00  0.00     0.127 A 
ATOM      2  C   UNL d   1     -45.343  13.414  22.273  0.00  0.00     0.305 A 
ATOM      3  C   UNL d   1     -45.563  12.189  22.967  0.00  0.00     0.013 A 
ATOM      4  C   UNL d   1     -44.786  11.972  22.759  0.00  0.00     0.023 A 
ATOM      5  O   UNL d   1     -44.586  13.210  22.066  0.00  0.00    -0.273 OA
ATOM      6  C   UNL d   1     -44.297  12.451  22.324  0.00  0.00     0.103 A 
ATOM      7  C   UNL d   1     -44.496  11.218  23.014  0.00  0.00     0.002 A 
ATOM      8  O   UNL d   1     -45.647  14.184  22.016  0.00  0.00    -0.259 OA
ATOM      9  C   UNL d   1     -43.512  12.236  22.111  0.00  0.00     0.025 A 
ATOM     10  C   UNL d   1     -43.718  11.001  22.805  0.00  0.00     0.000 A 
ATOM     11  C   UNL d   1     -43.241  11.499  22.365  0.00  0.00     0.002 A 
ATOM     12  C   UNL d   1     -44.954  10.701  23.455  0.00  0.00     0.000 A 
ATOM     13  C   UNL d   1     -43.417  10.290  23.034  0.00  0.00     0.000 A 
ATOM     14  C   UNL d   1     -44.643   9.960  23.695  0.00  0.00     0.000 A 
ATOM     15  C   UNL d   1     -43.880   9.754  23.487  0.00  0.00     0.000 A 
ENDROOT
BRANCH   1  16
ATOM     16  C   UNL d   1     -46.649  13.200  22.909  0.00  0.00     0.305 C 
ATOM     17  O   UNL d   1     -46.720  13.753  23.516  0.00  0.00    -0.259 OA
BRANCH  16  18
ATOM     18  O   UNL d   1     -47.312  12.920  22.513  0.00  0.00    -0.271 OA
BRANCH  18  19
ATOM     19  C   UNL d   1     -48.037  12.895  22.914  0.00  0.00     0.127 C 
ATOM     20  C   UNL d   1     -48.062  12.567  23.681  0.00  0.00     0.029 C 
BRANCH  19  21
ATOM     21  C   UNL d   1     -48.738  13.180  22.590  0.00  0.00     0.134 A 
ATOM     22  N   UNL d   1     -49.117  13.883  22.736  0.00  0.00    -0.236 NA
ATOM     23  C   UNL d   1     -49.808  13.877  22.248  0.00  0.00     0.088 A 
ATOM     24  C   UNL d   1     -50.405  14.427  22.152  0.00  0.00     0.020 A 
ATOM     25  C   UNL d   1     -49.835  13.231  21.852  0.00  0.00     0.049 A 
ATOM     26  C   UNL d   1     -51.064  14.315  21.625  0.00  0.00     0.002 A 
ATOM     27  C   UNL d   1     -51.064  13.633  21.227  0.00  0.00     0.001 A 
ATOM     28  C   UNL d   1     -50.464  13.078  21.323  0.00  0.00     0.008 A 
ATOM     29  S   UNL d   1     -49.182  12.758  22.033  0.00  0.00    -0.065 SA
ENDBRANCH  19  21
ENDBRANCH  18  19
ENDBRANCH  16  18
ENDBRANCH   1  16
TORSDOF 4
ENDMDL
MODEL 5
REMARK VINA RESULT:      -5.3      2.850      4.739
REMARK  4 active torsions:
REMARK  status: ('A' for Active; 'I' for Inactive)
REMARK    1  A    between atoms: C_6  and  C_1 
REMARK    2  A    between atoms: C_3  and  C_15 
REMARK    3  A    between atoms: O_11  and  C_6 
REMARK    4  A    between atoms: C_15  and  O_11 
ROOT
ATOM      1  C   UNL d   1     -43.939  12.641  21.885  0.00  0.00     0.127 A 
ATOM      2  C   UNL d   1     -43.888  11.944  22.305  0.00  0.00     0.305 A 
ATOM      3  C   UNL d   1     -44.608  13.126  21.968  0.00  0.00     0.013 A 
ATOM      4  C   UNL d   1     -45.206  12.868  22.487  0.00  0.00     0.023 A 
ATOM      5  O   UNL d   1     -44.465  11.686  22.813  0.00  0.00    -0.273 OA
ATOM      6  C   UNL d   1     -45.156  12.175  22.906  0.00  0.00     0.103 A 
ATOM      7  C   UNL d   1     -45.895  13.352  22.582  0.00  0.00     0.002 A 
ATOM      8  O   UNL d   1     -43.179  11.454  22.204  0.00  0.00    -0.259 OA
ATOM      9  C   UNL d   1     -45.757  11.911  23.431  0.00  0.00     0.025 A 
ATOM     10  C   UNL d   1     -46.493  13.094  23.102  0.00  0.00     0.000 A 
ATOM     11  C   UNL d   1     -46.423  12.391  23.515  0.00  0.00     0.002 A 
ATOM     12  C   UNL d   1     -45.988  14.060  22.179  0.00  0.00     0.000 A 
ATOM     13  C   UNL d   1     -47.159  13.534  23.211  0.00  0.00     0.000 A 
ATOM     14  C   UNL d   1     -46.681  14.521  22.291  0.00  0.00     0.000 A 
ATOM     15  C   UNL d   1     -47.263  14.261  22.802  0.00  0.00     0.000 A 
ENDROOT
BRANCH   1  16
ATOM     16  C   UNL d   1     -43.283  12.877  21.345  0.00  0.00     0.305 C 
ATOM     17  O   UNL d   1     -43.282  12.540  20.593  0.00  0.00    -0.259 OA
BRANCH  16  18
ATOM     18  O   UNL d   1     -42.696  13.405  21.572  0.00  0.00    -0.271 OA
BRANCH  18  19
ATOM     19  C   UNL d   1     -42.169  13.689  20.999  0.00  0.00     0.127 C 
ATOM     20  C   UNL d   1     -42.339  13.551  20.193  0.00  0.00     0.029 C 
BRANCH  19  21
ATOM     21  C   UNL d   1     -41.484  14.104  21.186  0.00  0.00     0.134 A 
ATOM     22  N   UNL d   1     -40.815  13.839  21.561  0.00  0.00    -0.236 NA
ATOM     23  C   UNL d   1     -40.295  14.505  21.602  0.00  0.00     0.088 A 
ATOM     24  C   UNL d   1     -39.544  14.583  21.916  0.00  0.00     0.020 A 
ATOM     25  C   UNL d   1     -40.625  15.107  21.282  0.00  0.00     0.049 A 
ATOM     26  C   UNL d   1     -39.105  15.313  21.902  0.00  0.00     0.002 A 
ATOM     27  C   UNL d   1     -39.476  15.922  21.562  0.00  0.00     0.001 A 
ATOM     28  C   UNL d   1     -40.233  15.843  21.246  0.00  0.00     0.008 A 
ATOM     29  S   UNL d   1     -41.377  14.906  21.004  0.00  0.00    -0.065 SA
ENDBRANCH  19  21
ENDBRANCH  18  19
ENDBRANCH  16  18
ENDBRANCH   1  16
TORSDOF 4
ENDMDL
MODEL 6
REMARK VINA RESULT:      -4.7      1.589      5.748
REMARK  4 active torsions:
REMARK  status: ('A' for Active; 'I' for Inactive)
REMARK    1  A    between atoms: C_6  and  C_1 
REMARK    2  A    between atoms: C_3  and  C_15 
REMARK    3  A    between atoms: O_11  and  C_6 
REMARK    4  A    between atoms: C_15  and  O_11 
ROOT
ATOM      1  C   UNL d   1     -45.719  12.921  22.812  0.00  0.00     0.127 A 
ATOM      2  C   UNL d   1     -45.719  12.215  23.220  0.00  0.00     0.305 A 
ATOM      3  C   UNL d   1     -45.062  13.130  22.348  0.00  0.00     0.013 A 
ATOM      4  C   UNL d   1     -44.424  12.595  22.324  0.00  0.00     0.023 A 
ATOM      5  O   UNL d   1     -45.102  11.689  23.202  0.00  0.00    -0.273 OA
ATOM      6  C   UNL d   1     -44.423  11.893  22.729  0.00  0.00     0.103 A 
ATOM      7  C   UNL d   1     -43.747  12.795  21.855  0.00  0.00     0.002 A 
ATOM      8  O   UNL d   1     -46.415  12.017  23.698  0.00  0.00    -0.259 OA
ATOM      9  C   UNL d   1     -43.782  11.350  22.708  0.00  0.00     0.025 A 
ATOM     10  C   UNL d   1     -43.109  12.259  21.831  0.00  0.00     0.000 A 
ATOM     11  C   UNL d   1     -43.128  11.555  22.248  0.00  0.00     0.002 A 
ATOM     12  C   UNL d   1     -43.704  13.494  21.429  0.00  0.00     0.000 A 
ATOM     13  C   UNL d   1     -42.453  12.424  21.394  0.00  0.00     0.000 A 
ATOM     14  C   UNL d   1     -43.022  13.668  20.972  0.00  0.00     0.000 A 
ATOM     15  C   UNL d   1     -42.400  13.138  20.953  0.00  0.00     0.000 A 
ENDROOT
BRANCH   1  16
ATOM     16  C   UNL d   1     -46.415  13.458  22.865  0.00  0.00     0.305 C 
ATOM     17  O   UNL d   1     -46.404  14.023  23.466  0.00  0.00    -0.259 OA
BRANCH  16  18
ATOM     18  O   UNL d   1     -47.050  13.407  22.346  0.00  0.00    -0.271 OA
BRANCH  18  19
ATOM     19  C   UNL d   1     -47.611  14.018  22.337  0.00  0.00     0.127 C 
ATOM     20  C   UNL d   1     -47.372  14.786  22.556  0.00  0.00     0.029 C 
BRANCH  19  21
ATOM     21  C   UNL d   1     -48.396  13.901  22.122  0.00  0.00     0.134 A 
ATOM     22  N   UNL d   1     -48.754  13.226  21.850  0.00  0.00    -0.236 NA
ATOM     23  C   UNL d   1     -49.564  13.433  21.719  0.00  0.00     0.088 A 
ATOM     24  C   UNL d   1     -50.196  12.990  21.449  0.00  0.00     0.020 A 
ATOM     25  C   UNL d   1     -49.674  14.160  21.897  0.00  0.00     0.049 A 
ATOM     26  C   UNL d   1     -50.982  13.305  21.354  0.00  0.00     0.002 A 
ATOM     27  C   UNL d   1     -51.064  14.066  21.548  0.00  0.00     0.001 A 
ATOM     28  C   UNL d   1     -50.428  14.513  21.821  0.00  0.00     0.008 A 
ATOM     29  S   UNL d   1     -48.967  14.501  22.157  0.00  0.00    -0.065 SA
ENDBRANCH  19  21
ENDBRANCH  18  19
ENDBRANCH  16  18
ENDBRANCH   1  16
TORSDOF 4
ENDMDL
