MODEL 1
REMARK VINA RESULT:      25.8      0.000      0.000
REMARK  6 active torsions:
REMARK  status: ('A' for Active; 'I' for Inactive)
REMARK    1  A    between atoms: C_10  and  N_1 
REMARK    2  A    between atoms: S_8  and  C_2 
REMARK       I    between atoms: N_7  and  C_9 
REMARK    3  A    between atoms: C_13  and  S_8 
REMARK    4  A    between atoms: C_9  and  C_13 
REMARK    5  A    between atoms: C_21  and  N_11 
REMARK    6  A    between atoms: C_25  and  C_21 
ROOT
ATOM      1  N   UNL d   1      46.248 -18.928  42.961  0.00  0.00    -0.254 N 
ATOM      2  C   UNL d   1      46.443 -18.136  43.045  0.00  0.00     0.182 A 
ATOM      3  C   UNL d   1      46.187 -19.257  42.205  0.00  0.00     0.268 A 
ATOM      4  N   UNL d   1      46.576 -17.674  42.375  0.00  0.00    -0.222 NA
ATOM      5  C   UNL d   1      46.320 -18.794  41.535  0.00  0.00     0.074 A 
ATOM      6  C   UNL d   1      46.515 -18.002  41.620  0.00  0.00     0.088 A 
ATOM      7  O   UNL d   1      45.992 -20.048  42.121  0.00  0.00    -0.267 OA
ATOM      8  C   UNL d   1      46.258 -19.124  40.796  0.00  0.00     0.006 A 
ATOM      9  C   UNL d   1      46.647 -17.541  40.966  0.00  0.00     0.019 A 
ATOM     10  C   UNL d   1      46.391 -18.660  40.126  0.00  0.00     0.000 A 
ATOM     11  C   UNL d   1      46.586 -17.868  40.211  0.00  0.00     0.002 A 
ENDROOT
BRANCH   2  12
ATOM     12  S   UNL d   1      46.508 -17.791  43.802  0.00  0.00    -0.044 SA
BRANCH  12  13
ATOM     13  C   UNL d   1      46.463 -16.961  43.866  0.00  0.00     0.099 C 
BRANCH  13  14
ATOM     14  C   UNL d   1      45.898 -16.632  44.384  0.00  0.00     0.272 C 
ATOM     15  N   UNL d   1      45.765 -15.808  44.357  0.00  0.00    -0.269 N 
ATOM     16  C   UNL d   1      45.210 -15.496  44.868  0.00  0.00     0.102 A 
ATOM     17  C   UNL d   1      46.182 -15.333  43.834  0.00  0.00     0.102 A 
ATOM     18  C   UNL d   1      45.078 -14.673  44.841  0.00  0.00     0.100 A 
ATOM     19  N   UNL d   1      45.494 -14.198  44.318  0.00  0.00    -0.297 N 
ATOM     20  C   UNL d   1      46.051 -14.536  43.811  0.00  0.00     0.100 A 
ATOM     21  O   UNL d   1      45.482 -17.106  44.906  0.00  0.00    -0.266 OA
BRANCH  19  22
ATOM     22  C   UNL d   1      45.342 -13.366  44.310  0.00  0.00     0.126 C 
BRANCH  22  23
ATOM     23  C   UNL d   1      45.653 -12.900  43.729  0.00  0.00     0.253 C 
ATOM     24  O   UNL d   1      45.409 -12.114  43.661  0.00  0.00    -0.281 OA
ENDBRANCH  22  23
ENDBRANCH  19  22
ENDBRANCH  13  14
ENDBRANCH  12  13
ENDBRANCH   2  12
BRANCH   1  25
ATOM     25  C   UNL d   1      46.119 -19.378  43.620  0.00  0.00     0.069 A 
ATOM     26  C   UNL d   1      45.447 -19.867  43.655  0.00  0.00     0.018 A 
ATOM     27  C   UNL d   1      45.310 -20.329  44.326  0.00  0.00     0.002 A 
ATOM     28  C   UNL d   1      45.844 -20.298  44.955  0.00  0.00     0.000 A 
ATOM     29  C   UNL d   1      46.506 -19.816  44.920  0.00  0.00     0.002 A 
ATOM     30  C   UNL d   1      46.646 -19.353  44.249  0.00  0.00     0.018 A 
ENDBRANCH   1  25
TORSDOF 6
ENDMDL
