MODEL 1
REMARK VINA RESULT:      79.6      0.000      0.000
REMARK  3 active torsions:
REMARK  status: ('A' for Active; 'I' for Inactive)
REMARK    1  A    between atoms: N_5  and  C_1 
REMARK    2  A    between atoms: C_2  and  C_6 
REMARK       I    between atoms: C_11  and  N_5 
REMARK    3  A    between atoms: C_9  and  C_11 
ROOT
ATOM      1  C   UNL d   1      59.594  49.496  50.624  0.00  0.00     0.053 A 
ATOM      2  S   UNL d   1      59.805  49.265  51.391  0.00  0.00    -0.080 SA
ATOM      3  C   UNL d   1      60.629  49.331  51.456  0.00  0.00     0.087 A 
ATOM      4  C   UNL d   1      60.282  49.703  50.219  0.00  0.00     0.009 A 
ATOM      5  C   UNL d   1      60.923  49.601  50.732  0.00  0.00     0.012 A 
ENDROOT
BRANCH   3   6
ATOM      6  C   UNL d   1      61.075  49.155  52.130  0.00  0.00     0.287 C 
ATOM      7  N   UNL d   1      61.467  48.433  52.182  0.00  0.00    -0.182 NA
ATOM      8  O   UNL d   1      61.127  49.704  52.747  0.00  0.00    -0.265 OA
BRANCH   7   9
ATOM      9  C   UNL d   1      61.415  47.882  51.562  0.00  0.00     0.197 A 
ATOM     10  N   UNL d   1      61.854  47.899  50.864  0.00  0.00    -0.221 NA
ATOM     11  C   UNL d   1      61.625  47.253  50.413  0.00  0.00     0.090 A 
ATOM     12  C   UNL d   1      61.872  46.994  49.675  0.00  0.00     0.020 A 
ATOM     13  C   UNL d   1      61.051  46.850  50.837  0.00  0.00     0.050 A 
ATOM     14  C   UNL d   1      61.537  46.318  49.361  0.00  0.00     0.002 A 
ATOM     15  C   UNL d   1      60.963  45.902  49.769  0.00  0.00     0.001 A 
ATOM     16  C   UNL d   1      60.707  46.155  50.511  0.00  0.00     0.008 A 
ATOM     17  C   UNL d   1      60.628  45.220  49.445  0.00  0.00     0.000 C 
ATOM     18  S   UNL d   1      60.918  47.233  51.545  0.00  0.00    -0.047 SA
ENDBRANCH   7   9
ENDBRANCH   3   6
BRANCH   1  19
ATOM     19  C   UNL d   1      58.826  49.516  50.319  0.00  0.00     0.117 A 
ATOM     20  N   UNL d   1      58.139  49.635  50.759  0.00  0.00    -0.238 NA
ATOM     21  C   UNL d   1      57.499  49.612  50.231  0.00  0.00     0.088 A 
ATOM     22  C   UNL d   1      56.687  49.695  50.347  0.00  0.00     0.020 A 
ATOM     23  C   UNL d   1      57.797  49.480  49.471  0.00  0.00     0.049 A 
ATOM     24  C   UNL d   1      56.177  49.646  49.705  0.00  0.00     0.002 A 
ATOM     25  C   UNL d   1      56.475  49.514  48.945  0.00  0.00     0.001 A 
ATOM     26  C   UNL d   1      57.284  49.431  48.828  0.00  0.00     0.008 A 
ATOM     27  S   UNL d   1      58.622  49.421  49.529  0.00  0.00    -0.066 SA
ENDBRANCH   1  19
TORSDOF 3
ENDMDL
