MODEL 1
REMARK VINA RESULT:      -8.4      0.000      0.000
REMARK  5 active torsions:
REMARK  status: ('A' for Active; 'I' for Inactive)
REMARK    1  A    between atoms: C_5  and  C_1 
REMARK    2  A    between atoms: C_9  and  N_2 
REMARK    3  A    between atoms: N_8  and  C_5 
REMARK    4  A    between atoms: N_6  and  C_10 
REMARK    5  A    between atoms: C_18  and  N_8 
ROOT
ATOM      1  C   UNL d   1      51.972  33.765  52.969  0.00  0.00     0.067 A 
ATOM      2  N   UNL d   1      50.891  34.323  52.333  0.00  0.00    -0.230 N 
ATOM      3  C   UNL d   1      51.123  33.761  52.932  0.00  0.00     0.087 A 
ATOM      4  N   UNL d   1      51.597  34.670  52.004  0.00  0.00    -0.164 NA
ATOM      5  C   UNL d   1      52.263  34.323  52.398  0.00  0.00     0.124 A 
ATOM      6  C   UNL d   1      50.617  33.305  53.385  0.00  0.00     0.021 C 
ENDROOT
BRANCH   1   7
ATOM      7  C   UNL d   1      52.432  33.302  53.474  0.00  0.00     0.139 C 
ATOM      8  S   UNL d   1      52.732  32.591  53.215  0.00  0.00    -0.057 SA
BRANCH   7   9
ATOM      9  N   UNL d   1      52.586  33.560  54.233  0.00  0.00    -0.235 NA
BRANCH   9  10
ATOM     10  C   UNL d   1      53.330  33.473  54.544  0.00  0.00     0.082 A 
ATOM     11  C   UNL d   1      53.622  32.728  54.717  0.00  0.00     0.019 A 
ATOM     12  C   UNL d   1      54.360  32.648  55.025  0.00  0.00     0.002 A 
ATOM     13  C   UNL d   1      54.828  33.312  55.169  0.00  0.00     0.000 A 
ATOM     14  C   UNL d   1      54.544  34.051  54.999  0.00  0.00     0.002 A 
ATOM     15  C   UNL d   1      53.792  34.137  54.685  0.00  0.00     0.019 A 
ENDBRANCH   9  10
ENDBRANCH   7   9
ENDBRANCH   1   7
BRANCH   2  16
ATOM     16  C   UNL d   1      50.120  34.506  52.104  0.00  0.00     0.083 A 
ATOM     17  C   UNL d   1      49.856  34.282  51.350  0.00  0.00     0.021 A 
ATOM     18  C   UNL d   1      49.086  34.461  51.113  0.00  0.00     0.025 A 
ATOM     19  C   UNL d   1      48.578  34.865  51.631  0.00  0.00     0.127 A 
ATOM     20  C   UNL d   1      48.841  35.090  52.385  0.00  0.00     0.025 A 
ATOM     21  C   UNL d   1      49.614  34.906  52.614  0.00  0.00     0.021 A 
BRANCH  19  22
ATOM     22  N   UNL d   1      47.807  35.045  51.394  0.00  0.00    -0.114 N 
ATOM     23  O   UNL d   1      47.449  34.621  50.784  0.00  0.00    -0.532 OA
ATOM     24  O   UNL d   1      47.387  35.652  51.767  0.00  0.00    -0.532 OA
ENDBRANCH  19  22
ENDBRANCH   2  16
TORSDOF 5
ENDMDL
MODEL 2
REMARK VINA RESULT:      -7.4      2.879      5.443
REMARK  5 active torsions:
REMARK  status: ('A' for Active; 'I' for Inactive)
REMARK    1  A    between atoms: C_5  and  C_1 
REMARK    2  A    between atoms: C_9  and  N_2 
REMARK    3  A    between atoms: N_8  and  C_5 
REMARK    4  A    between atoms: N_6  and  C_10 
REMARK    5  A    between atoms: C_18  and  N_8 
ROOT
ATOM      1  C   UNL d   1      51.099  33.772  52.948  0.00  0.00     0.067 A 
ATOM      2  N   UNL d   1      52.238  33.484  53.658  0.00  0.00    -0.230 N 
ATOM      3  C   UNL d   1      51.844  34.091  53.204  0.00  0.00     0.087 A 
ATOM      4  N   UNL d   1      51.735  32.796  53.679  0.00  0.00    -0.164 NA
ATOM      5  C   UNL d   1      51.032  32.976  53.240  0.00  0.00     0.124 A 
ATOM      6  C   UNL d   1      52.134  34.839  53.048  0.00  0.00     0.021 C 
ENDROOT
BRANCH   1   7
ATOM      7  C   UNL d   1      50.538  34.170  52.492  0.00  0.00     0.139 C 
ATOM      8  S   UNL d   1      50.716  34.393  51.729  0.00  0.00    -0.057 SA
BRANCH   7   9
ATOM      9  N   UNL d   1      49.805  34.340  52.808  0.00  0.00    -0.235 NA
BRANCH   9  10
ATOM     10  C   UNL d   1      49.234  34.678  52.340  0.00  0.00     0.082 A 
ATOM     11  C   UNL d   1      49.056  34.358  51.608  0.00  0.00     0.019 A 
ATOM     12  C   UNL d   1      48.490  34.696  51.150  0.00  0.00     0.002 A 
ATOM     13  C   UNL d   1      48.085  35.367  51.410  0.00  0.00     0.000 A 
ATOM     14  C   UNL d   1      48.258  35.688  52.133  0.00  0.00     0.002 A 
ATOM     15  C   UNL d   1      48.835  35.345  52.604  0.00  0.00     0.019 A 
ENDBRANCH   9  10
ENDBRANCH   7   9
ENDBRANCH   1   7
BRANCH   2  16
ATOM     16  C   UNL d   1      52.978  33.545  54.019  0.00  0.00     0.083 A 
ATOM     17  C   UNL d   1      53.611  33.098  53.721  0.00  0.00     0.021 A 
ATOM     18  C   UNL d   1      54.355  33.152  54.076  0.00  0.00     0.025 A 
ATOM     19  C   UNL d   1      54.466  33.653  54.728  0.00  0.00     0.127 A 
ATOM     20  C   UNL d   1      53.833  34.100  55.025  0.00  0.00     0.025 A 
ATOM     21  C   UNL d   1      53.092  34.040  54.665  0.00  0.00     0.021 A 
BRANCH  19  22
ATOM     22  N   UNL d   1      55.210  33.707  55.083  0.00  0.00    -0.114 N 
ATOM     23  O   UNL d   1      55.279  33.744  55.903  0.00  0.00    -0.532 OA
ATOM     24  O   UNL d   1      55.894  33.726  54.617  0.00  0.00    -0.532 OA
ENDBRANCH  19  22
ENDBRANCH   2  16
TORSDOF 5
ENDMDL
