MODEL 1
REMARK VINA RESULT:      40.1      0.000      0.000
REMARK  3 active torsions:
REMARK  status: ('A' for Active; 'I' for Inactive)
REMARK    1  A    between atoms: C_7  and  C_1 
REMARK    2  A    between atoms: C_6  and  C_2 
REMARK    3  A    between atoms: C_3  and  C_6 
REMARK       I    between atoms: N_4  and  C_3 
ROOT
ATOM      1  C   UNL d   1      45.683 -12.907  43.648  0.00  0.00     0.038 A 
ATOM      2  C   UNL d   1      45.464 -14.245  43.736  0.00  0.00     0.043 A 
ATOM      3  C   UNL d   1      45.426 -13.551  43.205  0.00  0.00     0.016 A 
ATOM      4  C   UNL d   1      45.820 -12.087  43.603  0.00  0.00    -0.023 A 
ATOM      5  C   UNL d   1      45.889 -13.132  44.442  0.00  0.00     0.013 A 
ATOM      6  C   UNL d   1      45.832 -12.883  44.112  0.00  0.00    -0.012 A 
ATOM      7  C   UNL d   1      45.917 -13.846  44.953  0.00  0.00     0.023 A 
ATOM      8  C   UNL d   1      45.661 -14.476  44.506  0.00  0.00     0.013 A 
ATOM      9  C   UNL d   1      45.598 -13.482  43.716  0.00  0.00    -0.023 A 
ATOM     10  C   UNL d   1      46.027 -13.087  44.858  0.00  0.00    -0.027 A 
ENDROOT
BRANCH   2  11
ATOM     11  C   UNL d   1      45.266 -15.029  43.565  0.00  0.00     0.038 C 
BRANCH  11  12
ATOM     12  C   UNL d   1      45.614 -15.645  43.989  0.00  0.00     0.261 C 
ATOM     13  N   UNL d   1      45.698 -16.389  43.638  0.00  0.00    -0.268 N 
ATOM     14  C   UNL d   1      46.047 -17.005  44.061  0.00  0.00     0.110 A 
ATOM     15  C   UNL d   1      45.432 -16.511  42.861  0.00  0.00     0.110 A 
ATOM     16  C   UNL d   1      46.132 -17.747  43.715  0.00  0.00     0.142 A 
ATOM     17  O   UNL d   1      45.870 -17.879  42.942  0.00  0.00    -0.300 OA
ATOM     18  C   UNL d   1      45.521 -17.263  42.518  0.00  0.00     0.142 A 
ATOM     19  O   UNL d   1      45.877 -15.516  44.760  0.00  0.00    -0.267 OA
ENDBRANCH  11  12
ENDBRANCH   2  11
BRANCH   1  20
ATOM     20  C   UNL d   1      45.456 -12.806  42.858  0.00  0.00    -0.019 A 
ATOM     21  C   UNL d   1      44.687 -12.566  42.691  0.00  0.00    -0.004 A 
ATOM     22  C   UNL d   1      44.454 -12.464  41.910  0.00  0.00    -0.000 A 
ATOM     23  C   UNL d   1      44.983 -12.599  41.303  0.00  0.00    -0.000 A 
ATOM     24  C   UNL d   1      45.762 -12.841  41.474  0.00  0.00    -0.000 A 
ATOM     25  C   UNL d   1      44.759 -12.499  40.512  0.00  0.00    -0.000 C 
ATOM     26  C   UNL d   1      45.988 -12.942  42.259  0.00  0.00    -0.004 A 
ENDBRANCH   1  20
TORSDOF 3
ENDMDL
MODEL 2
REMARK VINA RESULT:      41.4      3.033      5.297
REMARK  3 active torsions:
REMARK  status: ('A' for Active; 'I' for Inactive)
REMARK    1  A    between atoms: C_7  and  C_1 
REMARK    2  A    between atoms: C_6  and  C_2 
REMARK    3  A    between atoms: C_3  and  C_6 
REMARK       I    between atoms: N_4  and  C_3 
ROOT
ATOM      1  C   UNL d   1      46.363 -19.015  44.090  0.00  0.00     0.038 A 
ATOM      2  C   UNL d   1      46.532 -19.021  42.743  0.00  0.00     0.043 A 
ATOM      3  C   UNL d   1      46.393 -18.512  43.440  0.00  0.00     0.016 A 
ATOM      4  C   UNL d   1      46.261 -19.021  44.916  0.00  0.00    -0.023 A 
ATOM      5  C   UNL d   1      46.474 -19.828  43.866  0.00  0.00     0.013 A 
ATOM      6  C   UNL d   1      46.410 -19.500  44.116  0.00  0.00    -0.012 A 
ATOM      7  C   UNL d   1      46.614 -20.315  43.149  0.00  0.00     0.023 A 
ATOM      8  C   UNL d   1      46.641 -19.808  42.512  0.00  0.00     0.013 A 
ATOM      9  C   UNL d   1      46.439 -19.049  43.511  0.00  0.00    -0.023 A 
ATOM     10  C   UNL d   1      46.513 -20.265  43.913  0.00  0.00    -0.027 A 
ENDROOT
BRANCH   2  11
ATOM     11  C   UNL d   1      46.608 -18.793  41.951  0.00  0.00     0.038 C 
BRANCH  11  12
ATOM     12  C   UNL d   1      45.956 -18.828  41.447  0.00  0.00     0.261 C 
ATOM     13  N   UNL d   1      45.950 -18.380  40.752  0.00  0.00    -0.268 N 
ATOM     14  C   UNL d   1      45.298 -18.415  40.248  0.00  0.00     0.110 A 
ATOM     15  C   UNL d   1      46.599 -17.898  40.566  0.00  0.00     0.110 A 
ATOM     16  C   UNL d   1      45.288 -17.970  39.556  0.00  0.00     0.142 A 
ATOM     17  O   UNL d   1      45.930 -17.487  39.361  0.00  0.00    -0.300 OA
ATOM     18  C   UNL d   1      46.582 -17.452  39.865  0.00  0.00     0.142 A 
ATOM     19  O   UNL d   1      45.313 -19.309  41.639  0.00  0.00    -0.267 OA
ENDBRANCH  11  12
ENDBRANCH   2  11
BRANCH   1  20
ATOM     20  C   UNL d   1      46.268 -18.198  44.190  0.00  0.00    -0.019 A 
ATOM     21  C   UNL d   1      45.861 -17.771  43.617  0.00  0.00    -0.004 A 
ATOM     22  C   UNL d   1      45.762 -16.961  43.709  0.00  0.00    -0.000 A 
ATOM     23  C   UNL d   1      46.066 -16.582  44.365  0.00  0.00    -0.000 A 
ATOM     24  C   UNL d   1      46.477 -17.016  44.944  0.00  0.00    -0.000 A 
ATOM     25  C   UNL d   1      45.971 -15.766  44.468  0.00  0.00    -0.000 C 
ATOM     26  C   UNL d   1      46.573 -17.829  44.846  0.00  0.00    -0.004 A 
ENDBRANCH   1  20
TORSDOF 3
ENDMDL
MODEL 3
REMARK VINA RESULT:      42.2      1.748      5.303
REMARK  3 active torsions:
REMARK  status: ('A' for Active; 'I' for Inactive)
REMARK    1  A    between atoms: C_7  and  C_1 
REMARK    2  A    between atoms: C_6  and  C_2 
REMARK    3  A    between atoms: C_3  and  C_6 
REMARK       I    between atoms: N_4  and  C_3 
ROOT
ATOM      1  C   UNL d   1      46.368 -18.482  42.233  0.00  0.00     0.038 A 
ATOM      2  C   UNL d   1      46.240 -17.267  42.828  0.00  0.00     0.043 A 
ATOM      3  C   UNL d   1      46.328 -18.125  42.973  0.00  0.00     0.016 A 
ATOM      4  C   UNL d   1      46.446 -19.221  41.860  0.00  0.00    -0.023 A 
ATOM      5  C   UNL d   1      46.312 -17.911  41.604  0.00  0.00     0.013 A 
ATOM      6  C   UNL d   1      46.350 -18.284  41.787  0.00  0.00    -0.012 A 
ATOM      7  C   UNL d   1      46.223 -17.045  41.488  0.00  0.00     0.023 A 
ATOM      8  C   UNL d   1      46.185 -16.703  42.226  0.00  0.00     0.013 A 
ATOM      9  C   UNL d   1      46.312 -17.945  42.460  0.00  0.00    -0.023 A 
ATOM     10  C   UNL d   1      46.298 -17.754  41.192  0.00  0.00    -0.027 A 
ENDROOT
BRANCH   2  11
ATOM     11  C   UNL d   1      46.175 -16.660  43.385  0.00  0.00     0.038 C 
BRANCH  11  12
ATOM     12  C   UNL d   1      45.631 -16.051  43.271  0.00  0.00     0.261 C 
ATOM     13  N   UNL d   1      45.680 -15.365  43.730  0.00  0.00    -0.268 N 
ATOM     14  C   UNL d   1      45.135 -14.755  43.615  0.00  0.00     0.110 A 
ATOM     15  C   UNL d   1      46.276 -15.293  44.303  0.00  0.00     0.110 A 
ATOM     16  C   UNL d   1      45.181 -14.071  44.070  0.00  0.00     0.142 A 
ATOM     17  O   UNL d   1      45.771 -13.990  44.643  0.00  0.00    -0.300 OA
ATOM     18  C   UNL d   1      46.316 -14.599  44.758  0.00  0.00     0.142 A 
ATOM     19  O   UNL d   1      45.041 -16.128  42.700  0.00  0.00    -0.267 OA
ENDBRANCH  11  12
ENDBRANCH   2  11
BRANCH   1  20
ATOM     20  C   UNL d   1      46.412 -18.942  42.920  0.00  0.00    -0.019 A 
ATOM     21  C   UNL d   1      46.262 -19.748  42.871  0.00  0.00    -0.004 A 
ATOM     22  C   UNL d   1      46.304 -20.212  43.549  0.00  0.00    -0.000 A 
ATOM     23  C   UNL d   1      46.494 -19.872  44.266  0.00  0.00    -0.000 A 
ATOM     24  C   UNL d   1      46.646 -19.054  44.314  0.00  0.00    -0.000 A 
ATOM     25  C   UNL d   1      46.539 -20.329  44.955  0.00  0.00    -0.000 C 
ATOM     26  C   UNL d   1      46.602 -18.596  43.630  0.00  0.00    -0.004 A 
ENDBRANCH   1  20
TORSDOF 3
ENDMDL
