MODEL 1
REMARK VINA RESULT:      82.4      0.000      0.000
REMARK  5 active torsions:
REMARK  status: ('A' for Active; 'I' for Inactive)
REMARK    1  A    between atoms: C_11  and  C_8 
REMARK       I    between atoms: N_22  and  C_11 
REMARK    2  A    between atoms: N_14  and  C_24 
REMARK    3  A    between atoms: C_27  and  N_22 
REMARK    4  A    between atoms: C_24  and  C_25 
REMARK    5  A    between atoms: C_25  and  C_27 
ROOT
ATOM      1  C   UNL d   1      61.372  46.877  50.062  0.00  0.00     0.154 A 
ATOM      2  C   UNL d   1      61.007  46.492  50.694  0.00  0.00     0.093 A 
ATOM      3  N   UNL d   1      61.806  46.437  49.507  0.00  0.00    -0.210 NA
ATOM      4  N   UNL d   1      61.508  45.236  50.218  0.00  0.00    -0.258 N 
ATOM      5  C   UNL d   1      61.076  45.668  50.771  0.00  0.00     0.269 A 
ATOM      6  N   UNL d   1      61.212  47.678  50.126  0.00  0.00    -0.285 N 
ATOM      7  C   UNL d   1      61.873  45.621  49.587  0.00  0.00     0.152 A 
ATOM      8  C   UNL d   1      60.748  47.796  50.795  0.00  0.00     0.124 A 
ATOM      9  C   UNL d   1      60.620  47.054  51.150  0.00  0.00     0.030 A 
ATOM     10  C   UNL d   1      61.574  44.419  50.298  0.00  0.00     0.084 A 
ATOM     11  C   UNL d   1      62.305  45.189  49.035  0.00  0.00     0.038 A 
ATOM     12  C   UNL d   1      62.006  43.987  49.746  0.00  0.00     0.018 A 
ATOM     13  C   UNL d   1      62.371  44.372  49.114  0.00  0.00     0.005 A 
ATOM     14  O   UNL d   1      60.710  45.283  51.403  0.00  0.00    -0.266 OA
ATOM     15  C   UNL d   1      61.471  48.271  49.609  0.00  0.00     0.101 C 
ATOM     16  C   UNL d   1      62.077  43.159  49.822  0.00  0.00     0.002 C 
ENDROOT
BRANCH   8  17
ATOM     17  C   UNL d   1      60.460  48.519  51.068  0.00  0.00     0.295 C 
ATOM     18  O   UNL d   1      60.882  48.944  51.634  0.00  0.00    -0.264 OA
ATOM     19  N   UNL d   1      59.750  48.817  50.777  0.00  0.00    -0.205 NA
BRANCH  19  20
ATOM     20  C   UNL d   1      59.462  49.540  51.051  0.00  0.00     0.104 C 
BRANCH  20  21
ATOM     21  C   UNL d   1      58.650  49.662  51.116  0.00  0.00     0.040 C 
BRANCH  21  22
ATOM     22  C   UNL d   1      58.175  49.683  50.430  0.00  0.00     0.083 C 
BRANCH  22  23
ATOM     23  N   UNL d   1      57.355  49.666  50.496  0.00  0.00    -0.285 N 
ATOM     24  C   UNL d   1      56.852  49.663  51.147  0.00  0.00     0.183 A 
ATOM     25  N   UNL d   1      56.076  49.643  50.875  0.00  0.00    -0.222 NA
ATOM     26  C   UNL d   1      56.087  49.631  50.049  0.00  0.00     0.120 A 
ATOM     27  C   UNL d   1      56.885  49.646  49.816  0.00  0.00     0.102 A 
ENDBRANCH  22  23
ENDBRANCH  21  22
ENDBRANCH  20  21
ENDBRANCH  19  20
ENDBRANCH   8  17
TORSDOF 5
ENDMDL
