MODEL 1
REMARK VINA RESULT:      83.6      0.000      0.000
REMARK  6 active torsions:
REMARK  status: ('A' for Active; 'I' for Inactive)
REMARK       I    between atoms: C_2  and  N_1 
REMARK    1  A    between atoms: C_8  and  C_2 
REMARK    2  A    between atoms: C_11  and  C_3 
REMARK       I    between atoms: C_4  and  N_6 
REMARK    3  A    between atoms: C_5  and  C_4 
REMARK       I    between atoms: N_7  and  C_5 
REMARK    4  A    between atoms: N_6  and  C_11 
REMARK    5  A    between atoms: C_17  and  N_7 
REMARK    6  A    between atoms: C_20  and  C_17 
ROOT
ATOM      1  C   UNL d   1     -48.338  29.294  35.828  0.00  0.00     0.146 C 
ENDROOT
BRANCH   1   2
ATOM      2  N   UNL d   1     -48.441  28.589  35.414  0.00  0.00    -0.199 NA
ATOM      3  C   UNL d   1     -48.902  27.991  35.735  0.00  0.00     0.337 C 
ATOM      4  O   UNL d   1     -49.005  27.285  35.320  0.00  0.00    -0.260 OA
BRANCH   3   5
ATOM      5  C   UNL d   1     -49.265  28.087  36.472  0.00  0.00     0.337 C 
ATOM      6  N   UNL d   1     -49.842  27.569  36.718  0.00  0.00    -0.202 NA
ATOM      7  O   UNL d   1     -49.038  28.714  36.957  0.00  0.00    -0.260 OA
BRANCH   6   8
ATOM      8  C   UNL d   1     -50.205  27.666  37.455  0.00  0.00     0.102 C 
BRANCH   8   9
ATOM      9  C   UNL d   1     -50.752  27.118  37.727  0.00  0.00     0.019 A 
ATOM     10  C   UNL d   1     -51.292  26.769  37.221  0.00  0.00     0.002 A 
ATOM     11  C   UNL d   1     -51.839  26.225  37.480  0.00  0.00     0.011 A 
ATOM     12  C   UNL d   1     -51.850  26.014  38.290  0.00  0.00     0.058 A 
ATOM     13  C   UNL d   1     -51.314  26.356  38.812  0.00  0.00     0.011 A 
ATOM     14 CL   UNL d   1     -52.407  25.458  38.564  0.00  0.00    -0.082 Cl
ATOM     15  C   UNL d   1     -50.763  26.908  38.537  0.00  0.00     0.002 A 
ENDBRANCH   8   9
ENDBRANCH   6   8
ENDBRANCH   3   5
ENDBRANCH   1   2
BRANCH   1  16
ATOM     16  C   UNL d   1     -47.648  29.731  35.732  0.00  0.00     0.190 A 
ATOM     17  N   UNL d   1     -47.582  30.439  35.316  0.00  0.00    -0.250 N 
ATOM     18  C   UNL d   1     -48.193  30.836  34.922  0.00  0.00     0.266 C 
ATOM     19  C   UNL d   1     -46.795  30.678  35.365  0.00  0.00     0.112 A 
ATOM     20  O   UNL d   1     -48.955  30.529  34.920  0.00  0.00    -0.267 OA
ATOM     21  C   UNL d   1     -46.369  30.123  35.810  0.00  0.00     0.144 A 
ATOM     22  O   UNL d   1     -46.898  29.536  36.038  0.00  0.00    -0.285 OA
BRANCH  18  23
ATOM     23  C   UNL d   1     -48.033  31.556  34.522  0.00  0.00     0.057 A 
ATOM     24  C   UNL d   1     -48.391  31.714  33.802  0.00  0.00     0.006 A 
ATOM     25  C   UNL d   1     -48.233  32.423  33.409  0.00  0.00     0.012 A 
ATOM     26  C   UNL d   1     -47.716  32.970  33.741  0.00  0.00     0.058 A 
ATOM     27  C   UNL d   1     -47.355  32.809  34.469  0.00  0.00     0.012 A 
ATOM     28 CL   UNL d   1     -47.558  33.686  33.342  0.00  0.00    -0.082 Cl
ATOM     29  C   UNL d   1     -47.516  32.107  34.852  0.00  0.00     0.006 A 
ENDBRANCH  18  23
ENDBRANCH   1  16
TORSDOF 6
ENDMDL
MODEL 2
REMARK VINA RESULT:      86.1      0.742      6.087
REMARK  6 active torsions:
REMARK  status: ('A' for Active; 'I' for Inactive)
REMARK       I    between atoms: C_2  and  N_1 
REMARK    1  A    between atoms: C_8  and  C_2 
REMARK    2  A    between atoms: C_11  and  C_3 
REMARK       I    between atoms: C_4  and  N_6 
REMARK    3  A    between atoms: C_5  and  C_4 
REMARK       I    between atoms: N_7  and  C_5 
REMARK    4  A    between atoms: N_6  and  C_11 
REMARK    5  A    between atoms: C_17  and  N_7 
REMARK    6  A    between atoms: C_20  and  C_17 
ROOT
ATOM      1  C   UNL d   1     -48.659  28.378  35.649  0.00  0.00     0.146 C 
ENDROOT
BRANCH   1   2
ATOM      2  N   UNL d   1     -47.889  28.257  35.381  0.00  0.00    -0.199 NA
ATOM      3  C   UNL d   1     -47.357  28.882  35.371  0.00  0.00     0.337 C 
ATOM      4  O   UNL d   1     -46.587  28.761  35.102  0.00  0.00    -0.260 OA
BRANCH   3   5
ATOM      5  C   UNL d   1     -47.587  29.635  35.627  0.00  0.00     0.337 C 
ATOM      6  N   UNL d   1     -47.647  30.249  35.097  0.00  0.00    -0.202 NA
ATOM      7  O   UNL d   1     -47.754  29.759  36.425  0.00  0.00    -0.260 OA
BRANCH   6   8
ATOM      8  C   UNL d   1     -47.877  31.002  35.354  0.00  0.00     0.102 C 
BRANCH   8   9
ATOM      9  C   UNL d   1     -47.832  31.648  34.849  0.00  0.00     0.019 A 
ATOM     10  C   UNL d   1     -47.158  32.110  34.810  0.00  0.00     0.002 A 
ATOM     11  C   UNL d   1     -47.103  32.753  34.313  0.00  0.00     0.011 A 
ATOM     12  C   UNL d   1     -47.756  32.947  33.827  0.00  0.00     0.058 A 
ATOM     13  C   UNL d   1     -48.441  32.492  33.855  0.00  0.00     0.011 A 
ATOM     14 CL   UNL d   1     -47.707  33.604  33.315  0.00  0.00    -0.082 Cl
ATOM     15  C   UNL d   1     -48.485  31.842  34.363  0.00  0.00     0.002 A 
ENDBRANCH   8   9
ENDBRANCH   6   8
ENDBRANCH   3   5
ENDBRANCH   1   2
BRANCH   1  16
ATOM     16  C   UNL d   1     -49.253  27.846  35.448  0.00  0.00     0.190 A 
ATOM     17  N   UNL d   1     -49.781  27.497  35.975  0.00  0.00    -0.250 N 
ATOM     18  C   UNL d   1     -49.811  27.616  36.794  0.00  0.00     0.266 C 
ATOM     19  C   UNL d   1     -50.276  27.006  35.535  0.00  0.00     0.112 A 
ATOM     20  O   UNL d   1     -49.279  28.125  37.159  0.00  0.00    -0.267 OA
ATOM     21  C   UNL d   1     -50.058  27.047  34.736  0.00  0.00     0.144 A 
ATOM     22  O   UNL d   1     -49.424  27.567  34.682  0.00  0.00    -0.285 OA
BRANCH  18  23
ATOM     23  C   UNL d   1     -50.386  27.216  37.255  0.00  0.00     0.057 A 
ATOM     24  C   UNL d   1     -50.848  26.631  36.917  0.00  0.00     0.006 A 
ATOM     25  C   UNL d   1     -51.415  26.238  37.372  0.00  0.00     0.012 A 
ATOM     26  C   UNL d   1     -51.514  26.435  38.164  0.00  0.00     0.058 A 
ATOM     27  C   UNL d   1     -51.047  27.027  38.504  0.00  0.00     0.012 A 
ATOM     28 CL   UNL d   1     -52.088  26.036  38.622  0.00  0.00    -0.082 Cl
ATOM     29  C   UNL d   1     -50.489  27.411  38.050  0.00  0.00     0.006 A 
ENDBRANCH  18  23
ENDBRANCH   1  16
TORSDOF 6
ENDMDL
