MODEL 1
REMARK VINA RESULT:       8.2      0.000      0.000
REMARK  8 active torsions:
REMARK  status: ('A' for Active; 'I' for Inactive)
REMARK    1  A    between atoms: C_5  and  C_1 
REMARK    2  A    between atoms: N_6  and  C_2 
REMARK    3  A    between atoms: C_7  and  C_5 
REMARK    4  A    between atoms: C_8  and  C_5 
REMARK    5  A    between atoms: O_13  and  C_7 
REMARK    6  A    between atoms: C_12  and  C_16 
REMARK    7  A    between atoms: C_22  and  O_13 
REMARK    8  A    between atoms: C_25  and  C_22 
ROOT
ATOM      1  C   UNL d   1      55.287   0.070  33.265  0.00  0.00     0.296 C 
ATOM      2  O   UNL d   1      54.525   0.268  33.010  0.00  0.00    -0.259 OA
ATOM      3  O   UNL d   1      55.494   0.175  34.057  0.00  0.00    -0.296 OA
ATOM      4  C   UNL d   1      55.700   0.280  34.848  0.00  0.00     0.185 C 
ENDROOT
BRANCH   1   5
ATOM      5  C   UNL d   1      55.835  -0.231  32.728  0.00  0.00     0.065 A 
ATOM      6  C   UNL d   1      56.247  -0.734  32.110  0.00  0.00     0.018 A 
ATOM      7  C   UNL d   1      57.101  -0.151  32.086  0.00  0.00     0.057 A 
ATOM      8  N   UNL d   1      57.664  -0.203  31.733  0.00  0.00    -0.192 NA
ATOM      9  C   UNL d   1      57.313   0.281  32.303  0.00  0.00     0.057 A 
ATOM     10  C   UNL d   1      56.388  -0.320  32.352  0.00  0.00     0.018 A 
BRANCH   8  11
ATOM     11  C   UNL d   1      58.412  -0.098  31.399  0.00  0.00     0.145 A 
ATOM     12  C   UNL d   1      58.409  -0.443  30.655  0.00  0.00     0.117 A 
ATOM     13  N   UNL d   1      59.091  -0.422  30.189  0.00  0.00    -0.241 NA
ATOM     14  C   UNL d   1      59.768  -0.059  30.465  0.00  0.00     0.099 A 
ATOM     15  C   UNL d   1      59.777   0.292  31.218  0.00  0.00     0.100 A 
ATOM     16  C   UNL d   1      60.445  -0.036  30.006  0.00  0.00     0.021 A 
ATOM     17  C   UNL d   1      60.462   0.660  31.500  0.00  0.00     0.021 A 
ATOM     18  N   UNL d   1      59.095   0.271  31.684  0.00  0.00    -0.230 NA
ATOM     19  C   UNL d   1      61.133   0.677  31.032  0.00  0.00     0.002 A 
ATOM     20  C   UNL d   1      61.132   0.329  30.281  0.00  0.00     0.002 A 
BRANCH  12  21
ATOM     21  C   UNL d   1      57.659  -0.764  30.524  0.00  0.00     0.104 C 
BRANCH  21  22
ATOM     22  C   UNL d   1      57.467  -1.575  30.525  0.00  0.00     0.303 C 
ATOM     23  O   UNL d   1      57.210  -1.935  31.220  0.00  0.00    -0.259 OA
BRANCH  22  24
ATOM     24  O   UNL d   1      57.537  -2.014  29.829  0.00  0.00    -0.271 OA
BRANCH  24  25
ATOM     25  C   UNL d   1      57.503  -2.836  29.853  0.00  0.00     0.126 C 
BRANCH  25  26
ATOM     26  C   UNL d   1      57.832  -3.282  29.245  0.00  0.00     0.025 C 
ATOM     27  C   UNL d   1      58.334  -3.906  29.420  0.00  0.00     0.002 C 
ATOM     28  C   UNL d   1      57.656  -3.099  28.460  0.00  0.00     0.002 C 
ENDBRANCH  25  26
ENDBRANCH  24  25
ENDBRANCH  22  24
ENDBRANCH  21  22
BRANCH  21  29
ATOM     29  C   UNL d   1      57.133  -0.146  30.394  0.00  0.00     0.129 C 
ATOM     30  N   UNL d   1      56.929   0.180  29.659  0.00  0.00    -0.146 N 
ENDBRANCH  21  29
ENDBRANCH  12  21
ENDBRANCH   8  11
ENDBRANCH   1   5
TORSDOF 8
ENDMDL
