MODEL 1
REMARK VINA RESULT:      -1.9      0.000      0.000
REMARK  1 active torsions:
REMARK  status: ('A' for Active; 'I' for Inactive)
REMARK    1  A    between atoms: C_6  and  C_2 
ROOT
ATOM      1  C   UNL d   1      46.502 -19.451  43.336  0.00  0.00     0.019 A 
ATOM      2  C   UNL d   1      46.470 -20.212  43.631  0.00  0.00     0.001 A 
ATOM      3  C   UNL d   1      46.497 -18.801  43.829  0.00  0.00     0.001 A 
ATOM      4  C   UNL d   1      46.459 -18.909  44.645  0.00  0.00     0.000 A 
ATOM      5  C   UNL d   1      46.430 -20.326  44.451  0.00  0.00     0.000 A 
ATOM      6  C   UNL d   1      46.425 -19.677  44.953  0.00  0.00     0.000 A 
ENDROOT
BRANCH   1   7
ATOM      7  C   UNL d   1      46.541 -19.338  42.513  0.00  0.00     0.102 A 
ATOM      8  N   UNL d   1      46.501 -18.614  42.122  0.00  0.00    -0.222 NA
ATOM      9  C   UNL d   1      46.562 -18.759  41.311  0.00  0.00     0.199 A 
ATOM     10  N   UNL d   1      46.640 -19.571  41.202  0.00  0.00    -0.221 NA
ATOM     11  C   UNL d   1      46.628 -19.934  41.943  0.00  0.00     0.120 A 
ENDBRANCH   1   7
TORSDOF 1
ENDMDL
MODEL 2
REMARK VINA RESULT:      -0.0      7.740      7.934
REMARK  1 active torsions:
REMARK  status: ('A' for Active; 'I' for Inactive)
REMARK    1  A    between atoms: C_6  and  C_2 
ROOT
ATOM      1  C   UNL d   1      44.535 -15.318  36.858  0.00  0.00     0.019 A 
ATOM      2  C   UNL d   1      44.007 -14.990  37.388  0.00  0.00     0.001 A 
ATOM      3  C   UNL d   1      44.306 -15.898  36.332  0.00  0.00     0.001 A 
ATOM      4  C   UNL d   1      43.527 -16.163  36.331  0.00  0.00     0.000 A 
ATOM      5  C   UNL d   1      43.221 -15.252  37.392  0.00  0.00     0.000 A 
ATOM      6  C   UNL d   1      42.984 -15.835  36.865  0.00  0.00     0.000 A 
ENDROOT
BRANCH   1   7
ATOM      7  C   UNL d   1      45.323 -15.053  36.857  0.00  0.00     0.102 A 
ATOM      8  N   UNL d   1      45.595 -14.344  37.176  0.00  0.00    -0.222 NA
ATOM      9  C   UNL d   1      46.412 -14.306  37.052  0.00  0.00     0.199 A 
ATOM     10  N   UNL d   1      46.642 -14.990  36.658  0.00  0.00    -0.221 NA
ATOM     11  C   UNL d   1      45.971 -15.456  36.535  0.00  0.00     0.120 A 
ENDBRANCH   1   7
TORSDOF 1
ENDMDL
MODEL 3
REMARK VINA RESULT:       0.1      5.628      6.296
REMARK  1 active torsions:
REMARK  status: ('A' for Active; 'I' for Inactive)
REMARK    1  A    between atoms: C_6  and  C_2 
ROOT
ATOM      1  C   UNL d   1      45.327 -13.621  43.953  0.00  0.00     0.019 A 
ATOM      2  C   UNL d   1      46.124 -13.708  44.110  0.00  0.00     0.001 A 
ATOM      3  C   UNL d   1      44.770 -14.117  44.284  0.00  0.00     0.001 A 
ATOM      4  C   UNL d   1      45.011 -14.721  44.789  0.00  0.00     0.000 A 
ATOM      5  C   UNL d   1      46.372 -14.313  44.618  0.00  0.00     0.000 A 
ATOM      6  C   UNL d   1      45.817 -14.816  44.955  0.00  0.00     0.000 A 
ENDROOT
BRANCH   1   7
ATOM      7  C   UNL d   1      45.080 -13.012  43.443  0.00  0.00     0.102 A 
ATOM      8  N   UNL d   1      45.536 -12.663  42.852  0.00  0.00    -0.222 NA
ATOM      9  C   UNL d   1      45.073 -12.086  42.482  0.00  0.00     0.199 A 
ATOM     10  N   UNL d   1      44.335 -12.080  42.844  0.00  0.00    -0.221 NA
ATOM     11  C   UNL d   1      44.334 -12.652  43.440  0.00  0.00     0.120 A 
ENDBRANCH   1   7
TORSDOF 1
ENDMDL
MODEL 4
REMARK VINA RESULT:       0.4      7.813      7.955
REMARK  1 active torsions:
REMARK  status: ('A' for Active; 'I' for Inactive)
REMARK    1  A    between atoms: C_6  and  C_2 
ROOT
ATOM      1  C   UNL d   1      45.186 -15.109  36.834  0.00  0.00     0.019 A 
ATOM      2  C   UNL d   1      45.846 -15.430  36.474  0.00  0.00     0.001 A 
ATOM      3  C   UNL d   1      45.239 -14.449  37.311  0.00  0.00     0.001 A 
ATOM      4  C   UNL d   1      45.972 -14.094  37.436  0.00  0.00     0.000 A 
ATOM      5  C   UNL d   1      46.585 -15.078  36.596  0.00  0.00     0.000 A 
ATOM      6  C   UNL d   1      46.646 -14.413  37.074  0.00  0.00     0.000 A 
ENDROOT
BRANCH   1   7
ATOM      7  C   UNL d   1      44.445 -15.465  36.710  0.00  0.00     0.102 A 
ATOM      8  N   UNL d   1      44.312 -16.185  36.333  0.00  0.00    -0.222 NA
ATOM      9  C   UNL d   1      43.497 -16.325  36.333  0.00  0.00     0.199 A 
ATOM     10  N   UNL d   1      43.129 -15.692  36.708  0.00  0.00    -0.221 NA
ATOM     11  C   UNL d   1      43.712 -15.157  36.944  0.00  0.00     0.120 A 
ENDBRANCH   1   7
TORSDOF 1
ENDMDL
MODEL 5
REMARK VINA RESULT:       0.6      5.312      6.201
REMARK  1 active torsions:
REMARK  status: ('A' for Active; 'I' for Inactive)
REMARK    1  A    between atoms: C_6  and  C_2 
ROOT
ATOM      1  C   UNL d   1      45.511 -13.655  44.376  0.00  0.00     0.019 A 
ATOM      2  C   UNL d   1      45.147 -13.432  43.680  0.00  0.00     0.001 A 
ATOM      3  C   UNL d   1      45.884 -13.110  44.855  0.00  0.00     0.001 A 
ATOM      4  C   UNL d   1      45.896 -12.316  44.637  0.00  0.00     0.000 A 
ATOM      5  C   UNL d   1      45.156 -12.635  43.455  0.00  0.00     0.000 A 
ATOM      6  C   UNL d   1      45.529 -12.081  43.932  0.00  0.00     0.000 A 
ENDROOT
BRANCH   1   7
ATOM      7  C   UNL d   1      45.501 -14.455  44.599  0.00  0.00     0.102 A 
ATOM      8  N   UNL d   1      46.163 -14.923  44.748  0.00  0.00    -0.222 NA
ATOM      9  C   UNL d   1      45.898 -15.680  44.953  0.00  0.00     0.199 A 
ATOM     10  N   UNL d   1      45.076 -15.677  44.930  0.00  0.00    -0.221 NA
ATOM     11  C   UNL d   1      44.826 -14.921  44.712  0.00  0.00     0.120 A 
ENDBRANCH   1   7
TORSDOF 1
ENDMDL
