MODEL 1
REMARK VINA RESULT:      45.6      0.000      0.000
REMARK  5 active torsions:
REMARK  status: ('A' for Active; 'I' for Inactive)
REMARK    1  A    between atoms: C_2  and  S_1 
REMARK    2  A    between atoms: N_3  and  S_1 
REMARK    3  A    between atoms: C_14  and  N_3 
REMARK    4  A    between atoms: C_15  and  C_14 
REMARK    5  A    between atoms: O_18  and  C_16 
ROOT
ATOM      1  S   UNL d   1     -51.926  25.990  33.503  0.00  0.00     0.285 S 
ATOM      2  O   UNL d   1     -51.952  26.812  33.567  0.00  0.00    -0.198 OA
ATOM      3  O   UNL d   1     -52.719  25.980  33.307  0.00  0.00    -0.198 OA
ENDROOT
BRANCH   1   4
ATOM      4  C   UNL d   1     -51.891  25.168  33.440  0.00  0.00     0.107 A 
ATOM      5  C   UNL d   1     -52.585  24.718  33.450  0.00  0.00     0.037 A 
ATOM      6  C   UNL d   1     -52.543  23.897  33.388  0.00  0.00     0.095 A 
ATOM      7  C   UNL d   1     -51.807  23.525  33.315  0.00  0.00     0.024 A 
ATOM      8  C   UNL d   1     -51.118  23.976  33.306  0.00  0.00     0.003 A 
ATOM      9  C   UNL d   1     -51.160  24.797  33.368  0.00  0.00     0.013 A 
BRANCH   6  10
ATOM     10  O   UNL d   1     -53.232  23.446  33.397  0.00  0.00    -0.328 OA
ATOM     11  C   UNL d   1     -53.551  23.192  34.114  0.00  0.00     0.181 C 
ENDBRANCH   6  10
ENDBRANCH   1   4
BRANCH   1  12
ATOM     12  N   UNL d   1     -51.125  26.004  33.701  0.00  0.00    -0.157 NA
BRANCH  12  13
ATOM     13  C   UNL d   1     -50.651  26.641  33.453  0.00  0.00     0.112 C 
BRANCH  13  14
ATOM     14  C   UNL d   1     -50.142  27.009  33.988  0.00  0.00     0.022 A 
ATOM     15  C   UNL d   1     -49.582  27.547  33.712  0.00  0.00     0.028 A 
ATOM     16  C   UNL d   1     -49.074  27.915  34.247  0.00  0.00     0.119 A 
ATOM     17  O   UNL d   1     -48.472  28.465  34.139  0.00  0.00    -0.300 OA
ATOM     18  C   UNL d   1     -49.121  27.750  35.054  0.00  0.00     0.119 A 
ATOM     19  C   UNL d   1     -48.144  28.642  34.876  0.00  0.00     0.304 A 
ATOM     20  O   UNL d   1     -48.557  28.191  35.438  0.00  0.00    -0.300 OA
ATOM     21  C   UNL d   1     -49.687  27.207  35.323  0.00  0.00     0.026 A 
ATOM     22  C   UNL d   1     -50.199  26.835  34.792  0.00  0.00     0.004 A 
ENDBRANCH  13  14
ENDBRANCH  12  13
ENDBRANCH   1  12
TORSDOF 5
ENDMDL
