MODEL 1
REMARK VINA RESULT:      74.5      0.000      0.000
REMARK  4 active torsions:
REMARK  status: ('A' for Active; 'I' for Inactive)
REMARK    1  A    between atoms: N_2  and  S_1 
REMARK    2  A    between atoms: C_3  and  S_1 
REMARK    3  A    between atoms: O_15  and  C_13 
REMARK    4  A    between atoms: C_19  and  O_15 
ROOT
ATOM      1  C   UNL d   1      60.474  48.212  50.373  0.00  0.00     0.105 A 
ATOM      2  C   UNL d   1      60.605  48.714  51.028  0.00  0.00     0.014 A 
ATOM      3  C   UNL d   1      60.002  49.207  51.295  0.00  0.00     0.024 A 
ATOM      4  C   UNL d   1      59.730  48.223  50.003  0.00  0.00     0.015 A 
ATOM      5  C   UNL d   1      59.269  49.211  50.923  0.00  0.00     0.100 A 
ATOM      6  C   UNL d   1      59.132  48.718  50.276  0.00  0.00     0.025 A 
ATOM      7  C   UNL d   1      61.340  48.710  51.402  0.00  0.00     0.001 A 
ATOM      8  C   UNL d   1      60.137  49.698  51.939  0.00  0.00     0.002 A 
ATOM      9  C   UNL d   1      61.475  49.202  52.047  0.00  0.00     0.000 A 
ATOM     10  C   UNL d   1      60.869  49.701  52.319  0.00  0.00     0.000 A 
ENDROOT
BRANCH   1  11
ATOM     11  S   UNL d   1      61.072  47.717  50.101  0.00  0.00     0.286 S 
ATOM     12  O   UNL d   1      60.792  47.111  50.589  0.00  0.00    -0.198 OA
ATOM     13  O   UNL d   1      61.353  48.326  49.609  0.00  0.00    -0.198 OA
BRANCH  11  14
ATOM     14  N   UNL d   1      61.679  47.213  49.823  0.00  0.00    -0.150 N 
ATOM     15  N   UNL d   1      61.579  46.434  49.553  0.00  0.00    -0.155 NA
ATOM     16  C   UNL d   1      62.320  46.144  49.334  0.00  0.00     0.104 A 
ATOM     17  C   UNL d   1      62.482  45.388  49.031  0.00  0.00     0.022 C 
ATOM     18  C   UNL d   1      62.879  46.744  49.469  0.00  0.00     0.042 A 
ATOM     19  C   UNL d   1      62.479  47.400  49.771  0.00  0.00     0.115 A 
ENDBRANCH  11  14
ENDBRANCH   1  11
BRANCH   5  20
ATOM     20  O   UNL d   1      58.672  49.707  51.196  0.00  0.00    -0.305 OA
BRANCH  20  21
ATOM     21  C   UNL d   1      57.938  49.708  50.827  0.00  0.00     0.123 C 
ATOM     22  C   UNL d   1      57.245  49.697  51.272  0.00  0.00     0.029 C 
ENDBRANCH  20  21
ENDBRANCH   5  20
TORSDOF 4
ENDMDL
