MODEL 1
REMARK VINA RESULT:      -5.4      0.000      0.000
REMARK  1 active torsions:
REMARK  status: ('A' for Active; 'I' for Inactive)
REMARK    1  A    between atoms: N_4  and  C_1 
ROOT
ATOM      1  C   UNL d   1      57.339  -0.198  31.168  0.00  0.00     0.735 A 
ATOM      2  N   UNL d   1      57.059   0.420  31.638  0.00  0.00    -0.059 NA
ATOM      3  N   UNL d   1      57.013  -0.904  31.454  0.00  0.00    -0.059 NA
ATOM      4  C   UNL d   1      56.559   0.099  32.215  0.00  0.00     0.118 A 
ATOM      5  C   UNL d   1      56.531  -0.717  32.102  0.00  0.00     0.118 A 
ATOM      6  C   UNL d   1      56.129   0.447  32.826  0.00  0.00     0.021 A 
ATOM      7  C   UNL d   1      56.073  -1.195  32.598  0.00  0.00     0.021 A 
ATOM      8  C   UNL d   1      55.643  -0.848  33.209  0.00  0.00     0.002 A 
ATOM      9  C   UNL d   1      55.671  -0.032  33.322  0.00  0.00     0.002 A 
ENDROOT
BRANCH   1  10
ATOM     10  N   UNL d   1      57.853  -0.135  30.525  0.00  0.00    -0.134 N 
ATOM     11  C   UNL d   1      58.139  -0.813  30.147  0.00  0.00     0.119 A 
ATOM     12  C   UNL d   1      58.650  -0.742  29.509  0.00  0.00     0.119 A 
ATOM     13  N   UNL d   1      58.880   0.003  29.241  0.00  0.00    -0.239 NA
ATOM     14  C   UNL d   1      58.594   0.682  29.618  0.00  0.00     0.119 A 
ATOM     15  C   UNL d   1      58.078   0.618  30.263  0.00  0.00     0.119 A 
ENDBRANCH   1  10
TORSDOF 1
ENDMDL
MODEL 2
REMARK VINA RESULT:      -4.7      0.901      3.512
REMARK  1 active torsions:
REMARK  status: ('A' for Active; 'I' for Inactive)
REMARK    1  A    between atoms: N_4  and  C_1 
ROOT
ATOM      1  C   UNL d   1      57.039  -0.174  31.712  0.00  0.00     0.735 A 
ATOM      2  N   UNL d   1      57.610   0.421  31.667  0.00  0.00    -0.059 NA
ATOM      3  N   UNL d   1      57.155  -0.688  31.072  0.00  0.00    -0.059 NA
ATOM      4  C   UNL d   1      58.080   0.278  31.001  0.00  0.00     0.118 A 
ATOM      5  C   UNL d   1      57.800  -0.406  30.634  0.00  0.00     0.118 A 
ATOM      6  C   UNL d   1      58.724   0.682  30.684  0.00  0.00     0.021 A 
ATOM      7  C   UNL d   1      58.161  -0.692  29.947  0.00  0.00     0.021 A 
ATOM      8  C   UNL d   1      58.804  -0.289  29.630  0.00  0.00     0.002 A 
ATOM      9  C   UNL d   1      59.085   0.395  29.997  0.00  0.00     0.002 A 
ENDROOT
BRANCH   1  10
ATOM     10  N   UNL d   1      56.453  -0.254  32.288  0.00  0.00    -0.134 N 
ATOM     11  C   UNL d   1      56.074   0.413  32.597  0.00  0.00     0.119 A 
ATOM     12  C   UNL d   1      55.492   0.325  33.169  0.00  0.00     0.119 A 
ATOM     13  N   UNL d   1      55.282  -0.426  33.437  0.00  0.00    -0.239 NA
ATOM     14  C   UNL d   1      55.660  -1.093  33.128  0.00  0.00     0.119 A 
ATOM     15  C   UNL d   1      56.249  -1.013  32.550  0.00  0.00     0.119 A 
ENDBRANCH   1  10
TORSDOF 1
ENDMDL
MODEL 3
REMARK VINA RESULT:      -3.2      1.016      1.600
REMARK  1 active torsions:
REMARK  status: ('A' for Active; 'I' for Inactive)
REMARK    1  A    between atoms: N_4  and  C_1 
ROOT
ATOM      1  C   UNL d   1      57.173   0.129  32.280  0.00  0.00     0.735 A 
ATOM      2  N   UNL d   1      56.940  -0.621  32.536  0.00  0.00    -0.059 NA
ATOM      3  N   UNL d   1      56.635   0.681  32.585  0.00  0.00    -0.059 NA
ATOM      4  C   UNL d   1      56.259  -0.536  33.000  0.00  0.00     0.118 A 
ATOM      5  C   UNL d   1      56.071   0.266  33.030  0.00  0.00     0.118 A 
ATOM      6  C   UNL d   1      55.791  -1.086  33.395  0.00  0.00     0.021 A 
ATOM      7  C   UNL d   1      55.412   0.527  33.456  0.00  0.00     0.021 A 
ATOM      8  C   UNL d   1      54.943  -0.021  33.852  0.00  0.00     0.002 A 
ATOM      9  C   UNL d   1      55.131  -0.824  33.822  0.00  0.00     0.002 A 
ENDROOT
BRANCH   1  10
ATOM     10  N   UNL d   1      57.823   0.309  31.804  0.00  0.00    -0.134 N 
ATOM     11  C   UNL d   1      57.747   0.337  30.982  0.00  0.00     0.119 A 
ATOM     12  C   UNL d   1      58.399   0.517  30.516  0.00  0.00     0.119 A 
ATOM     13  N   UNL d   1      59.130   0.670  30.865  0.00  0.00    -0.239 NA
ATOM     14  C   UNL d   1      59.207   0.641  31.688  0.00  0.00     0.119 A 
ATOM     15  C   UNL d   1      58.554   0.460  32.165  0.00  0.00     0.119 A 
ENDBRANCH   1  10
TORSDOF 1
ENDMDL
MODEL 4
REMARK VINA RESULT:      -2.9      2.019      4.313
REMARK  1 active torsions:
REMARK  status: ('A' for Active; 'I' for Inactive)
REMARK    1  A    between atoms: N_4  and  C_1 
ROOT
ATOM      1  C   UNL d   1      56.149   0.549  33.640  0.00  0.00     0.735 A 
ATOM      2  N   UNL d   1      55.939   0.380  32.860  0.00  0.00    -0.059 NA
ATOM      3  N   UNL d   1      56.968   0.680  33.661  0.00  0.00    -0.059 NA
ATOM      4  C   UNL d   1      56.625   0.405  32.396  0.00  0.00     0.118 A 
ATOM      5  C   UNL d   1      57.259   0.590  32.890  0.00  0.00     0.118 A 
ATOM      6  C   UNL d   1      56.750   0.283  31.592  0.00  0.00     0.021 A 
ATOM      7  C   UNL d   1      58.024   0.655  32.584  0.00  0.00     0.021 A 
ATOM      8  C   UNL d   1      58.151   0.533  31.780  0.00  0.00     0.002 A 
ATOM      9  C   UNL d   1      57.516   0.348  31.286  0.00  0.00     0.002 A 
ENDROOT
BRANCH   1  10
ATOM     10  N   UNL d   1      55.644   0.585  34.291  0.00  0.00    -0.134 N 
ATOM     11  C   UNL d   1      54.824   0.560  34.189  0.00  0.00     0.119 A 
ATOM     12  C   UNL d   1      54.328   0.596  34.842  0.00  0.00     0.119 A 
ATOM     13  N   UNL d   1      54.643   0.657  35.601  0.00  0.00    -0.239 NA
ATOM     14  C   UNL d   1      55.463   0.682  35.705  0.00  0.00     0.119 A 
ATOM     15  C   UNL d   1      55.971   0.646  35.050  0.00  0.00     0.119 A 
ENDBRANCH   1  10
TORSDOF 1
ENDMDL
