MODEL 1
REMARK VINA RESULT:      27.2      0.000      0.000
REMARK  3 active torsions:
REMARK  status: ('A' for Active; 'I' for Inactive)
REMARK    1  A    between atoms: C_2  and  S_1 
REMARK    2  A    between atoms: N_3  and  S_1 
REMARK    3  A    between atoms: C_12  and  N_3 
ROOT
ATOM      1  S   UNL d   1      58.623  49.638  50.274  0.00  0.00     0.285 S 
ATOM      2  O   UNL d   1      58.658  49.583  49.526  0.00  0.00    -0.198 OA
ATOM      3  O   UNL d   1      58.797  49.707  51.026  0.00  0.00    -0.198 OA
ENDROOT
BRANCH   1   4
ATOM      4  C   UNL d   1      57.797  49.597  50.389  0.00  0.00     0.105 A 
ATOM      5  C   UNL d   1      57.292  49.512  49.738  0.00  0.00     0.012 A 
ATOM      6  C   UNL d   1      56.474  49.471  49.852  0.00  0.00     0.001 A 
ATOM      7  C   UNL d   1      57.623  49.468  48.966  0.00  0.00     0.001 C 
ATOM      8  C   UNL d   1      56.166  49.516  50.616  0.00  0.00     0.000 A 
ATOM      9  C   UNL d   1      56.665  49.601  51.276  0.00  0.00     0.001 A 
ATOM     10  C   UNL d   1      57.483  49.642  51.162  0.00  0.00     0.013 A 
ATOM     11  C   UNL d   1      56.345  49.646  52.047  0.00  0.00     0.000 C 
ENDBRANCH   1   4
BRANCH   1  12
ATOM     12  N   UNL d   1      59.349  49.669  50.102  0.00  0.00    -0.158 NA
BRANCH  12  13
ATOM     13  C   UNL d   1      59.731  49.647  50.679  0.00  0.00     0.095 A 
ATOM     14  C   UNL d   1      60.418  49.564  50.632  0.00  0.00     0.040 A 
ATOM     15  C   UNL d   1      60.783  49.544  51.207  0.00  0.00     0.089 A 
ATOM     16  N   UNL d   1      61.459  49.469  51.311  0.00  0.00    -0.236 NA
ATOM     17  C   UNL d   1      60.489  49.603  51.821  0.00  0.00     0.049 A 
ATOM     18  C   UNL d   1      61.570  49.483  51.995  0.00  0.00     0.135 A 
ATOM     19  S   UNL d   1      60.974  49.565  52.299  0.00  0.00    -0.064 SA
ATOM     20  C   UNL d   1      59.799  49.685  51.855  0.00  0.00     0.010 A 
ATOM     21  C   UNL d   1      59.418  49.708  51.282  0.00  0.00     0.021 A 
ENDBRANCH  12  13
ENDBRANCH   1  12
TORSDOF 3
ENDMDL
