MODEL 1
REMARK VINA RESULT:      -6.9      0.000      0.000
REMARK  3 active torsions:
REMARK  status: ('A' for Active; 'I' for Inactive)
REMARK    1  A    between atoms: N_6  and  S_1 
REMARK    2  A    between atoms: C_7  and  S_1 
REMARK    3  A    between atoms: C_10  and  N_6 
ROOT
ATOM      1  S   UNL d   1     -39.738  14.638  19.806  0.00  0.00     0.327 S 
ATOM      2  O   UNL d   1     -40.253  14.438  20.414  0.00  0.00    -0.186 OA
ATOM      3  O   UNL d   1     -38.952  14.815  19.974  0.00  0.00    -0.186 OA
ENDROOT
BRANCH   1   4
ATOM      4  N   UNL d   1     -39.476  14.612  20.583  0.00  0.00    -0.317 NA
BRANCH   4   5
ATOM      5  C   UNL d   1     -39.208  14.585  21.379  0.00  0.00     0.145 A 
ATOM      6  C   UNL d   1     -39.233  15.275  21.841  0.00  0.00     0.033 A 
ATOM      7  C   UNL d   1     -38.968  15.245  22.625  0.00  0.00     0.003 A 
ATOM      8  C   UNL d   1     -38.987  15.922  23.094  0.00  0.00     0.000 C 
ATOM      9  C   UNL d   1     -38.682  14.534  22.939  0.00  0.00     0.000 A 
ATOM     10  C   UNL d   1     -38.662  13.856  22.471  0.00  0.00     0.003 A 
ATOM     11  C   UNL d   1     -38.926  13.885  21.690  0.00  0.00     0.033 A 
ATOM     12  C   UNL d   1     -38.379  13.150  22.778  0.00  0.00     0.000 C 
ENDBRANCH   4   5
ENDBRANCH   1   4
BRANCH   1  13
ATOM     13  C   UNL d   1     -40.009  14.662  19.032  0.00  0.00     0.118 A 
ATOM     14  C   UNL d   1     -40.513  15.264  18.793  0.00  0.00     0.035 A 
ATOM     15  C   UNL d   1     -40.789  15.292  18.012  0.00  0.00     0.105 A 
ATOM     16  N   UNL d   1     -41.289  15.816  17.617  0.00  0.00    -0.189 NA
ATOM     17  C   UNL d   1     -40.553  14.707  17.469  0.00  0.00     0.104 A 
ATOM     18  C   UNL d   1     -41.366  15.559  16.828  0.00  0.00     0.369 A 
ATOM     19  O   UNL d   1     -41.815  15.922  16.241  0.00  0.00    -0.242 OA
ATOM     20  N   UNL d   1     -40.910  14.875  16.745  0.00  0.00    -0.189 NA
ATOM     21  C   UNL d   1     -40.044  14.101  17.715  0.00  0.00     0.022 A 
ATOM     22  C   UNL d   1     -39.775  14.083  18.496  0.00  0.00     0.016 A 
ENDBRANCH   1  13
TORSDOF 3
ENDMDL
MODEL 2
REMARK VINA RESULT:      -6.3      1.423      5.014
REMARK  3 active torsions:
REMARK  status: ('A' for Active; 'I' for Inactive)
REMARK    1  A    between atoms: N_6  and  S_1 
REMARK    2  A    between atoms: C_7  and  S_1 
REMARK    3  A    between atoms: C_10  and  N_6 
ROOT
ATOM      1  S   UNL d   1     -39.525  14.615  19.792  0.00  0.00     0.327 S 
ATOM      2  O   UNL d   1     -39.131  15.219  19.400  0.00  0.00    -0.186 OA
ATOM      3  O   UNL d   1     -40.071  14.149  19.388  0.00  0.00    -0.186 OA
ENDROOT
BRANCH   1   4
ATOM      4  N   UNL d   1     -39.670  14.760  18.998  0.00  0.00    -0.317 NA
BRANCH   4   5
ATOM      5  C   UNL d   1     -39.817  14.910  18.184  0.00  0.00     0.145 A 
ATOM      6  C   UNL d   1     -39.289  14.617  17.614  0.00  0.00     0.033 A 
ATOM      7  C   UNL d   1     -39.437  14.766  16.812  0.00  0.00     0.003 A 
ATOM      8  C   UNL d   1     -38.921  14.480  16.238  0.00  0.00     0.000 C 
ATOM      9  C   UNL d   1     -40.104  15.203  16.589  0.00  0.00     0.000 A 
ATOM     10  C   UNL d   1     -40.620  15.489  17.163  0.00  0.00     0.003 A 
ATOM     11  C   UNL d   1     -40.474  15.340  17.962  0.00  0.00     0.033 A 
ATOM     12  C   UNL d   1     -41.282  15.922  16.946  0.00  0.00     0.000 C 
ENDBRANCH   4   5
ENDBRANCH   1   4
BRANCH   1  13
ATOM     13  C   UNL d   1     -39.375  14.476  20.587  0.00  0.00     0.118 A 
ATOM     14  C   UNL d   1     -38.920  13.829  20.810  0.00  0.00     0.035 A 
ATOM     15  C   UNL d   1     -38.766  13.685  21.612  0.00  0.00     0.105 A 
ATOM     16  N   UNL d   1     -38.338  13.095  21.999  0.00  0.00    -0.189 NA
ATOM     17  C   UNL d   1     -39.073  14.198  22.190  0.00  0.00     0.104 A 
ATOM     18  C   UNL d   1     -38.378  13.239  22.818  0.00  0.00     0.369 A 
ATOM     19  O   UNL d   1     -38.027  12.784  23.408  0.00  0.00    -0.242 OA
ATOM     20  N   UNL d   1     -38.832  13.921  22.929  0.00  0.00    -0.189 NA
ATOM     21  C   UNL d   1     -39.531  14.850  21.960  0.00  0.00     0.022 A 
ATOM     22  C   UNL d   1     -39.679  14.983  21.159  0.00  0.00     0.016 A 
ENDBRANCH   1  13
TORSDOF 3
ENDMDL
