MODEL 1
REMARK VINA RESULT:      33.2      0.000      0.000
REMARK  4 active torsions:
REMARK  status: ('A' for Active; 'I' for Inactive)
REMARK    1  A    between atoms: N_2  and  S_1 
REMARK    2  A    between atoms: C_3  and  S_1 
REMARK    3  A    between atoms: C_4  and  N_2 
REMARK    4  A    between atoms: O_14  and  C_7 
ROOT
ATOM      1  S   UNL d   1      58.980  49.665  50.865  0.00  0.00     0.285 S 
ATOM      2  O   UNL d   1      58.641  49.624  51.618  0.00  0.00    -0.198 OA
ATOM      3  O   UNL d   1      59.329  49.708  50.098  0.00  0.00    -0.198 OA
ENDROOT
BRANCH   1   4
ATOM      4  N   UNL d   1      59.730  49.706  51.204  0.00  0.00    -0.156 NA
BRANCH   4   5
ATOM      5  C   UNL d   1      60.294  49.133  51.031  0.00  0.00     0.116 A 
ATOM      6  C   UNL d   1      60.832  48.882  51.603  0.00  0.00     0.112 A 
ATOM      7  C   UNL d   1      61.396  48.310  51.430  0.00  0.00     0.026 A 
ATOM      8  C   UNL d   1      61.436  47.976  50.679  0.00  0.00     0.002 A 
ATOM      9  C   UNL d   1      60.900  48.224  50.102  0.00  0.00     0.002 A 
ATOM     10  C   UNL d   1      60.336  48.796  50.275  0.00  0.00     0.022 A 
BRANCH   6  11
ATOM     11  O   UNL d   1      60.786  49.231  52.379  0.00  0.00    -0.327 OA
ATOM     12  C   UNL d   1      61.461  49.509  52.758  0.00  0.00     0.181 C 
ENDBRANCH   6  11
ENDBRANCH   4   5
ENDBRANCH   1   4
BRANCH   1  13
ATOM     13  C   UNL d   1      58.214  49.624  50.516  0.00  0.00     0.105 A 
ATOM     14  C   UNL d   1      57.541  49.708  50.996  0.00  0.00     0.014 A 
ATOM     15  C   UNL d   1      56.793  49.666  50.644  0.00  0.00     0.012 A 
ATOM     16  C   UNL d   1      56.714  49.542  49.816  0.00  0.00     0.058 A 
ATOM     17  C   UNL d   1      57.385  49.461  49.355  0.00  0.00     0.012 A 
ATOM     18 CL   UNL d   1      56.042  49.497  49.454  0.00  0.00    -0.082 Cl
ATOM     19  C   UNL d   1      58.135  49.499  49.688  0.00  0.00     0.014 A 
ENDBRANCH   1  13
TORSDOF 4
ENDMDL
