MODEL 1
REMARK VINA RESULT:      -6.3      0.000      0.000
REMARK  7 active torsions:
REMARK  status: ('A' for Active; 'I' for Inactive)
REMARK    1  A    between atoms: C_7  and  N_1 
REMARK    2  A    between atoms: S_15  and  C_3 
REMARK    3  A    between atoms: O_8  and  C_7 
REMARK    4  A    between atoms: C_10  and  O_8 
REMARK    5  A    between atoms: C_19  and  C_10 
REMARK    6  A    between atoms: C_13  and  O_14 
REMARK    7  A    between atoms: O_14  and  C_19 
ROOT
ATOM      1  O   UNL d   1     -48.153  13.930  22.788  0.00  0.00    -0.251 OA
ENDROOT
BRANCH   1   2
ATOM      2  C   UNL d   1     -48.571  14.506  22.371  0.00  0.00     0.215 C 
BRANCH   2   3
ATOM      3  N   UNL d   1     -49.390  14.436  22.271  0.00  0.00    -0.229 N 
ATOM      4  C   UNL d   1     -49.693  13.871  21.751  0.00  0.00     0.287 A 
ATOM      5  C   UNL d   1     -50.509  13.798  21.650  0.00  0.00     0.159 A 
ATOM      6  O   UNL d   1     -49.180  13.378  21.333  0.00  0.00    -0.265 OA
ATOM      7  C   UNL d   1     -50.804  13.226  21.123  0.00  0.00     0.028 C 
ATOM      8  N   UNL d   1     -51.022  14.291  22.068  0.00  0.00    -0.141 NA
ATOM      9  N   UNL d   1     -50.719  14.856  22.588  0.00  0.00    -0.123 NA
ATOM     10  C   UNL d   1     -49.903  14.928  22.690  0.00  0.00     0.200 A 
BRANCH  10  11
ATOM     11  S   UNL d   1     -49.600  15.493  23.210  0.00  0.00    -0.074 SA
ATOM     12  C   UNL d   1     -50.110  15.922  23.696  0.00  0.00     0.077 C 
ENDBRANCH  10  11
ENDBRANCH   2   3
ENDBRANCH   1   2
BRANCH   1  13
ATOM     13  C   UNL d   1     -47.351  14.040  22.952  0.00  0.00     0.327 C 
ATOM     14  O   UNL d   1     -47.005  14.782  22.843  0.00  0.00    -0.256 OA
BRANCH  13  15
ATOM     15  C   UNL d   1     -46.895  13.408  23.224  0.00  0.00     0.191 C 
BRANCH  15  16
ATOM     16  O   UNL d   1     -46.372  13.029  22.718  0.00  0.00    -0.299 OA
BRANCH  16  17
ATOM     17  C   UNL d   1     -45.993  12.337  22.958  0.00  0.00     0.111 A 
ATOM     18  C   UNL d   1     -45.233  12.172  22.702  0.00  0.00     0.081 A 
ATOM     19  C   UNL d   1     -44.854  11.480  22.942  0.00  0.00     0.025 A 
ATOM     20 CL   UNL d   1     -44.843  12.714  22.194  0.00  0.00    -0.080 Cl
ATOM     21  C   UNL d   1     -45.234  10.952  23.437  0.00  0.00     0.059 A 
ATOM     22  C   UNL d   1     -46.000  11.113  23.698  0.00  0.00     0.013 A 
ATOM     23 CL   UNL d   1     -44.850  10.261  23.674  0.00  0.00    -0.082 Cl
ATOM     24  C   UNL d   1     -46.379  11.806  23.458  0.00  0.00     0.026 A 
ENDBRANCH  16  17
ENDBRANCH  15  16
ENDBRANCH  13  15
ENDBRANCH   1  13
TORSDOF 7
ENDMDL
MODEL 2
REMARK VINA RESULT:      -5.7      8.625      9.570
REMARK  7 active torsions:
REMARK  status: ('A' for Active; 'I' for Inactive)
REMARK    1  A    between atoms: C_7  and  N_1 
REMARK    2  A    between atoms: S_15  and  C_3 
REMARK    3  A    between atoms: O_8  and  C_7 
REMARK    4  A    between atoms: C_10  and  O_8 
REMARK    5  A    between atoms: C_19  and  C_10 
REMARK    6  A    between atoms: C_13  and  O_14 
REMARK    7  A    between atoms: O_14  and  C_19 
ROOT
ATOM      1  O   UNL d   1     -40.148  14.724  19.027  0.00  0.00    -0.251 OA
ENDROOT
BRANCH   1   2
ATOM      2  C   UNL d   1     -40.362  14.275  18.369  0.00  0.00     0.215 C 
BRANCH   2   3
ATOM      3  N   UNL d   1     -39.957  14.364  17.653  0.00  0.00    -0.229 N 
ATOM      4  C   UNL d   1     -39.301  13.889  17.491  0.00  0.00     0.287 A 
ATOM      5  C   UNL d   1     -38.895  13.976  16.778  0.00  0.00     0.159 A 
ATOM      6  O   UNL d   1     -39.052  13.328  18.043  0.00  0.00    -0.265 OA
ATOM      7  C   UNL d   1     -38.235  13.492  16.625  0.00  0.00     0.028 C 
ATOM      8  N   UNL d   1     -39.144  14.537  16.226  0.00  0.00    -0.141 NA
ATOM      9  N   UNL d   1     -39.799  15.011  16.389  0.00  0.00    -0.123 NA
ATOM     10  C   UNL d   1     -40.206  14.925  17.102  0.00  0.00     0.200 A 
BRANCH  10  11
ATOM     11  S   UNL d   1     -40.862  15.399  17.264  0.00  0.00    -0.074 SA
ATOM     12  C   UNL d   1     -41.216  15.834  16.658  0.00  0.00     0.077 C 
ENDBRANCH  10  11
ENDBRANCH   2   3
ENDBRANCH   1   2
BRANCH   1  13
ATOM     13  C   UNL d   1     -40.441  14.530  19.774  0.00  0.00     0.327 C 
ATOM     14  O   UNL d   1     -41.053  13.980  19.846  0.00  0.00    -0.256 OA
BRANCH  13  15
ATOM     15  C   UNL d   1     -40.123  14.885  20.447  0.00  0.00     0.191 C 
BRANCH  15  16
ATOM     16  O   UNL d   1     -39.873  14.422  21.077  0.00  0.00    -0.299 OA
BRANCH  16  17
ATOM     17  C   UNL d   1     -39.508  14.772  21.729  0.00  0.00     0.111 A 
ATOM     18  C   UNL d   1     -39.019  14.332  22.215  0.00  0.00     0.081 A 
ATOM     19  C   UNL d   1     -38.653  14.682  22.866  0.00  0.00     0.025 A 
ATOM     20 CL   UNL d   1     -38.892  13.520  22.046  0.00  0.00    -0.080 Cl
ATOM     21  C   UNL d   1     -38.776  15.473  23.031  0.00  0.00     0.059 A 
ATOM     22  C   UNL d   1     -39.269  15.922  22.544  0.00  0.00     0.013 A 
ATOM     23 CL   UNL d   1     -38.409  15.819  23.684  0.00  0.00    -0.082 Cl
ATOM     24  C   UNL d   1     -39.634  15.572  21.893  0.00  0.00     0.026 A 
ENDBRANCH  16  17
ENDBRANCH  15  16
ENDBRANCH  13  15
ENDBRANCH   1  13
TORSDOF 7
ENDMDL
MODEL 3
REMARK VINA RESULT:      -5.5      3.120      5.279
REMARK  7 active torsions:
REMARK  status: ('A' for Active; 'I' for Inactive)
REMARK    1  A    between atoms: C_7  and  N_1 
REMARK    2  A    between atoms: S_15  and  C_3 
REMARK    3  A    between atoms: O_8  and  C_7 
REMARK    4  A    between atoms: C_10  and  O_8 
REMARK    5  A    between atoms: C_19  and  C_10 
REMARK    6  A    between atoms: C_13  and  O_14 
REMARK    7  A    between atoms: O_14  and  C_19 
ROOT
ATOM      1  O   UNL d   1     -47.039  11.945  23.060  0.00  0.00    -0.251 OA
ENDROOT
BRANCH   1   2
ATOM      2  C   UNL d   1     -46.352  11.696  23.443  0.00  0.00     0.215 C 
BRANCH   2   3
ATOM      3  N   UNL d   1     -45.612  11.821  23.094  0.00  0.00    -0.229 N 
ATOM      4  C   UNL d   1     -45.489  12.487  22.622  0.00  0.00     0.287 A 
ATOM      5  C   UNL d   1     -44.751  12.615  22.273  0.00  0.00     0.159 A 
ATOM      6  O   UNL d   1     -46.102  13.025  22.499  0.00  0.00    -0.265 OA
ATOM      7  C   UNL d   1     -44.638  13.289  21.799  0.00  0.00     0.028 C 
ATOM      8  N   UNL d   1     -44.138  12.077  22.396  0.00  0.00    -0.141 NA
ATOM      9  N   UNL d   1     -44.262  11.411  22.868  0.00  0.00    -0.123 NA
ATOM     10  C   UNL d   1     -44.998  11.283  23.217  0.00  0.00     0.200 A 
BRANCH  10  11
ATOM     11  S   UNL d   1     -45.122  10.617  23.689  0.00  0.00    -0.074 SA
ATOM     12  C   UNL d   1     -44.569  10.005  23.691  0.00  0.00     0.077 C 
ENDBRANCH  10  11
ENDBRANCH   2   3
ENDBRANCH   1   2
BRANCH   1  13
ATOM     13  C   UNL d   1     -47.779  11.756  23.374  0.00  0.00     0.327 C 
ATOM     14  O   UNL d   1     -47.917  11.000  23.678  0.00  0.00    -0.256 OA
BRANCH  13  15
ATOM     15  C   UNL d   1     -48.379  12.322  23.386  0.00  0.00     0.191 C 
BRANCH  15  16
ATOM     16  O   UNL d   1     -49.014  12.259  22.869  0.00  0.00    -0.299 OA
BRANCH  16  17
ATOM     17  C   UNL d   1     -49.525  12.898  22.762  0.00  0.00     0.111 A 
ATOM     18  C   UNL d   1     -49.905  13.007  22.046  0.00  0.00     0.081 A 
ATOM     19  C   UNL d   1     -50.415  13.646  21.938  0.00  0.00     0.025 A 
ATOM     20 CL   UNL d   1     -49.771  12.464  21.421  0.00  0.00    -0.080 Cl
ATOM     21  C   UNL d   1     -50.546  14.176  22.547  0.00  0.00     0.059 A 
ATOM     22  C   UNL d   1     -50.165  14.070  23.271  0.00  0.00     0.013 A 
ATOM     23 CL   UNL d   1     -51.058  14.813  22.435  0.00  0.00    -0.082 Cl
ATOM     24  C   UNL d   1     -49.655  13.431  23.379  0.00  0.00     0.026 A 
ENDBRANCH  16  17
ENDBRANCH  15  16
ENDBRANCH  13  15
ENDBRANCH   1  13
TORSDOF 7
ENDMDL
MODEL 4
REMARK VINA RESULT:      -5.4      1.273      1.551
REMARK  7 active torsions:
REMARK  status: ('A' for Active; 'I' for Inactive)
REMARK    1  A    between atoms: C_7  and  N_1 
REMARK    2  A    between atoms: S_15  and  C_3 
REMARK    3  A    between atoms: O_8  and  C_7 
REMARK    4  A    between atoms: C_10  and  O_8 
REMARK    5  A    between atoms: C_19  and  C_10 
REMARK    6  A    between atoms: C_13  and  O_14 
REMARK    7  A    between atoms: O_14  and  C_19 
ROOT
ATOM      1  O   UNL d   1     -47.689  13.436  22.651  0.00  0.00    -0.251 OA
ENDROOT
BRANCH   1   2
ATOM      2  C   UNL d   1     -48.337  13.493  23.160  0.00  0.00     0.215 C 
BRANCH   2   3
ATOM      3  N   UNL d   1     -49.107  13.441  22.862  0.00  0.00    -0.229 N 
ATOM      4  C   UNL d   1     -49.417  14.064  22.417  0.00  0.00     0.287 A 
ATOM      5  C   UNL d   1     -50.186  14.015  22.119  0.00  0.00     0.159 A 
ATOM      6  O   UNL d   1     -48.960  14.735  22.272  0.00  0.00    -0.265 OA
ATOM      7  C   UNL d   1     -50.489  14.649  21.672  0.00  0.00     0.028 C 
ATOM      8  N   UNL d   1     -50.643  13.344  22.264  0.00  0.00    -0.141 NA
ATOM      9  N   UNL d   1     -50.332  12.722  22.707  0.00  0.00    -0.123 NA
ATOM     10  C   UNL d   1     -49.564  12.770  23.006  0.00  0.00     0.200 A 
BRANCH  10  11
ATOM     11  S   UNL d   1     -49.253  12.148  23.450  0.00  0.00    -0.074 SA
ATOM     12  C   UNL d   1     -49.742  11.527  23.688  0.00  0.00     0.077 C 
ENDBRANCH  10  11
ENDBRANCH   2   3
ENDBRANCH   1   2
BRANCH   1  13
ATOM     13  C   UNL d   1     -46.922  13.485  22.952  0.00  0.00     0.327 C 
ATOM     14  O   UNL d   1     -46.563  14.223  23.048  0.00  0.00    -0.256 OA
BRANCH  13  15
ATOM     15  C   UNL d   1     -46.514  12.798  23.158  0.00  0.00     0.191 C 
BRANCH  15  16
ATOM     16  O   UNL d   1     -45.766  12.655  22.851  0.00  0.00    -0.299 OA
BRANCH  16  17
ATOM     17  C   UNL d   1     -45.370  11.956  23.036  0.00  0.00     0.111 A 
ATOM     18  C   UNL d   1     -44.617  11.820  22.747  0.00  0.00     0.081 A 
ATOM     19  C   UNL d   1     -44.220  11.120  22.931  0.00  0.00     0.025 A 
ATOM     20 CL   UNL d   1     -44.250  12.398  22.262  0.00  0.00    -0.080 Cl
ATOM     21  C   UNL d   1     -44.576  10.557  23.404  0.00  0.00     0.059 A 
ATOM     22  C   UNL d   1     -45.336  10.689  23.698  0.00  0.00     0.013 A 
ATOM     23 CL   UNL d   1     -44.176   9.859  23.586  0.00  0.00    -0.082 Cl
ATOM     24  C   UNL d   1     -45.733  11.389  23.514  0.00  0.00     0.026 A 
ENDBRANCH  16  17
ENDBRANCH  15  16
ENDBRANCH  13  15
ENDBRANCH   1  13
TORSDOF 7
ENDMDL
MODEL 5
REMARK VINA RESULT:      -5.4      0.966      1.497
REMARK  7 active torsions:
REMARK  status: ('A' for Active; 'I' for Inactive)
REMARK    1  A    between atoms: C_7  and  N_1 
REMARK    2  A    between atoms: S_15  and  C_3 
REMARK    3  A    between atoms: O_8  and  C_7 
REMARK    4  A    between atoms: C_10  and  O_8 
REMARK    5  A    between atoms: C_19  and  C_10 
REMARK    6  A    between atoms: C_13  and  O_14 
REMARK    7  A    between atoms: O_14  and  C_19 
ROOT
ATOM      1  O   UNL d   1     -48.191  13.472  22.600  0.00  0.00    -0.251 OA
ENDROOT
BRANCH   1   2
ATOM      2  C   UNL d   1     -48.886  13.623  23.018  0.00  0.00     0.215 C 
BRANCH   2   3
ATOM      3  N   UNL d   1     -49.563  13.885  22.620  0.00  0.00    -0.229 N 
ATOM      4  C   UNL d   1     -49.978  13.364  22.131  0.00  0.00     0.287 A 
ATOM      5  C   UNL d   1     -50.654  13.622  21.733  0.00  0.00     0.159 A 
ATOM      6  O   UNL d   1     -49.717  12.586  22.041  0.00  0.00    -0.265 OA
ATOM      7  C   UNL d   1     -51.064  13.089  21.243  0.00  0.00     0.028 C 
ATOM      8  N   UNL d   1     -50.914  14.399  21.823  0.00  0.00    -0.141 NA
ATOM      9  N   UNL d   1     -50.499  14.919  22.312  0.00  0.00    -0.123 NA
ATOM     10  C   UNL d   1     -49.824  14.662  22.710  0.00  0.00     0.200 A 
BRANCH  10  11
ATOM     11  S   UNL d   1     -49.409  15.182  23.198  0.00  0.00    -0.074 SA
ATOM     12  C   UNL d   1     -49.768  15.877  23.460  0.00  0.00     0.077 C 
ENDBRANCH  10  11
ENDBRANCH   2   3
ENDBRANCH   1   2
BRANCH   1  13
ATOM     13  C   UNL d   1     -47.546  13.126  22.982  0.00  0.00     0.327 C 
ATOM     14  O   UNL d   1     -47.656  12.729  23.698  0.00  0.00    -0.256 OA
BRANCH  13  15
ATOM     15  C   UNL d   1     -46.793  13.175  22.649  0.00  0.00     0.191 C 
BRANCH  15  16
ATOM     16  O   UNL d   1     -46.190  12.687  22.918  0.00  0.00    -0.299 OA
BRANCH  16  17
ATOM     17  C   UNL d   1     -45.454  12.696  22.547  0.00  0.00     0.111 A 
ATOM     18  C   UNL d   1     -44.937  12.068  22.639  0.00  0.00     0.081 A 
ATOM     19  C   UNL d   1     -44.201  12.077  22.268  0.00  0.00     0.025 A 
ATOM     20 CL   UNL d   1     -45.163  11.415  23.114  0.00  0.00    -0.080 Cl
ATOM     21  C   UNL d   1     -43.980  12.713  21.805  0.00  0.00     0.059 A 
ATOM     22  C   UNL d   1     -44.497  13.349  21.709  0.00  0.00     0.013 A 
ATOM     23 CL   UNL d   1     -43.242  12.718  21.436  0.00  0.00    -0.082 Cl
ATOM     24  C   UNL d   1     -45.234  13.341  22.080  0.00  0.00     0.026 A 
ENDBRANCH  16  17
ENDBRANCH  15  16
ENDBRANCH  13  15
ENDBRANCH   1  13
TORSDOF 7
ENDMDL
MODEL 6
REMARK VINA RESULT:      -5.2      1.212      2.114
REMARK  7 active torsions:
REMARK  status: ('A' for Active; 'I' for Inactive)
REMARK    1  A    between atoms: C_7  and  N_1 
REMARK    2  A    between atoms: S_15  and  C_3 
REMARK    3  A    between atoms: O_8  and  C_7 
REMARK    4  A    between atoms: C_10  and  O_8 
REMARK    5  A    between atoms: C_19  and  C_10 
REMARK    6  A    between atoms: C_13  and  O_14 
REMARK    7  A    between atoms: O_14  and  C_19 
ROOT
ATOM      1  O   UNL d   1     -48.365  13.485  22.919  0.00  0.00    -0.251 OA
ENDROOT
BRANCH   1   2
ATOM      2  C   UNL d   1     -49.131  13.341  23.189  0.00  0.00     0.215 C 
BRANCH   2   3
ATOM      3  N   UNL d   1     -49.751  13.843  22.971  0.00  0.00    -0.229 N 
ATOM      4  C   UNL d   1     -49.752  14.628  23.227  0.00  0.00     0.287 A 
ATOM      5  C   UNL d   1     -50.369  15.132  23.010  0.00  0.00     0.159 A 
ATOM      6  O   UNL d   1     -49.136  14.909  23.698  0.00  0.00    -0.265 OA
ATOM      7  C   UNL d   1     -50.360  15.922  23.274  0.00  0.00     0.028 C 
ATOM      8  N   UNL d   1     -50.985  14.852  22.539  0.00  0.00    -0.141 NA
ATOM      9  N   UNL d   1     -50.984  14.067  22.284  0.00  0.00    -0.123 NA
ATOM     10  C   UNL d   1     -50.367  13.563  22.499  0.00  0.00     0.200 A 
BRANCH  10  11
ATOM     11  S   UNL d   1     -50.366  12.778  22.244  0.00  0.00    -0.074 SA
ATOM     12  C   UNL d   1     -50.941  12.516  21.713  0.00  0.00     0.077 C 
ENDBRANCH  10  11
ENDBRANCH   2   3
ENDBRANCH   1   2
BRANCH   1  13
ATOM     13  C   UNL d   1     -47.740  13.009  23.176  0.00  0.00     0.327 C 
ATOM     14  O   UNL d   1     -47.884  12.386  23.698  0.00  0.00    -0.256 OA
BRANCH  13  15
ATOM     15  C   UNL d   1     -46.973  13.157  22.911  0.00  0.00     0.191 C 
BRANCH  15  16
ATOM     16  O   UNL d   1     -46.376  12.611  23.051  0.00  0.00    -0.299 OA
BRANCH  16  17
ATOM     17  C   UNL d   1     -45.657  12.672  22.651  0.00  0.00     0.111 A 
ATOM     18  C   UNL d   1     -45.098  12.079  22.716  0.00  0.00     0.081 A 
ATOM     19  C   UNL d   1     -44.379  12.139  22.316  0.00  0.00     0.025 A 
ATOM     20 CL   UNL d   1     -45.261  11.408  23.192  0.00  0.00    -0.080 Cl
ATOM     21  C   UNL d   1     -44.219  12.792  21.851  0.00  0.00     0.059 A 
ATOM     22  C   UNL d   1     -44.781  13.393  21.783  0.00  0.00     0.013 A 
ATOM     23 CL   UNL d   1     -43.499  12.848  21.453  0.00  0.00    -0.082 Cl
ATOM     24  C   UNL d   1     -45.500  13.333  22.183  0.00  0.00     0.026 A 
ENDBRANCH  16  17
ENDBRANCH  15  16
ENDBRANCH  13  15
ENDBRANCH   1  13
TORSDOF 7
ENDMDL
MODEL 7
REMARK VINA RESULT:      -5.0      8.981      9.845
REMARK  7 active torsions:
REMARK  status: ('A' for Active; 'I' for Inactive)
REMARK    1  A    between atoms: C_7  and  N_1 
REMARK    2  A    between atoms: S_15  and  C_3 
REMARK    3  A    between atoms: O_8  and  C_7 
REMARK    4  A    between atoms: C_10  and  O_8 
REMARK    5  A    between atoms: C_19  and  C_10 
REMARK    6  A    between atoms: C_13  and  O_14 
REMARK    7  A    between atoms: O_14  and  C_19 
ROOT
ATOM      1  O   UNL d   1     -39.209  14.268  18.499  0.00  0.00    -0.251 OA
ENDROOT
BRANCH   1   2
ATOM      2  C   UNL d   1     -39.324  14.140  17.692  0.00  0.00     0.215 C 
BRANCH   2   3
ATOM      3  N   UNL d   1     -39.648  14.736  17.217  0.00  0.00    -0.229 N 
ATOM      4  C   UNL d   1     -40.456  14.900  17.261  0.00  0.00     0.287 A 
ATOM      5  C   UNL d   1     -40.783  15.493  16.789  0.00  0.00     0.159 A 
ATOM      6  O   UNL d   1     -40.937  14.471  17.776  0.00  0.00    -0.265 OA
ATOM      7  C   UNL d   1     -41.598  15.651  16.841  0.00  0.00     0.028 C 
ATOM      8  N   UNL d   1     -40.302  15.922  16.273  0.00  0.00    -0.141 NA
ATOM      9  N   UNL d   1     -39.495  15.757  16.230  0.00  0.00    -0.123 NA
ATOM     10  C   UNL d   1     -39.167  15.164  16.702  0.00  0.00     0.200 A 
BRANCH  10  11
ATOM     11  S   UNL d   1     -38.360  15.000  16.658  0.00  0.00    -0.074 SA
ATOM     12  C   UNL d   1     -37.960  15.084  15.942  0.00  0.00     0.077 C 
ENDBRANCH  10  11
ENDBRANCH   2   3
ENDBRANCH   1   2
BRANCH   1  13
ATOM     13  C   UNL d   1     -38.823  13.700  18.956  0.00  0.00     0.327 C 
ATOM     14  O   UNL d   1     -38.655  12.957  18.636  0.00  0.00    -0.256 OA
BRANCH  13  15
ATOM     15  C   UNL d   1     -38.605  13.873  19.733  0.00  0.00     0.191 C 
BRANCH  15  16
ATOM     16  O   UNL d   1     -39.177  13.927  20.319  0.00  0.00    -0.299 OA
BRANCH  16  17
ATOM     17  C   UNL d   1     -38.956  13.925  21.114  0.00  0.00     0.111 A 
ATOM     18  C   UNL d   1     -39.522  13.998  21.700  0.00  0.00     0.081 A 
ATOM     19  C   UNL d   1     -39.302  13.996  22.495  0.00  0.00     0.025 A 
ATOM     20 CL   UNL d   1     -40.330  14.073  21.486  0.00  0.00    -0.080 Cl
ATOM     21  C   UNL d   1     -38.515  13.922  22.704  0.00  0.00     0.059 A 
ATOM     22  C   UNL d   1     -37.940  13.849  22.117  0.00  0.00     0.013 A 
ATOM     23 CL   UNL d   1     -38.299  13.921  23.500  0.00  0.00    -0.082 Cl
ATOM     24  C   UNL d   1     -38.160  13.851  21.322  0.00  0.00     0.026 A 
ENDBRANCH  16  17
ENDBRANCH  15  16
ENDBRANCH  13  15
ENDBRANCH   1  13
TORSDOF 7
ENDMDL
MODEL 8
REMARK VINA RESULT:      -4.2      8.695     10.363
REMARK  7 active torsions:
REMARK  status: ('A' for Active; 'I' for Inactive)
REMARK    1  A    between atoms: C_7  and  N_1 
REMARK    2  A    between atoms: S_15  and  C_3 
REMARK    3  A    between atoms: O_8  and  C_7 
REMARK    4  A    between atoms: C_10  and  O_8 
REMARK    5  A    between atoms: C_19  and  C_10 
REMARK    6  A    between atoms: C_13  and  O_14 
REMARK    7  A    between atoms: O_14  and  C_19 
ROOT
ATOM      1  O   UNL d   1     -38.754  14.747  19.690  0.00  0.00    -0.251 OA
ENDROOT
BRANCH   1   2
ATOM      2  C   UNL d   1     -38.883  15.082  20.433  0.00  0.00     0.215 C 
BRANCH   2   3
ATOM      3  N   UNL d   1     -39.233  14.636  21.036  0.00  0.00    -0.229 N 
ATOM      4  C   UNL d   1     -38.759  14.183  21.538  0.00  0.00     0.287 A 
ATOM      5  C   UNL d   1     -39.104  13.737  22.140  0.00  0.00     0.159 A 
ATOM      6  O   UNL d   1     -37.940  14.175  21.436  0.00  0.00    -0.265 OA
ATOM      7  C   UNL d   1     -38.617  13.283  22.640  0.00  0.00     0.028 C 
ATOM      8  N   UNL d   1     -39.923  13.744  22.242  0.00  0.00    -0.141 NA
ATOM      9  N   UNL d   1     -40.396  14.198  21.741  0.00  0.00    -0.123 NA
ATOM     10  C   UNL d   1     -40.052  14.644  21.138  0.00  0.00     0.200 A 
BRANCH  10  11
ATOM     11  S   UNL d   1     -40.525  15.098  20.637  0.00  0.00    -0.074 SA
ATOM     12  C   UNL d   1     -41.313  15.241  20.833  0.00  0.00     0.077 C 
ENDBRANCH  10  11
ENDBRANCH   2   3
ENDBRANCH   1   2
BRANCH   1  13
ATOM     13  C   UNL d   1     -38.297  15.147  19.131  0.00  0.00     0.327 C 
ATOM     14  O   UNL d   1     -38.003  15.900  19.300  0.00  0.00    -0.256 OA
BRANCH  13  15
ATOM     15  C   UNL d   1     -38.133  14.794  18.403  0.00  0.00     0.191 C 
BRANCH  15  16
ATOM     16  O   UNL d   1     -38.655  14.881  17.776  0.00  0.00    -0.299 OA
BRANCH  16  17
ATOM     17  C   UNL d   1     -38.487  14.535  17.046  0.00  0.00     0.111 A 
ATOM     18  C   UNL d   1     -38.694  14.915  16.352  0.00  0.00     0.081 A 
ATOM     19  C   UNL d   1     -38.526  14.569  15.622  0.00  0.00     0.025 A 
ATOM     20 CL   UNL d   1     -39.079  15.659  16.388  0.00  0.00    -0.080 Cl
ATOM     21  C   UNL d   1     -38.151  13.844  15.586  0.00  0.00     0.059 A 
ATOM     22  C   UNL d   1     -37.940  13.456  16.284  0.00  0.00     0.013 A 
ATOM     23 CL   UNL d   1     -37.985  13.502  14.854  0.00  0.00    -0.082 Cl
ATOM     24  C   UNL d   1     -38.108  13.802  17.014  0.00  0.00     0.026 A 
ENDBRANCH  16  17
ENDBRANCH  15  16
ENDBRANCH  13  15
ENDBRANCH   1  13
TORSDOF 7
ENDMDL
MODEL 9
REMARK VINA RESULT:      -3.4      5.201      7.101
REMARK  7 active torsions:
REMARK  status: ('A' for Active; 'I' for Inactive)
REMARK    1  A    between atoms: C_7  and  N_1 
REMARK    2  A    between atoms: S_15  and  C_3 
REMARK    3  A    between atoms: O_8  and  C_7 
REMARK    4  A    between atoms: C_10  and  O_8 
REMARK    5  A    between atoms: C_19  and  C_10 
REMARK    6  A    between atoms: C_13  and  O_14 
REMARK    7  A    between atoms: O_14  and  C_19 
ROOT
ATOM      1  O   UNL d   1     -42.110  13.632  21.294  0.00  0.00    -0.251 OA
ENDROOT
BRANCH   1   2
ATOM      2  C   UNL d   1     -41.534  13.825  20.736  0.00  0.00     0.215 C 
BRANCH   2   3
ATOM      3  N   UNL d   1     -40.891  14.301  20.947  0.00  0.00    -0.229 N 
ATOM      4  C   UNL d   1     -40.359  14.039  21.522  0.00  0.00     0.287 A 
ATOM      5  C   UNL d   1     -39.716  14.511  21.735  0.00  0.00     0.159 A 
ATOM      6  O   UNL d   1     -40.469  13.305  21.883  0.00  0.00    -0.265 OA
ATOM      7  C   UNL d   1     -39.186  14.238  22.315  0.00  0.00     0.028 C 
ATOM      8  N   UNL d   1     -39.606  15.245  21.374  0.00  0.00    -0.141 NA
ATOM      9  N   UNL d   1     -40.138  15.506  20.800  0.00  0.00    -0.123 NA
ATOM     10  C   UNL d   1     -40.780  15.034  20.586  0.00  0.00     0.200 A 
BRANCH  10  11
ATOM     11  S   UNL d   1     -41.312  15.295  20.012  0.00  0.00    -0.074 SA
ATOM     12  C   UNL d   1     -41.107  15.920  19.514  0.00  0.00     0.077 C 
ENDBRANCH  10  11
ENDBRANCH   2   3
ENDBRANCH   1   2
BRANCH   1  13
ATOM     13  C   UNL d   1     -42.754  13.162  21.078  0.00  0.00     0.327 C 
ATOM     14  O   UNL d   1     -42.665  12.582  20.497  0.00  0.00    -0.256 OA
BRANCH  13  15
ATOM     15  C   UNL d   1     -43.485  13.272  21.443  0.00  0.00     0.191 C 
BRANCH  15  16
ATOM     16  O   UNL d   1     -43.849  12.648  21.833  0.00  0.00    -0.299 OA
BRANCH  16  17
ATOM     17  C   UNL d   1     -44.610  12.738  22.138  0.00  0.00     0.111 A 
ATOM     18  C   UNL d   1     -44.922  12.175  22.643  0.00  0.00     0.081 A 
ATOM     19  C   UNL d   1     -45.684  12.264  22.948  0.00  0.00     0.025 A 
ATOM     20 CL   UNL d   1     -44.462  11.504  22.848  0.00  0.00    -0.080 Cl
ATOM     21  C   UNL d   1     -46.133  12.918  22.749  0.00  0.00     0.059 A 
ATOM     22  C   UNL d   1     -45.823  13.489  22.240  0.00  0.00     0.013 A 
ATOM     23 CL   UNL d   1     -46.894  13.003  23.056  0.00  0.00    -0.082 Cl
ATOM     24  C   UNL d   1     -45.061  13.399  21.935  0.00  0.00     0.026 A 
ENDBRANCH  16  17
ENDBRANCH  15  16
ENDBRANCH  13  15
ENDBRANCH   1  13
TORSDOF 7
ENDMDL
