MODEL 1
REMARK VINA RESULT:      -0.3      0.000      0.000
REMARK  5 active torsions:
REMARK  status: ('A' for Active; 'I' for Inactive)
REMARK    1  A    between atoms: N_6  and  C_1 
REMARK    2  A    between atoms: C_8  and  C_2 
REMARK    3  A    between atoms: C_10  and  C_3 
REMARK       I    between atoms: C_7  and  N_6 
REMARK    4  A    between atoms: C_18  and  C_7 
REMARK    5  A    between atoms: C_17  and  C_10 
ROOT
ATOM      1  C   UNL d   1      31.175  17.135 -24.300  0.00  0.00     0.119 A 
ATOM      2  C   UNL d   1      31.867  16.714 -24.432  0.00  0.00     0.084 A 
ATOM      3  C   UNL d   1      32.120  18.012 -24.652  0.00  0.00     0.031 A 
ATOM      4  S   UNL d   1      31.322  17.939 -24.433  0.00  0.00    -0.068 SA
ATOM      5  C   UNL d   1      32.453  17.258 -24.650  0.00  0.00     0.013 A 
ATOM      6  C   UNL d   1      33.241  17.083 -24.837  0.00  0.00     0.001 C 
ENDROOT
BRANCH   3   7
ATOM      7  C   UNL d   1      32.584  18.676 -24.852  0.00  0.00     0.007 C 
BRANCH   7   8
ATOM      8  C   UNL d   1      32.644  19.312 -24.319  0.00  0.00     0.003 A 
ATOM      9  C   UNL d   1      32.925  19.177 -23.549  0.00  0.00     0.026 A 
ATOM     10  C   UNL d   1      32.987  19.800 -23.016  0.00  0.00     0.119 A 
ATOM     11  O   UNL d   1      33.241  19.831 -22.238  0.00  0.00    -0.300 OA
ATOM     12  C   UNL d   1      32.770  20.563 -23.245  0.00  0.00     0.119 A 
ATOM     13  C   UNL d   1      33.183  20.608 -21.981  0.00  0.00     0.304 A 
ATOM     14  O   UNL d   1      32.891  21.059 -22.606  0.00  0.00    -0.300 OA
ATOM     15  C   UNL d   1      32.491  20.701 -24.006  0.00  0.00     0.026 A 
ATOM     16  C   UNL d   1      32.427  20.075 -24.547  0.00  0.00     0.002 A 
ENDBRANCH   7   8
ENDBRANCH   3   7
BRANCH   1  17
ATOM     17  N   UNL d   1      30.438  16.805 -24.067  0.00  0.00    -0.201 NA
ATOM     18  C   UNL d   1      29.728  17.212 -24.230  0.00  0.00     0.280 C 
ATOM     19  O   UNL d   1      29.744  17.939 -24.620  0.00  0.00    -0.265 OA
BRANCH  18  20
ATOM     20  C   UNL d   1      29.004  16.881 -23.998  0.00  0.00     0.058 A 
ATOM     21  C   UNL d   1      28.745  16.169 -24.323  0.00  0.00     0.005 A 
ATOM     22  C   UNL d   1      28.028  15.839 -24.095  0.00  0.00     0.000 A 
ATOM     23  C   UNL d   1      27.555  16.221 -23.533  0.00  0.00     0.000 A 
ATOM     24  C   UNL d   1      27.819  16.937 -23.208  0.00  0.00     0.000 A 
ATOM     25  C   UNL d   1      28.535  17.263 -23.438  0.00  0.00     0.005 A 
ENDBRANCH  18  20
ENDBRANCH   1  17
BRANCH   2  26
ATOM     26  C   UNL d   1      31.975  15.898 -24.364  0.00  0.00     0.299 C 
ATOM     27  O   UNL d   1      32.019  15.536 -23.554  0.00  0.00    -0.264 OA
ATOM     28  N   UNL d   1      32.036  15.453 -24.985  0.00  0.00    -0.102 N 
ENDBRANCH   2  26
TORSDOF 5
ENDMDL
MODEL 2
REMARK VINA RESULT:      -0.0      2.052      5.107
REMARK  5 active torsions:
REMARK  status: ('A' for Active; 'I' for Inactive)
REMARK    1  A    between atoms: N_6  and  C_1 
REMARK    2  A    between atoms: C_8  and  C_2 
REMARK    3  A    between atoms: C_10  and  C_3 
REMARK       I    between atoms: C_7  and  N_6 
REMARK    4  A    between atoms: C_18  and  C_7 
REMARK    5  A    between atoms: C_17  and  C_10 
ROOT
ATOM      1  C   UNL d   1      33.196  20.353 -22.921  0.00  0.00     0.119 A 
ATOM      2  C   UNL d   1      33.211  20.602 -23.703  0.00  0.00     0.084 A 
ATOM      3  C   UNL d   1      33.217  19.262 -23.693  0.00  0.00     0.031 A 
ATOM      4  S   UNL d   1      33.199  19.525 -22.906  0.00  0.00    -0.068 SA
ATOM      5  C   UNL d   1      33.224  19.926 -24.182  0.00  0.00     0.013 A 
ATOM      6  C   UNL d   1      33.241  19.910 -25.010  0.00  0.00     0.001 C 
ENDROOT
BRANCH   3   7
ATOM      7  C   UNL d   1      33.227  18.497 -24.024  0.00  0.00     0.007 C 
BRANCH   7   8
ATOM      8  C   UNL d   1      32.613  17.963 -23.846  0.00  0.00     0.003 A 
ATOM      9  C   UNL d   1      31.892  18.016 -24.256  0.00  0.00     0.026 A 
ATOM     10  C   UNL d   1      31.281  17.492 -24.086  0.00  0.00     0.119 A 
ATOM     11  O   UNL d   1      30.526  17.415 -24.394  0.00  0.00    -0.300 OA
ATOM     12  C   UNL d   1      31.382  16.912 -23.508  0.00  0.00     0.119 A 
ATOM     13  C   UNL d   1      30.157  16.791 -24.011  0.00  0.00     0.304 A 
ATOM     14  O   UNL d   1      30.688  16.481 -23.463  0.00  0.00    -0.300 OA
ATOM     15  C   UNL d   1      32.094  16.857 -23.100  0.00  0.00     0.026 A 
ATOM     16  C   UNL d   1      32.714  17.383 -23.268  0.00  0.00     0.002 A 
ENDBRANCH   7   8
ENDBRANCH   3   7
BRANCH   1  17
ATOM     17  N   UNL d   1      33.180  20.855 -22.247  0.00  0.00    -0.201 NA
ATOM     18  C   UNL d   1      32.688  20.669 -21.600  0.00  0.00     0.280 C 
ATOM     19  O   UNL d   1      32.214  19.994 -21.616  0.00  0.00    -0.265 OA
BRANCH  18  20
ATOM     20  C   UNL d   1      32.676  21.168 -20.938  0.00  0.00     0.058 A 
ATOM     21  C   UNL d   1      33.241  21.087 -20.342  0.00  0.00     0.005 A 
ATOM     22  C   UNL d   1      33.232  21.580 -19.685  0.00  0.00     0.000 A 
ATOM     23  C   UNL d   1      32.652  22.167 -19.614  0.00  0.00     0.000 A 
ATOM     24  C   UNL d   1      32.086  22.245 -20.215  0.00  0.00     0.000 A 
ATOM     25  C   UNL d   1      32.098  21.752 -20.869  0.00  0.00     0.005 A 
ENDBRANCH  18  20
ENDBRANCH   1  17
BRANCH   2  26
ATOM     26  C   UNL d   1      33.213  21.382 -23.978  0.00  0.00     0.299 C 
ATOM     27  O   UNL d   1      33.193  22.046 -23.388  0.00  0.00    -0.264 OA
ATOM     28  N   UNL d   1      33.233  21.538 -24.728  0.00  0.00    -0.102 N 
ENDBRANCH   2  26
TORSDOF 5
ENDMDL
MODEL 3
REMARK VINA RESULT:       2.0      3.336      6.030
REMARK  5 active torsions:
REMARK  status: ('A' for Active; 'I' for Inactive)
REMARK    1  A    between atoms: N_6  and  C_1 
REMARK    2  A    between atoms: C_8  and  C_2 
REMARK    3  A    between atoms: C_10  and  C_3 
REMARK       I    between atoms: C_7  and  N_6 
REMARK    4  A    between atoms: C_18  and  C_7 
REMARK    5  A    between atoms: C_17  and  C_10 
ROOT
ATOM      1  C   UNL d   1      32.991  21.957 -21.867  0.00  0.00     0.119 A 
ATOM      2  C   UNL d   1      32.852  22.384 -22.554  0.00  0.00     0.084 A 
ATOM      3  C   UNL d   1      33.006  21.096 -22.889  0.00  0.00     0.031 A 
ATOM      4  S   UNL d   1      33.087  21.159 -22.065  0.00  0.00    -0.068 SA
ATOM      5  C   UNL d   1      32.862  21.850 -23.188  0.00  0.00     0.013 A 
ATOM      6  C   UNL d   1      32.747  22.035 -23.987  0.00  0.00     0.001 C 
ENDROOT
BRANCH   3   7
ATOM      7  C   UNL d   1      33.046  20.441 -23.404  0.00  0.00     0.007 C 
BRANCH   7   8
ATOM      8  C   UNL d   1      33.032  19.669 -23.091  0.00  0.00     0.003 A 
ATOM      9  C   UNL d   1      32.809  19.034 -23.577  0.00  0.00     0.026 A 
ATOM     10  C   UNL d   1      32.792  18.269 -23.276  0.00  0.00     0.119 A 
ATOM     11  O   UNL d   1      32.598  17.550 -23.618  0.00  0.00    -0.300 OA
ATOM     12  C   UNL d   1      32.996  18.130 -22.489  0.00  0.00     0.119 A 
ATOM     13  C   UNL d   1      32.682  16.966 -23.049  0.00  0.00     0.304 A 
ATOM     14  O   UNL d   1      32.928  17.327 -22.350  0.00  0.00    -0.300 OA
ATOM     15  C   UNL d   1      33.218  18.757 -22.004  0.00  0.00     0.026 A 
ATOM     16  C   UNL d   1      33.236  19.531 -22.304  0.00  0.00     0.002 A 
ENDBRANCH   7   8
ENDBRANCH   3   7
BRANCH   1  17
ATOM     17  N   UNL d   1      33.029  22.277 -21.091  0.00  0.00    -0.201 NA
ATOM     18  C   UNL d   1      32.489  22.022 -20.508  0.00  0.00     0.280 C 
ATOM     19  O   UNL d   1      31.916  21.457 -20.688  0.00  0.00    -0.265 OA
BRANCH  18  20
ATOM     20  C   UNL d   1      32.532  22.341 -19.744  0.00  0.00     0.058 A 
ATOM     21  C   UNL d   1      31.969  22.886 -19.484  0.00  0.00     0.005 A 
ATOM     22  C   UNL d   1      32.009  23.203 -18.728  0.00  0.00     0.000 A 
ATOM     23  C   UNL d   1      32.619  22.978 -18.215  0.00  0.00     0.000 A 
ATOM     24  C   UNL d   1      33.183  22.431 -18.479  0.00  0.00     0.000 A 
ATOM     25  C   UNL d   1      33.140  22.116 -19.235  0.00  0.00     0.005 A 
ENDBRANCH  18  20
ENDBRANCH   1  17
BRANCH   2  26
ATOM     26  C   UNL d   1      32.725  23.199 -22.618  0.00  0.00     0.299 C 
ATOM     27  O   UNL d   1      31.978  23.488 -23.000  0.00  0.00    -0.264 OA
ATOM     28  N   UNL d   1      33.239  23.702 -22.353  0.00  0.00    -0.102 N 
ENDBRANCH   2  26
TORSDOF 5
ENDMDL
MODEL 4
REMARK VINA RESULT:       2.3      2.841      4.696
REMARK  5 active torsions:
REMARK  status: ('A' for Active; 'I' for Inactive)
REMARK    1  A    between atoms: N_6  and  C_1 
REMARK    2  A    between atoms: C_8  and  C_2 
REMARK    3  A    between atoms: C_10  and  C_3 
REMARK       I    between atoms: C_7  and  N_6 
REMARK    4  A    between atoms: C_18  and  C_7 
REMARK    5  A    between atoms: C_17  and  C_10 
ROOT
ATOM      1  C   UNL d   1      33.016  20.824 -23.205  0.00  0.00     0.119 A 
ATOM      2  C   UNL d   1      32.867  21.415 -23.755  0.00  0.00     0.084 A 
ATOM      3  C   UNL d   1      33.132  22.000 -22.580  0.00  0.00     0.031 A 
ATOM      4  S   UNL d   1      33.182  21.177 -22.474  0.00  0.00    -0.068 SA
ATOM      5  C   UNL d   1      32.939  22.143 -23.368  0.00  0.00     0.013 A 
ATOM      6  C   UNL d   1      32.835  22.893 -23.706  0.00  0.00     0.001 C 
ENDROOT
BRANCH   3   7
ATOM      7  C   UNL d   1      33.241  22.636 -22.051  0.00  0.00     0.007 C 
BRANCH   7   8
ATOM      8  C   UNL d   1      32.852  22.631 -21.315  0.00  0.00     0.003 A 
ATOM      9  C   UNL d   1      33.240  22.930 -20.644  0.00  0.00     0.026 A 
ATOM     10  C   UNL d   1      32.862  22.928 -19.913  0.00  0.00     0.119 A 
ATOM     11  O   UNL d   1      33.104  23.182 -19.172  0.00  0.00    -0.300 OA
ATOM     12  C   UNL d   1      32.097  22.629 -19.844  0.00  0.00     0.119 A 
ATOM     13  C   UNL d   1      32.493  23.042 -18.643  0.00  0.00     0.304 A 
ATOM     14  O   UNL d   1      31.870  22.700 -19.061  0.00  0.00    -0.300 OA
ATOM     15  C   UNL d   1      31.709  22.332 -20.505  0.00  0.00     0.026 A 
ATOM     16  C   UNL d   1      32.086  22.332 -21.245  0.00  0.00     0.002 A 
ENDBRANCH   7   8
ENDBRANCH   3   7
BRANCH   1  17
ATOM     17  N   UNL d   1      33.004  19.998 -23.357  0.00  0.00    -0.201 NA
ATOM     18  C   UNL d   1      32.740  19.469 -22.769  0.00  0.00     0.280 C 
ATOM     19  O   UNL d   1      32.490  19.752 -22.035  0.00  0.00    -0.265 OA
BRANCH  18  20
ATOM     20  C   UNL d   1      32.730  18.655 -22.925  0.00  0.00     0.058 A 
ATOM     21  C   UNL d   1      32.211  18.342 -23.485  0.00  0.00     0.005 A 
ATOM     22  C   UNL d   1      32.199  17.535 -23.642  0.00  0.00     0.000 A 
ATOM     23  C   UNL d   1      32.711  17.026 -23.237  0.00  0.00     0.000 A 
ATOM     24  C   UNL d   1      33.231  17.345 -22.675  0.00  0.00     0.000 A 
ATOM     25  C   UNL d   1      33.241  18.150 -22.521  0.00  0.00     0.005 A 
ENDBRANCH  18  20
ENDBRANCH   1  17
BRANCH   2  26
ATOM     26  C   UNL d   1      32.678  21.315 -24.554  0.00  0.00     0.299 C 
ATOM     27  O   UNL d   1      31.832  21.167 -24.780  0.00  0.00    -0.264 OA
ATOM     28  N   UNL d   1      33.218  21.350 -25.097  0.00  0.00    -0.102 N 
ENDBRANCH   2  26
TORSDOF 5
ENDMDL
