MODEL 1
REMARK VINA RESULT:      -0.0      0.000      0.000
REMARK  1 active torsions:
REMARK  status: ('A' for Active; 'I' for Inactive)
REMARK    1  A    between atoms: C_2  and  N_1 
ROOT
ATOM      1  C   UNL d   1     -41.937-123.417 -52.220  0.00  0.00     0.153 A 
ATOM      2  C   UNL d   1     -41.692-122.640 -52.160  0.00  0.00     0.059 A 
ATOM      3  C   UNL d   1     -41.533-122.194 -52.879  0.00  0.00     0.115 A 
ATOM      4  S   UNL d   1     -41.300-121.438 -52.631  0.00  0.00    -0.068 SA
ATOM      5  C   UNL d   1     -41.550-122.146 -51.522  0.00  0.00     0.011 A 
ATOM      6  C   UNL d   1     -41.310-121.410 -51.807  0.00  0.00     0.031 A 
ATOM      7  N   UNL d   1     -42.043-123.805 -52.964  0.00  0.00    -0.206 NA
ATOM      8  N   UNL d   1     -41.627-122.541 -53.614  0.00  0.00    -0.217 NA
ATOM      9  C   UNL d   1     -41.880-123.346 -53.693  0.00  0.00     0.201 A 
ATOM     10  C   UNL d   1     -41.605-122.261 -50.703  0.00  0.00     0.001 A 
ATOM     11  C   UNL d   1     -41.123-120.782 -51.282  0.00  0.00     0.006 A 
ATOM     12  C   UNL d   1     -41.421-121.640 -50.142  0.00  0.00     0.000 A 
ATOM     13  C   UNL d   1     -41.186-120.923 -50.462  0.00  0.00     0.001 A 
ENDROOT
BRANCH   1  14
ATOM     14  N   UNL d   1     -41.975-123.477 -51.400  0.00  0.00    -0.273 N 
ATOM     15  C   UNL d   1     -41.182-123.723 -51.209  0.00  0.00     0.184 A 
ATOM     16  N   UNL d   1     -41.123-123.810 -50.399  0.00  0.00    -0.224 NA
ATOM     17  C   UNL d   1     -41.848-123.628 -50.075  0.00  0.00     0.099 A 
ATOM     18  C   UNL d   1     -42.408-123.414 -50.683  0.00  0.00     0.085 A 
ATOM     19  C   UNL d   1     -42.107-123.620 -49.297  0.00  0.00     0.021 A 
ATOM     20  C   UNL d   1     -43.168-123.209 -50.501  0.00  0.00     0.019 A 
ATOM     21  C   UNL d   1     -43.409-123.208 -49.710  0.00  0.00     0.002 A 
ATOM     22  C   UNL d   1     -42.877-123.412 -49.127  0.00  0.00     0.002 A 
ENDBRANCH   1  14
TORSDOF 1
ENDMDL
MODEL 2
REMARK VINA RESULT:       2.7      1.718      2.854
REMARK  1 active torsions:
REMARK  status: ('A' for Active; 'I' for Inactive)
REMARK    1  A    between atoms: C_2  and  N_1 
ROOT
ATOM      1  C   UNL d   1     -41.501-122.055 -49.925  0.00  0.00     0.153 A 
ATOM      2  C   UNL d   1     -42.268-122.311 -50.040  0.00  0.00     0.059 A 
ATOM      3  C   UNL d   1     -42.715-122.011 -50.712  0.00  0.00     0.115 A 
ATOM      4  S   UNL d   1     -43.459-122.373 -50.671  0.00  0.00    -0.068 SA
ATOM      5  C   UNL d   1     -42.752-122.832 -49.630  0.00  0.00     0.011 A 
ATOM      6  C   UNL d   1     -43.481-122.871 -50.014  0.00  0.00     0.031 A 
ATOM      7  N   UNL d   1     -41.124-121.502 -50.442  0.00  0.00    -0.206 NA
ATOM      8  N   UNL d   1     -42.378-121.475 -51.230  0.00  0.00    -0.217 NA
ATOM      9  C   UNL d   1     -41.583-121.199 -51.125  0.00  0.00     0.201 A 
ATOM     10  C   UNL d   1     -42.631-123.286 -48.947  0.00  0.00     0.001 A 
ATOM     11  C   UNL d   1     -44.097-123.362 -49.723  0.00  0.00     0.006 A 
ATOM     12  C   UNL d   1     -43.240-123.795 -48.627  0.00  0.00     0.000 A 
ATOM     13  C   UNL d   1     -43.951-123.809 -49.034  0.00  0.00     0.001 A 
ENDROOT
BRANCH   1  14
ATOM     14  N   UNL d   1     -41.436-122.525 -49.253  0.00  0.00    -0.273 N 
ATOM     15  C   UNL d   1     -41.212-123.276 -49.590  0.00  0.00     0.184 A 
ATOM     16  N   UNL d   1     -41.123-123.817 -48.986  0.00  0.00    -0.224 NA
ATOM     17  C   UNL d   1     -41.281-123.436 -48.284  0.00  0.00     0.099 A 
ATOM     18  C   UNL d   1     -41.482-122.617 -48.420  0.00  0.00     0.085 A 
ATOM     19  C   UNL d   1     -41.276-123.705 -47.508  0.00  0.00     0.021 A 
ATOM     20  C   UNL d   1     -41.662-122.121 -47.808  0.00  0.00     0.019 A 
ATOM     21  C   UNL d   1     -41.652-122.412 -47.034  0.00  0.00     0.002 A 
ATOM     22  C   UNL d   1     -41.461-123.193 -46.900  0.00  0.00     0.002 A 
ENDBRANCH   1  14
TORSDOF 1
ENDMDL
