MODEL 1
REMARK VINA RESULT:      65.9      0.000      0.000
REMARK  11 active torsions:
REMARK  status: ('A' for Active; 'I' for Inactive)
REMARK    1  A    between atoms: C_8  and  S_1 
REMARK    2  A    between atoms: N_19  and  S_1 
REMARK    3  A    between atoms: S_2  and  C_9 
REMARK    4  A    between atoms: N_20  and  S_2 
REMARK    5  A    between atoms: N_14  and  C_5 
REMARK    6  A    between atoms: C_24  and  N_19 
REMARK    7  A    between atoms: C_25  and  N_20 
REMARK    8  A    between atoms: C_29  and  C_24 
REMARK    9  A    between atoms: C_28  and  C_25 
REMARK   10  A    between atoms: O_26  and  C_29 
REMARK   11  A    between atoms: O_27  and  C_28 
ROOT
ATOM      1  C   UNL d   1     -49.085  28.008  35.397  0.00  0.00     0.021 A 
ATOM      2  C   UNL d   1     -49.811  27.146  34.849  0.00  0.00     0.021 A 
ATOM      3  C   UNL d   1     -49.594  27.377  35.528  0.00  0.00     0.111 A 
ATOM      4  C   UNL d   1     -49.019  28.128  34.579  0.00  0.00     0.002 A 
ATOM      5  C   UNL d   1     -49.495  27.564  34.206  0.00  0.00     0.002 A 
ATOM      6  C   UNL d   1     -48.191  29.092  35.616  0.00  0.00     0.105 A 
ATOM      7  C   UNL d   1     -50.531  26.307  33.957  0.00  0.00     0.105 A 
ATOM      8  C   UNL d   1     -50.329  26.517  34.721  0.00  0.00     0.015 A 
ATOM      9  C   UNL d   1     -48.669  28.492  35.911  0.00  0.00     0.015 A 
ATOM     10  C   UNL d   1     -49.702  27.348  33.437  0.00  0.00     0.001 A 
ATOM     11  C   UNL d   1     -48.541  28.729  34.282  0.00  0.00     0.001 A 
ATOM     12  C   UNL d   1     -50.220  26.720  33.306  0.00  0.00     0.013 A 
ATOM     13  C   UNL d   1     -48.129  29.207  34.812  0.00  0.00     0.013 A 
ENDROOT
BRANCH   6  14
ATOM     14  S   UNL d   1     -47.715  29.657  35.990  0.00  0.00     0.285 S 
ATOM     15  O   UNL d   1     -47.234  29.702  35.318  0.00  0.00    -0.198 OA
ATOM     16  O   UNL d   1     -48.199  29.605  36.654  0.00  0.00    -0.198 OA
BRANCH  14  17
ATOM     17  N   UNL d   1     -47.068  30.167  35.985  0.00  0.00    -0.155 NA
BRANCH  17  18
ATOM     18  C   UNL d   1     -47.180  30.977  36.084  0.00  0.00     0.138 C 
BRANCH  18  19
ATOM     19  C   UNL d   1     -46.814  31.521  35.574  0.00  0.00     0.138 C 
BRANCH  19  20
ATOM     20  O   UNL d   1     -47.165  32.240  35.409  0.00  0.00    -0.325 OA
ATOM     21  C   UNL d   1     -47.533  32.371  34.680  0.00  0.00     0.182 C 
ENDBRANCH  19  20
ENDBRANCH  18  19
ENDBRANCH  17  18
ENDBRANCH  14  17
ENDBRANCH   6  14
BRANCH   3  22
ATOM     22  N   UNL d   1     -49.813  27.073  36.266  0.00  0.00    -0.096 NA
ATOM     23  O   UNL d   1     -50.620  26.961  36.434  0.00  0.00    -0.061 OA
ENDBRANCH   3  22
BRANCH   7  24
ATOM     24  S   UNL d   1     -51.007  25.742  33.583  0.00  0.00     0.285 S 
ATOM     25  O   UNL d   1     -51.591  26.315  33.463  0.00  0.00    -0.198 OA
ATOM     26  O   UNL d   1     -50.422  25.170  33.704  0.00  0.00    -0.198 OA
BRANCH  24  27
ATOM     27  N   UNL d   1     -51.125  24.969  33.321  0.00  0.00    -0.155 NA
BRANCH  27  28
ATOM     28  C   UNL d   1     -51.637  24.470  33.733  0.00  0.00     0.138 C 
BRANCH  28  29
ATOM     29  C   UNL d   1     -51.899  23.770  33.382  0.00  0.00     0.138 C 
BRANCH  29  30
ATOM     30  O   UNL d   1     -52.714  23.610  33.326  0.00  0.00    -0.325 OA
ATOM     31  C   UNL d   1     -53.181  23.643  33.996  0.00  0.00     0.182 C 
ENDBRANCH  29  30
ENDBRANCH  28  29
ENDBRANCH  27  28
ENDBRANCH  24  27
ENDBRANCH   7  24
TORSDOF 11
ENDMDL
