MODEL 1
REMARK VINA RESULT:      -4.3      0.000      0.000
REMARK  3 active torsions:
REMARK  status: ('A' for Active; 'I' for Inactive)
REMARK    1  A    between atoms: S_11  and  C_4 
REMARK    2  A    between atoms: C_14  and  S_11 
REMARK    3  A    between atoms: O_15  and  C_12 
ROOT
ATOM      1  N   UNL d   1     -42.715-123.581 -47.999  0.00  0.00    -0.195 NA
ATOM      2  C   UNL d   1     -42.566-123.536 -48.814  0.00  0.00     0.086 C 
ATOM      3  C   UNL d   1     -42.428-123.492 -49.635  0.00  0.00     0.168 C 
ENDROOT
BRANCH   3   4
ATOM      4  S   UNL d   1     -41.640-123.415 -49.932  0.00  0.00    -0.078 SA
BRANCH   4   5
ATOM      5  C   UNL d   1     -41.512-123.069 -50.699  0.00  0.00     0.108 A 
ATOM      6  N   UNL d   1     -41.521-123.548 -51.372  0.00  0.00    -0.239 NA
ATOM      7  C   UNL d   1     -41.396-123.197 -52.100  0.00  0.00     0.084 A 
ATOM      8  C   UNL d   1     -41.265-122.397 -52.162  0.00  0.00     0.018 A 
ATOM      9  C   UNL d   1     -41.406-123.676 -52.771  0.00  0.00     0.043 A 
ATOM     10  C   UNL d   1     -41.254-121.910 -51.500  0.00  0.00     0.004 A 
ATOM     11  C   UNL d   1     -41.138-122.039 -52.899  0.00  0.00     0.004 A 
ATOM     12  C   UNL d   1     -41.381-122.269 -50.762  0.00  0.00     0.025 A 
ATOM     13  C   UNL d   1     -41.123-121.109 -51.562  0.00  0.00     0.000 C 
ATOM     14  C   UNL d   1     -41.148-122.527 -53.580  0.00  0.00     0.024 A 
ATOM     15  C   UNL d   1     -41.279-123.327 -53.517  0.00  0.00     0.096 A 
BRANCH  15  16
ATOM     16  O   UNL d   1     -41.288-123.806 -54.193  0.00  0.00    -0.328 OA
ATOM     17  C   UNL d   1     -41.773-123.591 -54.836  0.00  0.00     0.181 C 
ENDBRANCH  15  16
ENDBRANCH   4   5
ENDBRANCH   3   4
TORSDOF 3
ENDMDL
MODEL 2
REMARK VINA RESULT:      -3.3      1.983      3.779
REMARK  3 active torsions:
REMARK  status: ('A' for Active; 'I' for Inactive)
REMARK    1  A    between atoms: S_11  and  C_4 
REMARK    2  A    between atoms: C_14  and  S_11 
REMARK    3  A    between atoms: O_15  and  C_12 
ROOT
ATOM      1  N   UNL d   1     -42.121-122.246 -55.694  0.00  0.00    -0.195 NA
ATOM      2  C   UNL d   1     -42.128-122.155 -54.869  0.00  0.00     0.086 C 
ATOM      3  C   UNL d   1     -42.144-122.057 -54.042  0.00  0.00     0.168 C 
ENDROOT
BRANCH   3   4
ATOM      4  S   UNL d   1     -41.591-122.467 -53.552  0.00  0.00    -0.078 SA
BRANCH   4   5
ATOM      5  C   UNL d   1     -41.583-122.321 -52.713  0.00  0.00     0.108 A 
ATOM      6  N   UNL d   1     -41.801-122.923 -52.191  0.00  0.00    -0.239 NA
ATOM      7  C   UNL d   1     -41.788-122.765 -51.389  0.00  0.00     0.084 A 
ATOM      8  C   UNL d   1     -41.565-122.034 -51.110  0.00  0.00     0.018 A 
ATOM      9  C   UNL d   1     -42.006-123.366 -50.868  0.00  0.00     0.043 A 
ATOM     10  C   UNL d   1     -41.346-121.428 -51.620  0.00  0.00     0.004 A 
ATOM     11  C   UNL d   1     -41.550-121.870 -50.297  0.00  0.00     0.004 A 
ATOM     12  C   UNL d   1     -41.361-121.591 -52.434  0.00  0.00     0.025 A 
ATOM     13  C   UNL d   1     -41.123-120.696 -51.341  0.00  0.00     0.000 C 
ATOM     14  C   UNL d   1     -41.772-122.483 -49.770  0.00  0.00     0.024 A 
ATOM     15  C   UNL d   1     -41.994-123.213 -50.049  0.00  0.00     0.096 A 
BRANCH  15  16
ATOM     16  O   UNL d   1     -42.213-123.816 -49.523  0.00  0.00    -0.328 OA
ATOM     17  C   UNL d   1     -42.929-123.747 -49.102  0.00  0.00     0.181 C 
ENDBRANCH  15  16
ENDBRANCH   4   5
ENDBRANCH   3   4
TORSDOF 3
ENDMDL
MODEL 3
REMARK VINA RESULT:      -2.9      2.168      4.506
REMARK  3 active torsions:
REMARK  status: ('A' for Active; 'I' for Inactive)
REMARK    1  A    between atoms: S_11  and  C_4 
REMARK    2  A    between atoms: C_14  and  S_11 
REMARK    3  A    between atoms: O_15  and  C_12 
ROOT
ATOM      1  N   UNL d   1     -41.125-122.150 -53.152  0.00  0.00    -0.195 NA
ATOM      2  C   UNL d   1     -41.132-122.404 -52.362  0.00  0.00     0.086 C 
ATOM      3  C   UNL d   1     -41.131-122.651 -51.566  0.00  0.00     0.168 C 
ENDROOT
BRANCH   3   4
ATOM      4  S   UNL d   1     -41.541-123.353 -51.337  0.00  0.00    -0.078 SA
BRANCH   4   5
ATOM      5  C   UNL d   1     -41.880-123.407 -50.557  0.00  0.00     0.108 A 
ATOM      6  N   UNL d   1     -41.400-123.304 -49.894  0.00  0.00    -0.239 NA
ATOM      7  C   UNL d   1     -41.743-123.360 -49.153  0.00  0.00     0.084 A 
ATOM      8  C   UNL d   1     -42.537-123.512 -49.070  0.00  0.00     0.018 A 
ATOM      9  C   UNL d   1     -41.262-123.257 -48.491  0.00  0.00     0.043 A 
ATOM     10  C   UNL d   1     -43.025-123.617 -49.724  0.00  0.00     0.004 A 
ATOM     11  C   UNL d   1     -42.888-123.569 -48.321  0.00  0.00     0.004 A 
ATOM     12  C   UNL d   1     -42.674-123.560 -50.474  0.00  0.00     0.025 A 
ATOM     13  C   UNL d   1     -43.820-123.769 -49.641  0.00  0.00     0.000 C 
ATOM     14  C   UNL d   1     -42.398-123.464 -47.650  0.00  0.00     0.024 A 
ATOM     15  C   UNL d   1     -41.604-123.311 -47.733  0.00  0.00     0.096 A 
BRANCH  15  16
ATOM     16  O   UNL d   1     -41.123-123.208 -47.066  0.00  0.00    -0.328 OA
ATOM     17  C   UNL d   1     -41.123-122.472 -46.676  0.00  0.00     0.181 C 
ENDBRANCH  15  16
ENDBRANCH   4   5
ENDBRANCH   3   4
TORSDOF 3
ENDMDL
