MODEL 1
REMARK VINA RESULT:       9.3      0.000      0.000
REMARK  2 active torsions:
REMARK  status: ('A' for Active; 'I' for Inactive)
REMARK    1  A    between atoms: C_6  and  C_1 
REMARK    2  A    between atoms: C_7  and  C_5 
ROOT
ATOM      1  C   UNL d   1      45.634 -14.763  36.959  0.00  0.00     0.169 A 
ATOM      2  C   UNL d   1      44.984 -14.463  37.200  0.00  0.00     0.048 A 
ATOM      3  N   UNL d   1      44.968 -15.734  36.375  0.00  0.00    -0.148 NA
ATOM      4  N   UNL d   1      45.632 -15.400  36.545  0.00  0.00    -0.142 NA
ATOM      5  C   UNL d   1      44.318 -15.433  36.616  0.00  0.00     0.105 A 
ENDROOT
BRANCH   5   6
ATOM      6  C   UNL d   1      43.522 -15.629  36.545  0.00  0.00     0.019 A 
ATOM      7  C   UNL d   1      43.294 -16.415  36.409  0.00  0.00     0.002 A 
ATOM      8  C   UNL d   1      42.492 -16.612  36.338  0.00  0.00     0.000 A 
ATOM      9  C   UNL d   1      41.914 -16.022  36.402  0.00  0.00     0.000 A 
ATOM     10  C   UNL d   1      42.145 -15.229  36.538  0.00  0.00     0.000 A 
ATOM     11  C   UNL d   1      41.122 -16.211  36.332  0.00  0.00     0.000 C 
ATOM     12  C   UNL d   1      42.947 -15.041  36.609  0.00  0.00     0.002 A 
ENDBRANCH   5   6
BRANCH   1  13
ATOM     13  C   UNL d   1      46.298 -14.428  37.130  0.00  0.00     0.231 C 
ATOM     14  O   UNL d   1      46.643 -13.986  36.622  0.00  0.00    -0.643 OA
ATOM     15  O   UNL d   1      46.610 -14.544  37.812  0.00  0.00    -0.643 OA
ENDBRANCH   1  13
TORSDOF 2
ENDMDL
MODEL 2
REMARK VINA RESULT:      11.2      2.355      3.809
REMARK  2 active torsions:
REMARK  status: ('A' for Active; 'I' for Inactive)
REMARK    1  A    between atoms: C_6  and  C_1 
REMARK    2  A    between atoms: C_7  and  C_5 
ROOT
ATOM      1  C   UNL d   1      42.097 -15.755  36.473  0.00  0.00     0.169 A 
ATOM      2  C   UNL d   1      42.392 -15.094  36.689  0.00  0.00     0.048 A 
ATOM      3  N   UNL d   1      43.303 -16.272  36.406  0.00  0.00    -0.148 NA
ATOM      4  N   UNL d   1      42.548 -16.348  36.330  0.00  0.00    -0.142 NA
ATOM      5  C   UNL d   1      43.598 -15.611  36.623  0.00  0.00     0.105 A 
ENDROOT
BRANCH   5   6
ATOM      6  C   UNL d   1      44.359 -15.328  36.760  0.00  0.00     0.019 A 
ATOM      7  C   UNL d   1      45.020 -15.768  36.519  0.00  0.00     0.002 A 
ATOM      8  C   UNL d   1      45.786 -15.483  36.658  0.00  0.00     0.000 A 
ATOM      9  C   UNL d   1      45.893 -14.755  37.039  0.00  0.00     0.000 A 
ATOM     10  C   UNL d   1      45.225 -14.312  37.282  0.00  0.00     0.000 A 
ATOM     11  C   UNL d   1      46.647 -14.470  37.178  0.00  0.00     0.000 C 
ATOM     12  C   UNL d   1      44.465 -14.604  37.140  0.00  0.00     0.002 A 
ENDBRANCH   5   6
BRANCH   1  13
ATOM     13  C   UNL d   1      41.341 -15.831  36.397  0.00  0.00     0.231 C 
ATOM     14  O   UNL d   1      41.029 -16.519  36.376  0.00  0.00    -0.643 OA
ATOM     15  O   UNL d   1      40.907 -15.210  36.343  0.00  0.00    -0.643 OA
ENDBRANCH   1  13
TORSDOF 2
ENDMDL
MODEL 3
REMARK VINA RESULT:      11.5      7.756      8.316
REMARK  2 active torsions:
REMARK  status: ('A' for Active; 'I' for Inactive)
REMARK    1  A    between atoms: C_6  and  C_1 
REMARK    2  A    between atoms: C_7  and  C_5 
ROOT
ATOM      1  C   UNL d   1      45.617 -15.729  44.542  0.00  0.00     0.169 A 
ATOM      2  C   UNL d   1      45.494 -16.349  44.955  0.00  0.00     0.048 A 
ATOM      3  N   UNL d   1      46.172 -16.464  43.604  0.00  0.00    -0.148 NA
ATOM      4  N   UNL d   1      45.957 -15.780  43.865  0.00  0.00    -0.142 NA
ATOM      5  C   UNL d   1      46.048 -17.084  44.017  0.00  0.00     0.105 A 
ENDROOT
BRANCH   5   6
ATOM      6  C   UNL d   1      46.197 -17.888  43.923  0.00  0.00     0.019 A 
ATOM      7  C   UNL d   1      46.275 -18.214  43.164  0.00  0.00     0.002 A 
ATOM      8  C   UNL d   1      46.425 -19.023  43.069  0.00  0.00     0.000 A 
ATOM      9  C   UNL d   1      46.498 -19.511  43.735  0.00  0.00     0.000 A 
ATOM     10  C   UNL d   1      46.420 -19.181  44.501  0.00  0.00     0.000 A 
ATOM     11  C   UNL d   1      46.646 -20.310  43.647  0.00  0.00     0.000 C 
ATOM     12  C   UNL d   1      46.270 -18.372  44.586  0.00  0.00     0.002 A 
ENDBRANCH   5   6
BRANCH   1  13
ATOM     13  C   UNL d   1      45.402 -15.044  44.803  0.00  0.00     0.231 C 
ATOM     14  O   UNL d   1      45.919 -14.513  44.948  0.00  0.00    -0.643 OA
ATOM     15  O   UNL d   1      44.664 -14.903  44.914  0.00  0.00    -0.643 OA
ENDBRANCH   1  13
TORSDOF 2
ENDMDL
MODEL 4
REMARK VINA RESULT:      11.8      7.575      8.118
REMARK  2 active torsions:
REMARK  status: ('A' for Active; 'I' for Inactive)
REMARK    1  A    between atoms: C_6  and  C_1 
REMARK    2  A    between atoms: C_7  and  C_5 
ROOT
ATOM      1  C   UNL d   1      45.689 -15.516  44.430  0.00  0.00     0.169 A 
ATOM      2  C   UNL d   1      46.009 -15.752  43.788  0.00  0.00     0.048 A 
ATOM      3  N   UNL d   1      45.562 -16.762  44.826  0.00  0.00    -0.148 NA
ATOM      4  N   UNL d   1      45.463 -16.017  44.954  0.00  0.00    -0.142 NA
ATOM      5  C   UNL d   1      45.881 -16.999  44.184  0.00  0.00     0.105 A 
ENDROOT
BRANCH   5   6
ATOM      6  C   UNL d   1      46.072 -17.732  43.863  0.00  0.00     0.019 A 
ATOM      7  C   UNL d   1      46.258 -18.371  44.357  0.00  0.00     0.002 A 
ATOM      8  C   UNL d   1      46.450 -19.110  44.033  0.00  0.00     0.000 A 
ATOM      9  C   UNL d   1      46.458 -19.211  43.211  0.00  0.00     0.000 A 
ATOM     10  C   UNL d   1      46.270 -18.564  42.712  0.00  0.00     0.000 A 
ATOM     11  C   UNL d   1      46.647 -19.937  42.886  0.00  0.00     0.000 C 
ATOM     12  C   UNL d   1      46.080 -17.832  43.044  0.00  0.00     0.002 A 
ENDBRANCH   5   6
BRANCH   1  13
ATOM     13  C   UNL d   1      45.590 -14.769  44.557  0.00  0.00     0.231 C 
ATOM     14  O   UNL d   1      46.104 -14.271  44.314  0.00  0.00    -0.643 OA
ATOM     15  O   UNL d   1      44.972 -14.533  44.930  0.00  0.00    -0.643 OA
ENDBRANCH   1  13
TORSDOF 2
ENDMDL
MODEL 5
REMARK VINA RESULT:      11.9      7.825      8.449
REMARK  2 active torsions:
REMARK  status: ('A' for Active; 'I' for Inactive)
REMARK    1  A    between atoms: C_6  and  C_1 
REMARK    2  A    between atoms: C_7  and  C_5 
ROOT
ATOM      1  C   UNL d   1      46.216 -17.874  43.957  0.00  0.00     0.169 A 
ATOM      2  C   UNL d   1      46.221 -17.279  43.492  0.00  0.00     0.048 A 
ATOM      3  N   UNL d   1      45.864 -17.092  44.953  0.00  0.00    -0.148 NA
ATOM      4  N   UNL d   1      46.038 -17.787  44.690  0.00  0.00    -0.142 NA
ATOM      5  C   UNL d   1      45.870 -16.497  44.488  0.00  0.00     0.105 A 
ENDROOT
BRANCH   5   6
ATOM      6  C   UNL d   1      45.719 -15.692  44.568  0.00  0.00     0.019 A 
ATOM      7  C   UNL d   1      44.991 -15.429  44.868  0.00  0.00     0.002 A 
ATOM      8  C   UNL d   1      44.839 -14.619  44.949  0.00  0.00     0.000 A 
ATOM      9  C   UNL d   1      45.417 -14.066  44.729  0.00  0.00     0.000 A 
ATOM     10  C   UNL d   1      46.151 -14.332  44.427  0.00  0.00     0.000 A 
ATOM     11  C   UNL d   1      45.272 -13.265  44.807  0.00  0.00     0.000 C 
ATOM     12  C   UNL d   1      46.294 -15.143  44.349  0.00  0.00     0.002 A 
ENDBRANCH   5   6
BRANCH   1  13
ATOM     13  C   UNL d   1      46.390 -18.569  43.693  0.00  0.00     0.231 C 
ATOM     14  O   UNL d   1      46.604 -19.114  44.170  0.00  0.00    -0.643 OA
ATOM     15  O   UNL d   1      46.345 -18.706  42.947  0.00  0.00    -0.643 OA
ENDBRANCH   1  13
TORSDOF 2
ENDMDL
