MODEL 1
REMARK VINA RESULT:      44.6      0.000      0.000
REMARK  3 active torsions:
REMARK  status: ('A' for Active; 'I' for Inactive)
REMARK    1  A    between atoms: C_7  and  C_3 
REMARK       I    between atoms: N_10  and  C_7 
REMARK    2  A    between atoms: C_18  and  C_9 
REMARK    3  A    between atoms: C_12  and  N_10 
ROOT
ATOM      1  C   UNL d   1      13.677  12.956  -3.255  0.00  0.00     0.059 A 
ATOM      2  C   UNL d   1      13.586  12.196  -2.944  0.00  0.00     0.013 A 
ATOM      3  C   UNL d   1      14.310  13.373  -2.049  0.00  0.00     0.088 A 
ATOM      4  S   UNL d   1      14.038  13.543  -2.809  0.00  0.00    -0.075 SA
ATOM      5  S   UNL d   1      13.405  13.125  -4.014  0.00  0.00    -0.080 SA
ATOM      6  C   UNL d   1      14.219  12.613  -1.739  0.00  0.00     0.012 A 
ATOM      7  C   UNL d   1      12.956  11.780  -4.146  0.00  0.00     0.007 A 
ATOM      8  C   UNL d   1      13.046  12.540  -4.456  0.00  0.00     0.030 A 
ENDROOT
BRANCH   3   9
ATOM      9  C   UNL d   1      14.671  13.960  -1.603  0.00  0.00     0.285 C 
ATOM     10  N   UNL d   1      14.538  14.757  -1.783  0.00  0.00    -0.208 NA
ATOM     11  O   UNL d   1      15.166  13.757  -0.975  0.00  0.00    -0.265 OA
BRANCH  10  12
ATOM     12  C   UNL d   1      14.900  15.349  -1.336  0.00  0.00     0.085 A 
ATOM     13  C   UNL d   1      15.090  15.207  -0.555  0.00  0.00     0.019 A 
ATOM     14  C   UNL d   1      15.450  15.797  -0.113  0.00  0.00     0.002 A 
ATOM     15  C   UNL d   1      15.619  16.536  -0.460  0.00  0.00     0.000 A 
ATOM     16  C   UNL d   1      15.422  16.667  -1.249  0.00  0.00     0.002 A 
ATOM     17  C   UNL d   1      15.981  17.133  -0.016  0.00  0.00     0.000 C 
ATOM     18  C   UNL d   1      15.064  16.077  -1.687  0.00  0.00     0.019 A 
ENDBRANCH  10  12
ENDBRANCH   3   9
BRANCH   8  19
ATOM     19  C   UNL d   1      12.771  12.704  -5.218  0.00  0.00     0.006 C 
ATOM     20  C   UNL d   1      13.049  12.275  -5.859  0.00  0.00     0.001 C 
ENDBRANCH   8  19
TORSDOF 3
ENDMDL
