MODEL 1
REMARK VINA RESULT:      13.2      0.000      0.000
REMARK  6 active torsions:
REMARK  status: ('A' for Active; 'I' for Inactive)
REMARK    1  A    between atoms: C_10  and  N_3 
REMARK    2  A    between atoms: C_12  and  C_6 
REMARK    3  A    between atoms: C_20  and  C_10 
REMARK    4  A    between atoms: C_11  and  C_17 
REMARK    5  A    between atoms: O_27  and  C_11 
REMARK    6  A    between atoms: N_13  and  C_20 
ROOT
ATOM      1  C   UNL d   1      29.723  17.795 -24.125  0.00  0.00     0.083 A 
ATOM      2  C   UNL d   1      29.250  18.474 -24.239  0.00  0.00     0.161 A 
ATOM      3  N   UNL d   1      30.471  18.720 -24.734  0.00  0.00    -0.270 N 
ATOM      4  C   UNL d   1      29.715  19.041 -24.614  0.00  0.00     0.288 A 
ATOM      5  C   UNL d   1      29.398  17.125 -23.755  0.00  0.00     0.201 A 
ATOM      6  C   UNL d   1      30.472  17.954 -24.432  0.00  0.00     0.072 A 
ATOM      7  O   UNL d   1      28.467  18.477 -23.984  0.00  0.00    -0.302 OA
ATOM      8  C   UNL d   1      28.610  17.139 -23.504  0.00  0.00     0.063 A 
ATOM      9  C   UNL d   1      28.140  17.815 -23.617  0.00  0.00     0.103 A 
ATOM     10  O   UNL d   1      29.473  19.801 -24.834  0.00  0.00    -0.264 OA
ATOM     11  O   UNL d   1      29.860  16.454 -23.641  0.00  0.00    -0.286 OA
ATOM     12  C   UNL d   1      28.291  16.473 -23.137  0.00  0.00     0.017 A 
ATOM     13  C   UNL d   1      27.360  17.811 -23.360  0.00  0.00     0.026 A 
ATOM     14  C   UNL d   1      27.511  16.478 -22.884  0.00  0.00     0.058 A 
ATOM     15  C   UNL d   1      27.045  17.147 -22.996  0.00  0.00     0.013 A 
ATOM     16 CL   UNL d   1      27.196  15.814 -22.519  0.00  0.00    -0.082 Cl
ENDROOT
BRANCH   6  17
ATOM     17  C   UNL d   1      31.087  17.404 -24.416  0.00  0.00     0.016 A 
ATOM     18  C   UNL d   1      31.232  16.920 -25.072  0.00  0.00     0.002 A 
ATOM     19  C   UNL d   1      31.847  16.369 -25.055  0.00  0.00     0.005 A 
ATOM     20  C   UNL d   1      32.324  16.298 -24.381  0.00  0.00     0.063 A 
ATOM     21  C   UNL d   1      32.175  16.787 -23.723  0.00  0.00     0.005 A 
ATOM     22  C   UNL d   1      31.560  17.335 -23.743  0.00  0.00     0.002 A 
BRANCH  20  23
ATOM     23  C   UNL d   1      32.938  15.748 -24.365  0.00  0.00     0.296 C 
ATOM     24  O   UNL d   1      33.241  15.453 -25.069  0.00  0.00    -0.259 OA
BRANCH  23  25
ATOM     25  O   UNL d   1      33.240  15.502 -23.644  0.00  0.00    -0.296 OA
ATOM     26  C   UNL d   1      32.756  15.453 -22.977  0.00  0.00     0.185 C 
ENDBRANCH  23  25
ENDBRANCH  20  23
ENDBRANCH   6  17
BRANCH   3  27
ATOM     27  C   UNL d   1      31.106  19.102 -25.091  0.00  0.00     0.102 C 
BRANCH  27  28
ATOM     28  C   UNL d   1      31.165  19.925 -25.071  0.00  0.00     0.100 C 
BRANCH  28  29
ATOM     29  N   UNL d   1      31.853  20.288 -24.803  0.00  0.00    -0.298 N 
ATOM     30  C   UNL d   1      32.024  21.051 -25.039  0.00  0.00     0.107 A 
ATOM     31  C   UNL d   1      32.711  21.414 -24.771  0.00  0.00     0.142 A 
ATOM     32  O   UNL d   1      33.221  21.010 -24.270  0.00  0.00    -0.300 OA
ATOM     33  C   UNL d   1      33.043  20.243 -24.037  0.00  0.00     0.142 A 
ATOM     34  C   UNL d   1      32.355  19.881 -24.305  0.00  0.00     0.107 A 
ENDBRANCH  28  29
ENDBRANCH  27  28
ENDBRANCH   3  27
TORSDOF 6
ENDMDL
MODEL 2
REMARK VINA RESULT:      13.8      2.675      4.687
REMARK  6 active torsions:
REMARK  status: ('A' for Active; 'I' for Inactive)
REMARK    1  A    between atoms: C_10  and  N_3 
REMARK    2  A    between atoms: C_12  and  C_6 
REMARK    3  A    between atoms: C_20  and  C_10 
REMARK    4  A    between atoms: C_11  and  C_17 
REMARK    5  A    between atoms: O_27  and  C_11 
REMARK    6  A    between atoms: N_13  and  C_20 
ROOT
ATOM      1  C   UNL d   1      32.865  20.565 -22.517  0.00  0.00     0.083 A 
ATOM      2  C   UNL d   1      32.775  21.257 -22.977  0.00  0.00     0.161 A 
ATOM      3  N   UNL d   1      32.710  20.194 -23.791  0.00  0.00    -0.270 N 
ATOM      4  C   UNL d   1      32.680  21.023 -23.761  0.00  0.00     0.288 A 
ATOM      5  C   UNL d   1      32.972  20.630 -21.695  0.00  0.00     0.201 A 
ATOM      6  C   UNL d   1      32.824  19.917 -23.025  0.00  0.00     0.072 A 
ATOM      7  O   UNL d   1      32.793  21.996 -22.615  0.00  0.00    -0.302 OA
ATOM      8  C   UNL d   1      32.988  21.377 -21.343  0.00  0.00     0.063 A 
ATOM      9  C   UNL d   1      32.899  22.065 -21.800  0.00  0.00     0.103 A 
ATOM     10  O   UNL d   1      32.573  21.527 -24.409  0.00  0.00    -0.264 OA
ATOM     11  O   UNL d   1      33.060  19.951 -21.238  0.00  0.00    -0.286 OA
ATOM     12  C   UNL d   1      33.095  21.437 -20.527  0.00  0.00     0.017 A 
ATOM     13  C   UNL d   1      32.918  22.799 -21.433  0.00  0.00     0.026 A 
ATOM     14  C   UNL d   1      33.112  22.175 -20.168  0.00  0.00     0.058 A 
ATOM     15  C   UNL d   1      33.024  22.856 -20.621  0.00  0.00     0.013 A 
ATOM     16 CL   UNL d   1      33.218  22.232 -19.357  0.00  0.00    -0.082 Cl
ENDROOT
BRANCH   6  17
ATOM     17  C   UNL d   1      32.891  19.138 -22.760  0.00  0.00     0.016 A 
ATOM     18  C   UNL d   1      33.166  18.546 -23.269  0.00  0.00     0.002 A 
ATOM     19  C   UNL d   1      33.234  17.767 -23.004  0.00  0.00     0.005 A 
ATOM     20  C   UNL d   1      33.025  17.572 -22.226  0.00  0.00     0.063 A 
ATOM     21  C   UNL d   1      32.748  18.170 -21.717  0.00  0.00     0.005 A 
ATOM     22  C   UNL d   1      32.682  18.947 -21.984  0.00  0.00     0.002 A 
BRANCH  20  23
ATOM     23  C   UNL d   1      33.092  16.794 -21.962  0.00  0.00     0.296 C 
ATOM     24  O   UNL d   1      33.153  16.639 -21.158  0.00  0.00    -0.259 OA
BRANCH  23  25
ATOM     25  O   UNL d   1      33.097  16.182 -22.507  0.00  0.00    -0.296 OA
ATOM     26  C   UNL d   1      32.731  15.462 -22.338  0.00  0.00     0.185 C 
ENDBRANCH  23  25
ENDBRANCH  20  23
ENDBRANCH   6  17
BRANCH   3  27
ATOM     27  C   UNL d   1      32.639  19.734 -24.469  0.00  0.00     0.102 C 
BRANCH  27  28
ATOM     28  C   UNL d   1      31.934  19.728 -24.899  0.00  0.00     0.100 C 
BRANCH  28  29
ATOM     29  N   UNL d   1      31.484  19.041 -24.954  0.00  0.00    -0.298 N 
ATOM     30  C   UNL d   1      31.858  18.319 -25.031  0.00  0.00     0.107 A 
ATOM     31  C   UNL d   1      31.408  17.633 -25.086  0.00  0.00     0.142 A 
ATOM     32  O   UNL d   1      30.588  17.676 -25.063  0.00  0.00    -0.300 OA
ATOM     33  C   UNL d   1      30.219  18.405 -24.985  0.00  0.00     0.142 A 
ATOM     34  C   UNL d   1      30.669  19.091 -24.930  0.00  0.00     0.107 A 
ENDBRANCH  28  29
ENDBRANCH  27  28
ENDBRANCH   3  27
TORSDOF 6
ENDMDL
