MODEL 1
REMARK VINA RESULT:     126.9      0.000      0.000
REMARK  9 active torsions:
REMARK  status: ('A' for Active; 'I' for Inactive)
REMARK    1  A    between atoms: C_7  and  C_1 
REMARK    2  A    between atoms: N_6  and  C_2 
REMARK    3  A    between atoms: C_9  and  C_3 
REMARK       I    between atoms: C_8  and  N_6 
REMARK    4  A    between atoms: O_22  and  C_7 
REMARK    5  A    between atoms: C_11  and  C_8 
REMARK    6  A    between atoms: N_10  and  C_15 
REMARK    7  A    between atoms: C_15  and  C_11 
REMARK    8  A    between atoms: C_21  and  C_12 
REMARK    9  A    between atoms: C_29  and  O_22 
ROOT
ATOM      1  C   UNL d   1      61.418  44.595  50.602  0.00  0.00     0.088 A 
ATOM      2  C   UNL d   1      61.563  43.794  50.823  0.00  0.00     0.119 A 
ATOM      3  C   UNL d   1      61.112  44.969  51.253  0.00  0.00     0.014 A 
ATOM      4  S   UNL d   1      61.360  43.676  51.570  0.00  0.00    -0.067 SA
ATOM      5  C   UNL d   1      61.068  44.420  51.864  0.00  0.00     0.037 A 
ENDROOT
BRANCH   3   6
ATOM      6  C   UNL d   1      60.916  45.743  51.217  0.00  0.00     0.001 A 
ATOM      7  C   UNL d   1      61.459  46.328  51.304  0.00  0.00     0.000 A 
ATOM      8  C   UNL d   1      61.237  47.140  51.264  0.00  0.00     0.000 A 
ATOM      9  C   UNL d   1      60.500  47.334  51.142  0.00  0.00     0.000 A 
ATOM     10  C   UNL d   1      59.911  46.767  51.048  0.00  0.00     0.000 A 
ATOM     11  C   UNL d   1      60.094  45.938  51.082  0.00  0.00     0.000 A 
BRANCH   9  12
ATOM     12  C   UNL d   1      60.298  48.126  51.106  0.00  0.00     0.000 A 
ATOM     13  C   UNL d   1      60.876  48.677  50.909  0.00  0.00     0.000 A 
ATOM     14  C   UNL d   1      60.677  49.476  50.871  0.00  0.00     0.000 A 
ATOM     15  C   UNL d   1      59.924  49.708  51.026  0.00  0.00     0.000 A 
ATOM     16  C   UNL d   1      59.336  49.154  51.225  0.00  0.00     0.000 A 
ATOM     17  C   UNL d   1      59.540  48.352  51.262  0.00  0.00     0.000 A 
ENDBRANCH   9  12
ENDBRANCH   3   6
BRANCH   1  18
ATOM     18  C   UNL d   1      61.564  44.957  49.829  0.00  0.00     0.302 C 
ATOM     19  O   UNL d   1      61.037  44.799  49.195  0.00  0.00    -0.259 OA
BRANCH  18  20
ATOM     20  O   UNL d   1      62.219  45.452  49.728  0.00  0.00    -0.271 OA
BRANCH  20  21
ATOM     21  C   UNL d   1      62.448  45.698  48.937  0.00  0.00     0.126 C 
ATOM     22  C   UNL d   1      63.156  46.071  48.836  0.00  0.00     0.029 C 
ENDBRANCH  20  21
ENDBRANCH  18  20
ENDBRANCH   1  18
BRANCH   2  23
ATOM     23  N   UNL d   1      61.887  43.154  50.341  0.00  0.00    -0.201 NA
ATOM     24  C   UNL d   1      62.387  42.604  50.690  0.00  0.00     0.281 C 
ATOM     25  O   UNL d   1      62.589  42.660  51.524  0.00  0.00    -0.265 OA
BRANCH  24  26
ATOM     26  C   UNL d   1      62.713  41.977  50.249  0.00  0.00     0.082 C 
BRANCH  26  27
ATOM     27  C   UNL d   1      62.700  41.195  50.551  0.00  0.00     0.085 C 
BRANCH  27  28
ATOM     28  N   UNL d   1      62.693  40.542  50.048  0.00  0.00    -0.299 N 
ATOM     29  C   UNL d   1      63.146  40.554  49.328  0.00  0.00     0.107 A 
ATOM     30  C   UNL d   1      63.135  39.897  48.828  0.00  0.00     0.142 A 
ATOM     31  O   UNL d   1      62.688  39.243  49.035  0.00  0.00    -0.300 OA
ATOM     32  C   UNL d   1      62.217  39.187  49.752  0.00  0.00     0.142 A 
ATOM     33  C   UNL d   1      62.232  39.847  50.247  0.00  0.00     0.107 A 
ENDBRANCH  27  28
ENDBRANCH  26  27
ENDBRANCH  24  26
ENDBRANCH   2  23
TORSDOF 9
ENDMDL
