MODEL 1
REMARK VINA RESULT:      -3.2      0.000      0.000
REMARK  4 active torsions:
REMARK  status: ('A' for Active; 'I' for Inactive)
REMARK    1  A    between atoms: C_7  and  C_2 
REMARK    2  A    between atoms: C_12  and  C_4 
REMARK    3  A    between atoms: C_11  and  C_7 
REMARK    4  A    between atoms: N_18  and  C_12 
ROOT
ATOM      1  C   UNL d   1      59.406  -1.451  29.257  0.00  0.00     0.108 A 
ATOM      2  C   UNL d   1      58.571  -0.424  29.473  0.00  0.00     0.141 A 
ATOM      3  C   UNL d   1      59.806  -0.754  29.070  0.00  0.00     0.064 A 
ATOM      4  C   UNL d   1      59.784  -2.177  29.178  0.00  0.00     0.079 A 
ATOM      5  O   UNL d   1      58.641  -1.250  29.507  0.00  0.00    -0.304 OA
ATOM      6  C   UNL d   1      59.290  -0.121  29.204  0.00  0.00     0.220 A 
ATOM      7  C   UNL d   1      60.586  -0.780  28.803  0.00  0.00     0.008 A 
ATOM      8  C   UNL d   1      60.563  -2.208  28.911  0.00  0.00     0.199 A 
ATOM      9  C   UNL d   1      60.965  -1.507  28.723  0.00  0.00     0.042 A 
ATOM     10  O   UNL d   1      59.462   0.682  29.088  0.00  0.00    -0.284 OA
ATOM     11  O   UNL d   1      60.943  -2.930  28.831  0.00  0.00    -0.286 OA
ATOM     12  C   UNL d   1      60.986  -0.083  28.616  0.00  0.00     0.000 C 
ENDROOT
BRANCH   2  13
ATOM     13  C   UNL d   1      57.902   0.014  29.673  0.00  0.00     0.053 C 
BRANCH  13  14
ATOM     14  C   UNL d   1      57.604  -0.017  30.449  0.00  0.00     0.102 A 
ATOM     15  O   UNL d   1      57.285  -0.680  30.817  0.00  0.00    -0.305 OA
ATOM     16  C   UNL d   1      57.062  -0.459  31.578  0.00  0.00     0.123 A 
ATOM     17  C   UNL d   1      57.244   0.337  31.676  0.00  0.00     0.029 A 
ATOM     18  C   UNL d   1      57.582   0.609  30.971  0.00  0.00     0.027 A 
ENDBRANCH  13  14
ENDBRANCH   2  13
BRANCH   4  19
ATOM     19  C   UNL d   1      59.387  -2.877  29.364  0.00  0.00     0.086 C 
BRANCH  19  20
ATOM     20  N   UNL d   1      59.200  -3.414  28.772  0.00  0.00    -0.300 N 
ATOM     21  C   UNL d   1      59.774  -3.932  28.483  0.00  0.00     0.100 C 
ATOM     22  C   UNL d   1      58.432  -3.442  28.456  0.00  0.00     0.100 C 
ENDBRANCH  19  20
ENDBRANCH   4  19
TORSDOF 4
ENDMDL
MODEL 2
REMARK VINA RESULT:      -1.8      2.379      3.539
REMARK  4 active torsions:
REMARK  status: ('A' for Active; 'I' for Inactive)
REMARK    1  A    between atoms: C_7  and  C_2 
REMARK    2  A    between atoms: C_12  and  C_4 
REMARK    3  A    between atoms: C_11  and  C_7 
REMARK    4  A    between atoms: N_18  and  C_12 
ROOT
ATOM      1  C   UNL d   1      58.422   0.671  31.628  0.00  0.00     0.108 A 
ATOM      2  C   UNL d   1      57.810   0.675  32.820  0.00  0.00     0.141 A 
ATOM      3  C   UNL d   1      59.004   0.674  32.213  0.00  0.00     0.064 A 
ATOM      4  C   UNL d   1      58.636   0.669  30.834  0.00  0.00     0.079 A 
ATOM      5  O   UNL d   1      57.682   0.672  32.001  0.00  0.00    -0.304 OA
ATOM      6  C   UNL d   1      58.625   0.676  32.949  0.00  0.00     0.220 A 
ATOM      7  C   UNL d   1      59.803   0.674  32.007  0.00  0.00     0.008 A 
ATOM      8  C   UNL d   1      59.432   0.669  30.623  0.00  0.00     0.199 A 
ATOM      9  C   UNL d   1      60.017   0.671  31.211  0.00  0.00     0.042 A 
ATOM     10  O   UNL d   1      58.997   0.679  33.690  0.00  0.00    -0.284 OA
ATOM     11  O   UNL d   1      59.650   0.667  29.832  0.00  0.00    -0.286 OA
ATOM     12  C   UNL d   1      60.385   0.676  32.592  0.00  0.00     0.000 C 
ENDROOT
BRANCH   2  13
ATOM     13  C   UNL d   1      57.225   0.676  33.402  0.00  0.00     0.053 C 
BRANCH  13  14
ATOM     14  C   UNL d   1      56.545   0.207  33.306  0.00  0.00     0.102 A 
ATOM     15  O   UNL d   1      56.509  -0.611  33.383  0.00  0.00    -0.305 OA
ATOM     16  C   UNL d   1      55.731  -0.840  33.241  0.00  0.00     0.123 A 
ATOM     17  C   UNL d   1      55.291  -0.164  33.078  0.00  0.00     0.029 A 
ATOM     18  C   UNL d   1      55.802   0.486  33.119  0.00  0.00     0.027 A 
ENDBRANCH  13  14
ENDBRANCH   2  13
BRANCH   4  19
ATOM     19  C   UNL d   1      58.057   0.667  30.246  0.00  0.00     0.086 C 
BRANCH  19  20
ATOM     20  N   UNL d   1      58.054   0.078  29.673  0.00  0.00    -0.300 N 
ATOM     21  C   UNL d   1      58.027   0.275  28.873  0.00  0.00     0.100 C 
ATOM     22  C   UNL d   1      58.078  -0.723  29.894  0.00  0.00     0.100 C 
ENDBRANCH  19  20
ENDBRANCH   4  19
TORSDOF 4
ENDMDL
MODEL 3
REMARK VINA RESULT:      -1.6      2.032      2.855
REMARK  4 active torsions:
REMARK  status: ('A' for Active; 'I' for Inactive)
REMARK    1  A    between atoms: C_7  and  C_2 
REMARK    2  A    between atoms: C_12  and  C_4 
REMARK    3  A    between atoms: C_11  and  C_7 
REMARK    4  A    between atoms: N_18  and  C_12 
ROOT
ATOM      1  C   UNL d   1      58.715   0.146  30.364  0.00  0.00     0.108 A 
ATOM      2  C   UNL d   1      57.608   0.490  31.037  0.00  0.00     0.141 A 
ATOM      3  C   UNL d   1      58.114   0.280  29.815  0.00  0.00     0.064 A 
ATOM      4  C   UNL d   1      59.464  -0.076  30.109  0.00  0.00     0.079 A 
ATOM      5  O   UNL d   1      58.404   0.275  31.122  0.00  0.00    -0.304 OA
ATOM      6  C   UNL d   1      57.431   0.493  30.231  0.00  0.00     0.220 A 
ATOM      7  C   UNL d   1      58.261   0.193  29.007  0.00  0.00     0.008 A 
ATOM      8  C   UNL d   1      59.615  -0.164  29.305  0.00  0.00     0.199 A 
ATOM      9  C   UNL d   1      59.012  -0.029  28.752  0.00  0.00     0.042 A 
ATOM     10  O   UNL d   1      56.695   0.677  29.898  0.00  0.00    -0.284 OA
ATOM     11  O   UNL d   1      60.362  -0.386  29.047  0.00  0.00    -0.286 OA
ATOM     12  C   UNL d   1      57.660   0.328  28.458  0.00  0.00     0.000 C 
ENDROOT
BRANCH   2  13
ATOM     13  C   UNL d   1      57.086   0.670  31.651  0.00  0.00     0.053 C 
BRANCH  13  14
ATOM     14  C   UNL d   1      56.811   0.064  32.149  0.00  0.00     0.102 A 
ATOM     15  O   UNL d   1      56.331  -0.565  31.925  0.00  0.00    -0.305 OA
ATOM     16  C   UNL d   1      56.196  -1.027  32.593  0.00  0.00     0.123 A 
ATOM     17  C   UNL d   1      56.593  -0.681  33.226  0.00  0.00     0.029 A 
ATOM     18  C   UNL d   1      56.974  -0.002  32.946  0.00  0.00     0.027 A 
ENDBRANCH  13  14
ENDBRANCH   2  13
BRANCH   4  19
ATOM     19  C   UNL d   1      60.068  -0.212  30.657  0.00  0.00     0.086 C 
BRANCH  19  20
ATOM     20  N   UNL d   1      60.677   0.333  30.741  0.00  0.00    -0.300 N 
ATOM     21  C   UNL d   1      61.133   0.552  30.090  0.00  0.00     0.100 C 
ATOM     22  C   UNL d   1      60.840   0.670  31.483  0.00  0.00     0.100 C 
ENDBRANCH  19  20
ENDBRANCH   4  19
TORSDOF 4
ENDMDL
MODEL 4
REMARK VINA RESULT:      -1.4      1.548      3.664
REMARK  4 active torsions:
REMARK  status: ('A' for Active; 'I' for Inactive)
REMARK    1  A    between atoms: C_7  and  C_2 
REMARK    2  A    between atoms: C_12  and  C_4 
REMARK    3  A    between atoms: C_11  and  C_7 
REMARK    4  A    between atoms: N_18  and  C_12 
ROOT
ATOM      1  C   UNL d   1      58.172  -0.252  30.593  0.00  0.00     0.108 A 
ATOM      2  C   UNL d   1      58.687  -0.761  29.466  0.00  0.00     0.141 A 
ATOM      3  C   UNL d   1      58.962  -0.019  30.547  0.00  0.00     0.064 A 
ATOM      4  C   UNL d   1      57.710  -0.019  31.233  0.00  0.00     0.079 A 
ATOM      5  O   UNL d   1      57.999  -0.711  29.925  0.00  0.00    -0.304 OA
ATOM      6  C   UNL d   1      59.279  -0.334  29.850  0.00  0.00     0.220 A 
ATOM      7  C   UNL d   1      59.294   0.448  31.141  0.00  0.00     0.008 A 
ATOM      8  C   UNL d   1      58.038   0.447  31.828  0.00  0.00     0.199 A 
ATOM      9  C   UNL d   1      58.832   0.681  31.781  0.00  0.00     0.042 A 
ATOM     10  O   UNL d   1      60.058  -0.238  29.583  0.00  0.00    -0.284 OA
ATOM     11  O   UNL d   1      57.580   0.681  32.467  0.00  0.00    -0.286 OA
ATOM     12  C   UNL d   1      60.084   0.681  31.094  0.00  0.00     0.000 C 
ENDROOT
BRANCH   2  13
ATOM     13  C   UNL d   1      58.765  -1.166  28.751  0.00  0.00     0.053 C 
BRANCH  13  14
ATOM     14  C   UNL d   1      58.846  -1.993  28.751  0.00  0.00     0.102 A 
ATOM     15  O   UNL d   1      58.269  -2.535  28.974  0.00  0.00    -0.305 OA
ATOM     16  C   UNL d   1      58.588  -3.289  28.888  0.00  0.00     0.123 A 
ATOM     17  C   UNL d   1      59.359  -3.209  28.614  0.00  0.00     0.029 A 
ATOM     18  C   UNL d   1      59.517  -2.401  28.530  0.00  0.00     0.027 A 
ENDBRANCH  13  14
ENDBRANCH   2  13
BRANCH   4  19
ATOM     19  C   UNL d   1      56.919  -0.250  31.283  0.00  0.00     0.086 C 
BRANCH  19  20
ATOM     20  N   UNL d   1      56.679  -0.771  31.871  0.00  0.00    -0.300 N 
ATOM     21  C   UNL d   1      56.866  -1.573  31.819  0.00  0.00     0.100 C 
ATOM     22  C   UNL d   1      56.244  -0.497  32.524  0.00  0.00     0.100 C 
ENDBRANCH  19  20
ENDBRANCH   4  19
TORSDOF 4
ENDMDL
MODEL 5
REMARK VINA RESULT:      -1.2      1.781      4.080
REMARK  4 active torsions:
REMARK  status: ('A' for Active; 'I' for Inactive)
REMARK    1  A    between atoms: C_7  and  C_2 
REMARK    2  A    between atoms: C_12  and  C_4 
REMARK    3  A    between atoms: C_11  and  C_7 
REMARK    4  A    between atoms: N_18  and  C_12 
ROOT
ATOM      1  C   UNL d   1      57.815   0.128  31.252  0.00  0.00     0.108 A 
ATOM      2  C   UNL d   1      58.378  -0.151  30.068  0.00  0.00     0.141 A 
ATOM      3  C   UNL d   1      58.625   0.270  31.316  0.00  0.00     0.064 A 
ATOM      4  C   UNL d   1      57.322   0.252  31.899  0.00  0.00     0.079 A 
ATOM      5  O   UNL d   1      57.659  -0.133  30.481  0.00  0.00    -0.304 OA
ATOM      6  C   UNL d   1      58.972   0.098  30.584  0.00  0.00     0.220 A 
ATOM      7  C   UNL d   1      58.946   0.538  32.028  0.00  0.00     0.008 A 
ATOM      8  C   UNL d   1      57.638   0.518  32.611  0.00  0.00     0.199 A 
ATOM      9  C   UNL d   1      58.452   0.662  32.675  0.00  0.00     0.042 A 
ATOM     10  O   UNL d   1      59.777   0.164  30.399  0.00  0.00    -0.284 OA
ATOM     11  O   UNL d   1      57.150   0.643  33.259  0.00  0.00    -0.286 OA
ATOM     12  C   UNL d   1      59.756   0.681  32.092  0.00  0.00     0.000 C 
ENDROOT
BRANCH   2  13
ATOM     13  C   UNL d   1      58.480  -0.377  29.281  0.00  0.00     0.053 C 
BRANCH  13  14
ATOM     14  C   UNL d   1      58.633  -1.172  29.097  0.00  0.00     0.102 A 
ATOM     15  O   UNL d   1      58.327  -1.827  29.490  0.00  0.00    -0.305 OA
ATOM     16  C   UNL d   1      58.625  -2.501  29.122  0.00  0.00     0.123 A 
ATOM     17  C   UNL d   1      59.113  -2.260  28.506  0.00  0.00     0.029 A 
ATOM     18  C   UNL d   1      59.116  -1.432  28.493  0.00  0.00     0.027 A 
ENDBRANCH  13  14
ENDBRANCH   2  13
BRANCH   4  19
ATOM     19  C   UNL d   1      56.511   0.110  31.839  0.00  0.00     0.086 C 
BRANCH  19  20
ATOM     20  N   UNL d   1      56.120  -0.305  32.431  0.00  0.00    -0.300 N 
ATOM     21  C   UNL d   1      55.619   0.089  32.955  0.00  0.00     0.100 C 
ATOM     22  C   UNL d   1      56.225  -1.126  32.509  0.00  0.00     0.100 C 
ENDBRANCH  19  20
ENDBRANCH   4  19
TORSDOF 4
ENDMDL
MODEL 6
REMARK VINA RESULT:      -0.3      3.007      5.647
REMARK  4 active torsions:
REMARK  status: ('A' for Active; 'I' for Inactive)
REMARK    1  A    between atoms: C_7  and  C_2 
REMARK    2  A    between atoms: C_12  and  C_4 
REMARK    3  A    between atoms: C_11  and  C_7 
REMARK    4  A    between atoms: N_18  and  C_12 
ROOT
ATOM      1  C   UNL d   1      56.811   0.674  33.381  0.00  0.00     0.108 A 
ATOM      2  C   UNL d   1      57.877   0.676  32.568  0.00  0.00     0.141 A 
ATOM      3  C   UNL d   1      57.490   0.677  33.851  0.00  0.00     0.064 A 
ATOM      4  C   UNL d   1      56.067   0.673  33.732  0.00  0.00     0.079 A 
ATOM      5  O   UNL d   1      57.048   0.674  32.587  0.00  0.00    -0.304 OA
ATOM      6  C   UNL d   1      58.147   0.679  33.348  0.00  0.00     0.220 A 
ATOM      7  C   UNL d   1      57.427   0.679  34.674  0.00  0.00     0.008 A 
ATOM      8  C   UNL d   1      56.000   0.674  34.553  0.00  0.00     0.199 A 
ATOM      9  C   UNL d   1      56.682   0.677  35.025  0.00  0.00     0.042 A 
ATOM     10  O   UNL d   1      58.942   0.682  33.584  0.00  0.00    -0.284 OA
ATOM     11  O   UNL d   1      55.259   0.672  34.906  0.00  0.00    -0.286 OA
ATOM     12  C   UNL d   1      58.105   0.682  35.143  0.00  0.00     0.000 C 
ENDROOT
BRANCH   2  13
ATOM     13  C   UNL d   1      58.346   0.677  31.890  0.00  0.00     0.053 C 
BRANCH  13  14
ATOM     14  C   UNL d   1      58.108   0.243  31.222  0.00  0.00     0.102 A 
ATOM     15  O   UNL d   1      57.879  -0.547  31.216  0.00  0.00    -0.305 OA
ATOM     16  C   UNL d   1      57.690  -0.746  30.440  0.00  0.00     0.123 A 
ATOM     17  C   UNL d   1      57.803  -0.079  29.971  0.00  0.00     0.029 A 
ATOM     18  C   UNL d   1      58.063   0.534  30.462  0.00  0.00     0.027 A 
ENDBRANCH  13  14
ENDBRANCH   2  13
BRANCH   4  19
ATOM     19  C   UNL d   1      55.386   0.670  33.265  0.00  0.00     0.086 C 
BRANCH  19  20
ATOM     20  N   UNL d   1      54.801   0.107  33.394  0.00  0.00    -0.300 N 
ATOM     21  C   UNL d   1      54.173   0.269  33.905  0.00  0.00     0.100 C 
ATOM     22  C   UNL d   1      54.835  -0.630  33.013  0.00  0.00     0.100 C 
ENDBRANCH  19  20
ENDBRANCH   4  19
TORSDOF 4
ENDMDL
