MODEL 1
REMARK VINA RESULT:      -9.3      0.000      0.000
REMARK  3 active torsions:
REMARK  status: ('A' for Active; 'I' for Inactive)
REMARK    1  A    between atoms: C_4  and  C_1 
REMARK    2  A    between atoms: C_9  and  N_2 
REMARK    3  A    between atoms: C_8  and  N_3 
ROOT
ATOM      1  C   UNL d   1      52.822  33.610  53.685  0.00  0.00     0.139 A 
ATOM      2  N   UNL d   1      52.259  33.312  53.161  0.00  0.00    -0.290 N 
ATOM      3  N   UNL d   1      53.396  33.030  53.812  0.00  0.00    -0.290 N 
ATOM      4  C   UNL d   1      52.480  32.556  52.964  0.00  0.00     0.101 A 
ATOM      5  C   UNL d   1      53.173  32.380  53.358  0.00  0.00     0.101 A 
ENDROOT
BRANCH   2   6
ATOM      6  C   UNL d   1      51.563  33.645  52.837  0.00  0.00     0.066 A 
ATOM      7  C   UNL d   1      51.570  34.003  52.104  0.00  0.00     0.018 A 
ATOM      8  C   UNL d   1      50.890  34.327  51.793  0.00  0.00     0.002 A 
ATOM      9  C   UNL d   1      50.186  34.292  52.223  0.00  0.00     0.000 A 
ATOM     10  C   UNL d   1      50.178  33.933  52.957  0.00  0.00     0.002 A 
ATOM     11  C   UNL d   1      50.863  33.607  53.272  0.00  0.00     0.018 A 
ENDBRANCH   2   6
BRANCH   1  12
ATOM     12  C   UNL d   1      52.790  34.371  54.015  0.00  0.00     0.063 A 
ATOM     13  S   UNL d   1      53.173  34.908  53.476  0.00  0.00    -0.083 SA
ATOM     14  C   UNL d   1      53.134  35.661  53.816  0.00  0.00     0.035 A 
ATOM     15  C   UNL d   1      52.748  35.610  54.535  0.00  0.00     0.008 A 
ATOM     16  C   UNL d   1      52.530  34.811  54.668  0.00  0.00     0.010 A 
ENDBRANCH   1  12
BRANCH   3  17
ATOM     17  C   UNL d   1      54.028  33.172  54.312  0.00  0.00     0.066 A 
ATOM     18  C   UNL d   1      54.744  33.448  54.017  0.00  0.00     0.018 A 
ATOM     19  C   UNL d   1      55.373  33.586  54.540  0.00  0.00     0.002 A 
ATOM     20  C   UNL d   1      55.293  33.452  55.337  0.00  0.00     0.000 A 
ATOM     21  C   UNL d   1      54.573  33.172  55.651  0.00  0.00     0.002 A 
ATOM     22  C   UNL d   1      53.942  33.033  55.136  0.00  0.00     0.018 A 
ENDBRANCH   3  17
TORSDOF 3
ENDMDL
MODEL 2
REMARK VINA RESULT:      -9.0      0.370      3.528
REMARK  3 active torsions:
REMARK  status: ('A' for Active; 'I' for Inactive)
REMARK    1  A    between atoms: C_4  and  C_1 
REMARK    2  A    between atoms: C_9  and  N_2 
REMARK    3  A    between atoms: C_8  and  N_3 
ROOT
ATOM      1  C   UNL d   1      52.874  33.646  53.621  0.00  0.00     0.139 A 
ATOM      2  N   UNL d   1      53.465  33.137  53.891  0.00  0.00    -0.290 N 
ATOM      3  N   UNL d   1      52.320  33.203  53.200  0.00  0.00    -0.290 N 
ATOM      4  C   UNL d   1      53.280  32.387  53.642  0.00  0.00     0.101 A 
ATOM      5  C   UNL d   1      52.582  32.423  53.220  0.00  0.00     0.101 A 
ENDROOT
BRANCH   2   6
ATOM      6  C   UNL d   1      54.158  33.272  54.342  0.00  0.00     0.066 A 
ATOM      7  C   UNL d   1      54.147  33.219  55.155  0.00  0.00     0.018 A 
ATOM      8  C   UNL d   1      54.825  33.351  55.589  0.00  0.00     0.002 A 
ATOM      9  C   UNL d   1      55.528  33.541  55.202  0.00  0.00     0.000 A 
ATOM     10  C   UNL d   1      55.539  33.595  54.387  0.00  0.00     0.002 A 
ATOM     11  C   UNL d   1      54.858  33.462  53.948  0.00  0.00     0.018 A 
ENDBRANCH   2   6
BRANCH   1  12
ATOM     12  C   UNL d   1      52.866  34.463  53.764  0.00  0.00     0.063 A 
ATOM     13  S   UNL d   1      52.525  34.593  54.534  0.00  0.00    -0.083 SA
ATOM     14  C   UNL d   1      52.523  35.410  54.663  0.00  0.00     0.035 A 
ATOM     15  C   UNL d   1      52.845  35.785  54.012  0.00  0.00     0.008 A 
ATOM     16  C   UNL d   1      53.062  35.204  53.447  0.00  0.00     0.010 A 
ENDBRANCH   1  12
BRANCH   3  17
ATOM     17  C   UNL d   1      51.667  33.564  52.864  0.00  0.00     0.066 A 
ATOM     18  C   UNL d   1      51.720  33.936  52.132  0.00  0.00     0.018 A 
ATOM     19  C   UNL d   1      51.047  34.296  51.809  0.00  0.00     0.002 A 
ATOM     20  C   UNL d   1      50.337  34.288  52.203  0.00  0.00     0.000 A 
ATOM     21  C   UNL d   1      50.266  33.915  52.945  0.00  0.00     0.002 A 
ATOM     22  C   UNL d   1      50.933  33.554  53.274  0.00  0.00     0.018 A 
ENDBRANCH   3  17
TORSDOF 3
ENDMDL
MODEL 3
REMARK VINA RESULT:      -8.6      1.307      3.130
REMARK  3 active torsions:
REMARK  status: ('A' for Active; 'I' for Inactive)
REMARK    1  A    between atoms: C_4  and  C_1 
REMARK    2  A    between atoms: C_9  and  N_2 
REMARK    3  A    between atoms: C_8  and  N_3 
ROOT
ATOM      1  C   UNL d   1      52.894  32.747  53.672  0.00  0.00     0.139 A 
ATOM      2  N   UNL d   1      52.542  32.057  53.392  0.00  0.00    -0.290 N 
ATOM      3  N   UNL d   1      52.372  33.375  53.552  0.00  0.00    -0.290 N 
ATOM      4  C   UNL d   1      51.809  32.252  53.100  0.00  0.00     0.101 A 
ATOM      5  C   UNL d   1      51.702  33.055  53.196  0.00  0.00     0.101 A 
ENDROOT
BRANCH   2   6
ATOM      6  C   UNL d   1      52.806  31.262  53.367  0.00  0.00     0.066 A 
ATOM      7  C   UNL d   1      52.813  30.801  54.040  0.00  0.00     0.018 A 
ATOM      8  C   UNL d   1      53.072  30.028  54.011  0.00  0.00     0.002 A 
ATOM      9  C   UNL d   1      53.329  29.709  53.295  0.00  0.00     0.000 A 
ATOM     10  C   UNL d   1      53.322  30.171  52.620  0.00  0.00     0.002 A 
ATOM     11  C   UNL d   1      53.062  30.949  52.648  0.00  0.00     0.018 A 
ENDBRANCH   2   6
BRANCH   1  12
ATOM     12  C   UNL d   1      53.650  32.776  54.014  0.00  0.00     0.063 A 
ATOM     13  S   UNL d   1      54.219  32.871  53.387  0.00  0.00    -0.083 SA
ATOM     14  C   UNL d   1      54.966  32.898  53.741  0.00  0.00     0.035 A 
ATOM     15  C   UNL d   1      54.882  32.824  54.550  0.00  0.00     0.008 A 
ATOM     16  C   UNL d   1      54.066  32.747  54.730  0.00  0.00     0.010 A 
ENDBRANCH   1  12
BRANCH   3  17
ATOM     17  C   UNL d   1      52.576  34.135  53.778  0.00  0.00     0.066 A 
ATOM     18  C   UNL d   1      52.522  34.369  54.565  0.00  0.00     0.018 A 
ATOM     19  C   UNL d   1      52.733  35.143  54.773  0.00  0.00     0.002 A 
ATOM     20  C   UNL d   1      52.991  35.673  54.215  0.00  0.00     0.000 A 
ATOM     21  C   UNL d   1      53.051  35.451  53.414  0.00  0.00     0.002 A 
ATOM     22  C   UNL d   1      52.842  34.681  53.198  0.00  0.00     0.018 A 
ENDBRANCH   3  17
TORSDOF 3
ENDMDL
MODEL 4
REMARK VINA RESULT:      -8.1      1.292      2.929
REMARK  3 active torsions:
REMARK  status: ('A' for Active; 'I' for Inactive)
REMARK    1  A    between atoms: C_4  and  C_1 
REMARK    2  A    between atoms: C_9  and  N_2 
REMARK    3  A    between atoms: C_8  and  N_3 
ROOT
ATOM      1  C   UNL d   1      52.842  32.713  53.628  0.00  0.00     0.139 A 
ATOM      2  N   UNL d   1      52.412  33.414  53.568  0.00  0.00    -0.290 N 
ATOM      3  N   UNL d   1      52.390  32.100  53.308  0.00  0.00    -0.290 N 
ATOM      4  C   UNL d   1      51.702  33.241  53.215  0.00  0.00     0.101 A 
ATOM      5  C   UNL d   1      51.684  32.440  53.055  0.00  0.00     0.101 A 
ENDROOT
BRANCH   2   6
ATOM      6  C   UNL d   1      52.588  34.201  53.797  0.00  0.00     0.066 A 
ATOM      7  C   UNL d   1      52.525  34.436  54.575  0.00  0.00     0.018 A 
ATOM      8  C   UNL d   1      52.697  35.202  54.792  0.00  0.00     0.002 A 
ATOM      9  C   UNL d   1      52.937  35.746  54.220  0.00  0.00     0.000 A 
ATOM     10  C   UNL d   1      52.999  35.511  53.439  0.00  0.00     0.002 A 
ATOM     11  C   UNL d   1      52.827  34.739  53.219  0.00  0.00     0.018 A 
ENDBRANCH   2   6
BRANCH   1  12
ATOM     12  C   UNL d   1      53.601  32.662  53.960  0.00  0.00     0.063 A 
ATOM     13  S   UNL d   1      54.168  32.838  53.349  0.00  0.00    -0.083 SA
ATOM     14  C   UNL d   1      54.918  32.784  53.693  0.00  0.00     0.035 A 
ATOM     15  C   UNL d   1      54.838  32.584  54.481  0.00  0.00     0.008 A 
ATOM     16  C   UNL d   1      54.022  32.506  54.658  0.00  0.00     0.010 A 
ENDBRANCH   1  12
BRANCH   3  17
ATOM     17  C   UNL d   1      52.679  31.335  53.293  0.00  0.00     0.066 A 
ATOM     18  C   UNL d   1      52.658  30.862  53.966  0.00  0.00     0.018 A 
ATOM     19  C   UNL d   1      52.955  30.090  53.929  0.00  0.00     0.002 A 
ATOM     20  C   UNL d   1      53.266  29.792  53.241  0.00  0.00     0.000 A 
ATOM     21  C   UNL d   1      53.294  30.258  52.550  0.00  0.00     0.002 A 
ATOM     22  C   UNL d   1      53.000  31.029  52.579  0.00  0.00     0.018 A 
ENDBRANCH   3  17
TORSDOF 3
ENDMDL
