MODEL 1
REMARK VINA RESULT:      -5.9      0.000      0.000
REMARK  3 active torsions:
REMARK  status: ('A' for Active; 'I' for Inactive)
REMARK    1  A    between atoms: C_14  and  C_4 
REMARK    2  A    between atoms: C_5  and  S_10 
REMARK    3  A    between atoms: S_10  and  C_14 
ROOT
ATOM      1  N   UNL d   1     -47.808  13.539  22.963  0.00  0.00    -0.226 NA
ATOM      2  N   UNL d   1     -47.852  12.254  23.412  0.00  0.00    -0.288 N 
ATOM      3  C   UNL d   1     -47.347  12.866  23.188  0.00  0.00     0.148 A 
ATOM      4  C   UNL d   1     -48.595  13.299  23.065  0.00  0.00     0.107 A 
ATOM      5  C   UNL d   1     -48.639  12.534  23.332  0.00  0.00     0.101 A 
ATOM      6  C   UNL d   1     -47.534  11.533  23.655  0.00  0.00     0.082 A 
ATOM      7  C   UNL d   1     -46.515  12.766  23.203  0.00  0.00     0.037 A 
ATOM      8  C   UNL d   1     -46.702  11.433  23.671  0.00  0.00     0.019 A 
ATOM      9  C   UNL d   1     -46.212  12.026  23.454  0.00  0.00     0.005 A 
ENDROOT
BRANCH   4  10
ATOM     10  C   UNL d   1     -49.242  13.778  22.912  0.00  0.00     0.058 C 
BRANCH  10  11
ATOM     11  S   UNL d   1     -49.210  14.573  23.063  0.00  0.00    -0.059 SA
BRANCH  11  12
ATOM     12  C   UNL d   1     -49.924  15.043  23.068  0.00  0.00     0.141 A 
ATOM     13  N   UNL d   1     -50.549  15.103  22.531  0.00  0.00    -0.230 NA
ATOM     14  C   UNL d   1     -51.061  15.658  22.871  0.00  0.00     0.107 A 
ATOM     15  C   UNL d   1     -50.776  15.919  23.561  0.00  0.00     0.058 A 
ATOM     16  S   UNL d   1     -50.078  15.547  23.691  0.00  0.00    -0.059 SA
ENDBRANCH  11  12
ENDBRANCH  10  11
ENDBRANCH   4  10
TORSDOF 3
ENDMDL
MODEL 2
REMARK VINA RESULT:      -5.7      1.527      4.264
REMARK  3 active torsions:
REMARK  status: ('A' for Active; 'I' for Inactive)
REMARK    1  A    between atoms: C_14  and  C_4 
REMARK    2  A    between atoms: C_5  and  S_10 
REMARK    3  A    between atoms: S_10  and  C_14 
ROOT
ATOM      1  N   UNL d   1     -48.892  13.415  22.350  0.00  0.00    -0.226 NA
ATOM      2  N   UNL d   1     -49.103  14.682  22.805  0.00  0.00    -0.288 N 
ATOM      3  C   UNL d   1     -49.455  14.044  22.418  0.00  0.00     0.148 A 
ATOM      4  C   UNL d   1     -48.205  13.707  22.710  0.00  0.00     0.107 A 
ATOM      5  C   UNL d   1     -48.314  14.462  22.986  0.00  0.00     0.101 A 
ATOM      6  C   UNL d   1     -49.541  15.368  22.939  0.00  0.00     0.082 A 
ATOM      7  C   UNL d   1     -50.251  14.082  22.158  0.00  0.00     0.037 A 
ATOM      8  C   UNL d   1     -50.337  15.406  22.679  0.00  0.00     0.019 A 
ATOM      9  C   UNL d   1     -50.678  14.788  22.304  0.00  0.00     0.005 A 
ENDROOT
BRANCH   4  10
ATOM     10  C   UNL d   1     -47.507  13.282  22.774  0.00  0.00     0.058 C 
BRANCH  10  11
ATOM     11  S   UNL d   1     -47.368  12.815  23.421  0.00  0.00    -0.059 SA
BRANCH  11  12
ATOM     12  C   UNL d   1     -46.710  12.269  23.429  0.00  0.00     0.141 A 
ATOM     13  N   UNL d   1     -45.920  12.355  23.202  0.00  0.00    -0.230 NA
ATOM     14  C   UNL d   1     -45.581  11.615  23.352  0.00  0.00     0.107 A 
ATOM     15  C   UNL d   1     -46.117  11.113  23.647  0.00  0.00     0.058 A 
ATOM     16  S   UNL d   1     -46.814  11.507  23.698  0.00  0.00    -0.059 SA
ENDBRANCH  11  12
ENDBRANCH  10  11
ENDBRANCH   4  10
TORSDOF 3
ENDMDL
MODEL 3
REMARK VINA RESULT:      -5.5      1.841      3.915
REMARK  3 active torsions:
REMARK  status: ('A' for Active; 'I' for Inactive)
REMARK    1  A    between atoms: C_14  and  C_4 
REMARK    2  A    between atoms: C_5  and  S_10 
REMARK    3  A    between atoms: S_10  and  C_14 
ROOT
ATOM      1  N   UNL d   1     -48.822  13.232  23.326  0.00  0.00    -0.226 NA
ATOM      2  N   UNL d   1     -49.631  12.151  23.505  0.00  0.00    -0.288 N 
ATOM      3  C   UNL d   1     -49.624  12.969  23.404  0.00  0.00     0.148 A 
ATOM      4  C   UNL d   1     -48.367  12.543  23.386  0.00  0.00     0.107 A 
ATOM      5  C   UNL d   1     -48.834  11.888  23.493  0.00  0.00     0.101 A 
ATOM      6  C   UNL d   1     -50.351  11.759  23.594  0.00  0.00     0.082 A 
ATOM      7  C   UNL d   1     -50.337  13.409  23.389  0.00  0.00     0.037 A 
ATOM      8  C   UNL d   1     -51.064  12.199  23.580  0.00  0.00     0.019 A 
ATOM      9  C   UNL d   1     -51.057  12.992  23.481  0.00  0.00     0.005 A 
ENDROOT
BRANCH   4  10
ATOM     10  C   UNL d   1     -47.549  12.530  23.342  0.00  0.00     0.058 C 
BRANCH  10  11
ATOM     11  S   UNL d   1     -47.152  13.083  22.905  0.00  0.00    -0.059 SA
BRANCH  11  12
ATOM     12  C   UNL d   1     -46.316  12.995  22.747  0.00  0.00     0.141 A 
ATOM     13  N   UNL d   1     -45.759  12.449  23.019  0.00  0.00    -0.230 NA
ATOM     14  C   UNL d   1     -45.052  12.675  22.653  0.00  0.00     0.107 A 
ATOM     15  C   UNL d   1     -45.163  13.309  22.193  0.00  0.00     0.058 A 
ATOM     16  S   UNL d   1     -45.937  13.513  22.244  0.00  0.00    -0.059 SA
ENDBRANCH  11  12
ENDBRANCH  10  11
ENDBRANCH   4  10
TORSDOF 3
ENDMDL
MODEL 4
REMARK VINA RESULT:      -4.7      1.692      4.137
REMARK  3 active torsions:
REMARK  status: ('A' for Active; 'I' for Inactive)
REMARK    1  A    between atoms: C_14  and  C_4 
REMARK    2  A    between atoms: C_5  and  S_10 
REMARK    3  A    between atoms: S_10  and  C_14 
ROOT
ATOM      1  N   UNL d   1     -48.683  12.932  23.181  0.00  0.00    -0.226 NA
ATOM      2  N   UNL d   1     -49.334  14.128  23.194  0.00  0.00    -0.288 N 
ATOM      3  C   UNL d   1     -49.440  13.311  23.156  0.00  0.00     0.148 A 
ATOM      4  C   UNL d   1     -48.137  13.553  23.234  0.00  0.00     0.107 A 
ATOM      5  C   UNL d   1     -48.510  14.274  23.243  0.00  0.00     0.101 A 
ATOM      6  C   UNL d   1     -49.994  14.624  23.179  0.00  0.00     0.082 A 
ATOM      7  C   UNL d   1     -50.206  12.976  23.102  0.00  0.00     0.037 A 
ATOM      8  C   UNL d   1     -50.760  14.289  23.125  0.00  0.00     0.019 A 
ATOM      9  C   UNL d   1     -50.862  13.498  23.088  0.00  0.00     0.005 A 
ENDROOT
BRANCH   4  10
ATOM     10  C   UNL d   1     -47.325  13.447  23.273  0.00  0.00     0.058 C 
BRANCH  10  11
ATOM     11  S   UNL d   1     -46.878  13.447  22.599  0.00  0.00    -0.059 SA
BRANCH  11  12
ATOM     12  C   UNL d   1     -46.093  13.108  22.598  0.00  0.00     0.141 A 
ATOM     13  N   UNL d   1     -45.744  12.525  23.069  0.00  0.00    -0.230 NA
ATOM     14  C   UNL d   1     -44.973  12.459  22.776  0.00  0.00     0.107 A 
ATOM     15  C   UNL d   1     -44.854  12.959  22.175  0.00  0.00     0.058 A 
ATOM     16  S   UNL d   1     -45.537  13.362  22.058  0.00  0.00    -0.059 SA
ENDBRANCH  11  12
ENDBRANCH  10  11
ENDBRANCH   4  10
TORSDOF 3
ENDMDL
MODEL 5
REMARK VINA RESULT:      -4.6      9.163     10.412
REMARK  3 active torsions:
REMARK  status: ('A' for Active; 'I' for Inactive)
REMARK    1  A    between atoms: C_14  and  C_4 
REMARK    2  A    between atoms: C_5  and  S_10 
REMARK    3  A    between atoms: S_10  and  C_14 
ROOT
ATOM      1  N   UNL d   1     -39.441  13.623  18.059  0.00  0.00    -0.226 NA
ATOM      2  N   UNL d   1     -39.101  14.413  17.002  0.00  0.00    -0.288 N 
ATOM      3  C   UNL d   1     -38.992  13.669  17.342  0.00  0.00     0.148 A 
ATOM      4  C   UNL d   1     -39.812  14.362  18.123  0.00  0.00     0.107 A 
ATOM      5  C   UNL d   1     -39.620  14.845  17.500  0.00  0.00     0.101 A 
ATOM      6  C   UNL d   1     -38.719  14.596  16.294  0.00  0.00     0.082 A 
ATOM      7  C   UNL d   1     -38.500  13.097  16.980  0.00  0.00     0.037 A 
ATOM      8  C   UNL d   1     -38.226  14.023  15.932  0.00  0.00     0.019 A 
ATOM      9  C   UNL d   1     -38.121  13.302  16.261  0.00  0.00     0.005 A 
ENDROOT
BRANCH   4  10
ATOM     10  C   UNL d   1     -40.310  14.571  18.740  0.00  0.00     0.058 C 
BRANCH  10  11
ATOM     11  S   UNL d   1     -40.023  14.974  19.381  0.00  0.00    -0.059 SA
BRANCH  11  12
ATOM     12  C   UNL d   1     -40.535  15.167  20.038  0.00  0.00     0.141 A 
ATOM     13  N   UNL d   1     -41.152  14.750  20.396  0.00  0.00    -0.230 NA
ATOM     14  C   UNL d   1     -41.415  15.250  21.001  0.00  0.00     0.107 A 
ATOM     15  C   UNL d   1     -40.996  15.921  21.015  0.00  0.00     0.058 A 
ATOM     16  S   UNL d   1     -40.453  15.879  20.426  0.00  0.00    -0.059 SA
ENDBRANCH  11  12
ENDBRANCH  10  11
ENDBRANCH   4  10
TORSDOF 3
ENDMDL
MODEL 6
REMARK VINA RESULT:      -4.6      1.637      4.140
REMARK  3 active torsions:
REMARK  status: ('A' for Active; 'I' for Inactive)
REMARK    1  A    between atoms: C_14  and  C_4 
REMARK    2  A    between atoms: C_5  and  S_10 
REMARK    3  A    between atoms: S_10  and  C_14 
ROOT
ATOM      1  N   UNL d   1     -48.680  15.177  22.993  0.00  0.00    -0.226 NA
ATOM      2  N   UNL d   1     -49.818  14.455  23.195  0.00  0.00    -0.288 N 
ATOM      3  C   UNL d   1     -49.491  15.212  23.236  0.00  0.00     0.148 A 
ATOM      4  C   UNL d   1     -48.549  14.380  22.810  0.00  0.00     0.107 A 
ATOM      5  C   UNL d   1     -49.218  13.935  22.926  0.00  0.00     0.101 A 
ATOM      6  C   UNL d   1     -50.607  14.343  23.406  0.00  0.00     0.082 A 
ATOM      7  C   UNL d   1     -49.948  15.867  23.489  0.00  0.00     0.037 A 
ATOM      8  C   UNL d   1     -51.065  14.998  23.658  0.00  0.00     0.019 A 
ATOM      9  C   UNL d   1     -50.748  15.731  23.698  0.00  0.00     0.005 A 
ENDROOT
BRANCH   4  10
ATOM     10  C   UNL d   1     -47.831  14.083  22.547  0.00  0.00     0.058 C 
BRANCH  10  11
ATOM     11  S   UNL d   1     -47.326  13.713  23.059  0.00  0.00    -0.059 SA
BRANCH  11  12
ATOM     12  C   UNL d   1     -46.579  13.402  22.784  0.00  0.00     0.141 A 
ATOM     13  N   UNL d   1     -46.051  13.668  22.207  0.00  0.00    -0.230 NA
ATOM     14  C   UNL d   1     -45.437  13.112  22.217  0.00  0.00     0.107 A 
ATOM     15  C   UNL d   1     -45.574  12.550  22.756  0.00  0.00     0.058 A 
ATOM     16  S   UNL d   1     -46.274  12.719  23.109  0.00  0.00    -0.059 SA
ENDBRANCH  11  12
ENDBRANCH  10  11
ENDBRANCH   4  10
TORSDOF 3
ENDMDL
MODEL 7
REMARK VINA RESULT:      -4.4      9.398     10.161
REMARK  3 active torsions:
REMARK  status: ('A' for Active; 'I' for Inactive)
REMARK    1  A    between atoms: C_14  and  C_4 
REMARK    2  A    between atoms: C_5  and  S_10 
REMARK    3  A    between atoms: S_10  and  C_14 
ROOT
ATOM      1  N   UNL d   1     -40.019  14.122  18.989  0.00  0.00    -0.226 NA
ATOM      2  N   UNL d   1     -40.552  15.334  18.666  0.00  0.00    -0.288 N 
ATOM      3  C   UNL d   1     -40.284  14.618  18.355  0.00  0.00     0.148 A 
ATOM      4  C   UNL d   1     -40.142  14.571  19.674  0.00  0.00     0.107 A 
ATOM      5  C   UNL d   1     -40.460  15.297  19.499  0.00  0.00     0.101 A 
ATOM      6  C   UNL d   1     -40.840  15.915  18.157  0.00  0.00     0.082 A 
ATOM      7  C   UNL d   1     -40.299  14.473  17.530  0.00  0.00     0.037 A 
ATOM      8  C   UNL d   1     -40.855  15.770  17.332  0.00  0.00     0.019 A 
ATOM      9  C   UNL d   1     -40.596  15.077  17.031  0.00  0.00     0.005 A 
ENDROOT
BRANCH   4  10
ATOM     10  C   UNL d   1     -39.964  14.309  20.430  0.00  0.00     0.058 C 
BRANCH  10  11
ATOM     11  S   UNL d   1     -39.248  14.479  20.766  0.00  0.00    -0.059 SA
BRANCH  11  12
ATOM     12  C   UNL d   1     -39.047  14.175  21.540  0.00  0.00     0.141 A 
ATOM     13  N   UNL d   1     -39.410  13.609  22.020  0.00  0.00    -0.230 NA
ATOM     14  C   UNL d   1     -38.934  13.576  22.696  0.00  0.00     0.107 A 
ATOM     15  C   UNL d   1     -38.327  14.080  22.639  0.00  0.00     0.058 A 
ATOM     16  S   UNL d   1     -38.388  14.453  21.931  0.00  0.00    -0.059 SA
ENDBRANCH  11  12
ENDBRANCH  10  11
ENDBRANCH   4  10
TORSDOF 3
ENDMDL
MODEL 8
REMARK VINA RESULT:      -4.4      9.410      9.733
REMARK  3 active torsions:
REMARK  status: ('A' for Active; 'I' for Inactive)
REMARK    1  A    between atoms: C_14  and  C_4 
REMARK    2  A    between atoms: C_5  and  S_10 
REMARK    3  A    between atoms: S_10  and  C_14 
ROOT
ATOM      1  N   UNL d   1     -39.995  14.423  20.231  0.00  0.00    -0.226 NA
ATOM      2  N   UNL d   1     -39.698  15.372  21.162  0.00  0.00    -0.288 N 
ATOM      3  C   UNL d   1     -39.660  14.565  20.995  0.00  0.00     0.148 A 
ATOM      4  C   UNL d   1     -40.228  15.171  19.960  0.00  0.00     0.107 A 
ATOM      5  C   UNL d   1     -40.057  15.749  20.504  0.00  0.00     0.101 A 
ATOM      6  C   UNL d   1     -39.404  15.653  21.880  0.00  0.00     0.082 A 
ATOM      7  C   UNL d   1     -39.329  14.026  21.544  0.00  0.00     0.037 A 
ATOM      8  C   UNL d   1     -39.073  15.114  22.429  0.00  0.00     0.019 A 
ATOM      9  C   UNL d   1     -39.036  14.332  22.267  0.00  0.00     0.005 A 
ENDROOT
BRANCH   4  10
ATOM     10  C   UNL d   1     -40.584  15.305  19.234  0.00  0.00     0.058 C 
BRANCH  10  11
ATOM     11  S   UNL d   1     -40.147  15.291  18.553  0.00  0.00    -0.059 SA
BRANCH  11  12
ATOM     12  C   UNL d   1     -40.517  15.438  17.796  0.00  0.00     0.141 A 
ATOM     13  N   UNL d   1     -41.255  15.222  17.493  0.00  0.00    -0.230 NA
ATOM     14  C   UNL d   1     -41.264  15.541  16.729  0.00  0.00     0.107 A 
ATOM     15  C   UNL d   1     -40.589  15.921  16.573  0.00  0.00     0.058 A 
ATOM     16  S   UNL d   1     -40.123  15.864  17.223  0.00  0.00    -0.059 SA
ENDBRANCH  11  12
ENDBRANCH  10  11
ENDBRANCH   4  10
TORSDOF 3
ENDMDL
MODEL 9
REMARK VINA RESULT:      -4.4      9.388     10.906
REMARK  3 active torsions:
REMARK  status: ('A' for Active; 'I' for Inactive)
REMARK    1  A    between atoms: C_14  and  C_4 
REMARK    2  A    between atoms: C_5  and  S_10 
REMARK    3  A    between atoms: S_10  and  C_14 
ROOT
ATOM      1  N   UNL d   1     -40.292  15.298  18.635  0.00  0.00    -0.226 NA
ATOM      2  N   UNL d   1     -40.116  14.749  19.870  0.00  0.00    -0.288 N 
ATOM      3  C   UNL d   1     -40.486  15.360  19.458  0.00  0.00     0.148 A 
ATOM      4  C   UNL d   1     -39.800  14.634  18.585  0.00  0.00     0.107 A 
ATOM      5  C   UNL d   1     -39.685  14.294  19.312  0.00  0.00     0.101 A 
ATOM      6  C   UNL d   1     -40.220  14.688  20.686  0.00  0.00     0.082 A 
ATOM      7  C   UNL d   1     -40.966  15.920  19.855  0.00  0.00     0.037 A 
ATOM      8  C   UNL d   1     -40.700  15.248  21.083  0.00  0.00     0.019 A 
ATOM      9  C   UNL d   1     -41.058  15.841  20.684  0.00  0.00     0.005 A 
ENDROOT
BRANCH   4  10
ATOM     10  C   UNL d   1     -39.473  14.359  17.884  0.00  0.00     0.058 C 
BRANCH  10  11
ATOM     11  S   UNL d   1     -39.083  14.865  17.387  0.00  0.00    -0.059 SA
BRANCH  11  12
ATOM     12  C   UNL d   1     -38.694  14.569  16.685  0.00  0.00     0.141 A 
ATOM     13  N   UNL d   1     -38.678  13.819  16.339  0.00  0.00    -0.230 NA
ATOM     14  C   UNL d   1     -38.199  13.911  15.670  0.00  0.00     0.107 A 
ATOM     15  C   UNL d   1     -37.940  14.656  15.608  0.00  0.00     0.058 A 
ATOM     16  S   UNL d   1     -38.239  15.068  16.228  0.00  0.00    -0.059 SA
ENDBRANCH  11  12
ENDBRANCH  10  11
ENDBRANCH   4  10
TORSDOF 3
ENDMDL
