MODEL 1
REMARK VINA RESULT:      48.7      0.000      0.000
REMARK  4 active torsions:
REMARK  status: ('A' for Active; 'I' for Inactive)
REMARK    1  A    between atoms: C_2  and  S_1 
REMARK    2  A    between atoms: N_3  and  S_1 
REMARK    3  A    between atoms: O_13  and  C_7 
REMARK    4  A    between atoms: O_14  and  C_11 
ROOT
ATOM      1  S   UNL d   1      58.739  49.331  50.445  0.00  0.00     0.273 S 
ATOM      2  O   UNL d   1      58.773  49.706  51.181  0.00  0.00    -0.200 OA
ATOM      3  O   UNL d   1      59.432  49.039  50.097  0.00  0.00    -0.200 OA
ENDROOT
BRANCH   1   4
ATOM      4  C   UNL d   1      59.456  49.415  50.832  0.00  0.00     0.128 A 
ATOM      5  C   UNL d   1      60.169  49.367  50.421  0.00  0.00     0.039 A 
ATOM      6  C   UNL d   1      60.890  49.451  50.811  0.00  0.00     0.095 A 
ATOM      7  C   UNL d   1      60.890  49.585  51.621  0.00  0.00     0.026 A 
ATOM      8  C   UNL d   1      60.190  49.634  52.038  0.00  0.00     0.027 A 
ATOM      9  C   UNL d   1      59.470  49.550  51.647  0.00  0.00     0.106 A 
BRANCH   6  10
ATOM     10  O   UNL d   1      61.596  49.402  50.391  0.00  0.00    -0.328 OA
ATOM     11  C   UNL d   1      62.317  49.408  50.791  0.00  0.00     0.181 C 
ENDBRANCH   6  10
BRANCH   9  12
ATOM     12  O   UNL d   1      58.764  49.598  52.063  0.00  0.00    -0.327 OA
ATOM     13  C   UNL d   1      58.779  49.707  52.882  0.00  0.00     0.181 C 
ENDBRANCH   9  12
ENDBRANCH   1   4
BRANCH   1  14
ATOM     14  N   UNL d   1      58.008  49.251  50.059  0.00  0.00    -0.232 N 
ATOM     15  C   UNL d   1      57.353  48.981  50.485  0.00  0.00     0.075 A 
ATOM     16  C   UNL d   1      56.623  48.901  50.099  0.00  0.00     0.018 A 
ATOM     17  C   UNL d   1      57.419  48.793  51.286  0.00  0.00     0.020 C 
ATOM     18  C   UNL d   1      56.558  49.089  49.299  0.00  0.00     0.003 A 
ATOM     19  C   UNL d   1      57.222  49.359  48.876  0.00  0.00     0.018 A 
ATOM     20  C   UNL d   1      57.951  49.441  49.258  0.00  0.00     0.075 A 
ATOM     21  C   UNL d   1      58.607  49.707  48.843  0.00  0.00     0.020 C 
ENDBRANCH   1  14
TORSDOF 4
ENDMDL
