MODEL 1
REMARK VINA RESULT:      21.4      0.000      0.000
REMARK  3 active torsions:
REMARK  status: ('A' for Active; 'I' for Inactive)
REMARK    1  A    between atoms: N_5  and  C_1 
REMARK    2  A    between atoms: C_8  and  C_2 
REMARK       I    between atoms: C_7  and  N_5 
REMARK    3  A    between atoms: C_9  and  C_7 
ROOT
ATOM      1  C   UNL d   1      44.702 -15.084  36.819  0.00  0.00     0.119 A 
ATOM      2  C   UNL d   1      45.185 -14.550  37.239  0.00  0.00     0.084 A 
ATOM      3  S   UNL d   1      45.193 -15.614  36.435  0.00  0.00    -0.068 SA
ATOM      4  C   UNL d   1      45.971 -14.760  37.108  0.00  0.00     0.013 A 
ATOM      5  C   UNL d   1      45.976 -15.423  36.607  0.00  0.00     0.031 A 
ATOM      6  C   UNL d   1      46.635 -14.386  37.414  0.00  0.00     0.001 C 
ATOM      7  C   UNL d   1      46.646 -15.812  36.336  0.00  0.00     0.007 C 
ENDROOT
BRANCH   1   8
ATOM      8  N   UNL d   1      43.881 -15.074  36.798  0.00  0.00    -0.200 NA
ATOM      9  C   UNL d   1      43.471 -15.755  36.578  0.00  0.00     0.302 C 
ATOM     10  O   UNL d   1      43.875 -16.447  36.380  0.00  0.00    -0.263 OA
BRANCH   9  11
ATOM     11  C   UNL d   1      42.641 -15.738  36.559  0.00  0.00     0.158 A 
ATOM     12  O   UNL d   1      42.169 -15.087  36.750  0.00  0.00    -0.300 OA
ATOM     13  C   UNL d   1      41.367 -15.315  36.654  0.00  0.00     0.123 A 
ATOM     14  C   UNL d   1      41.360 -16.096  36.408  0.00  0.00     0.029 A 
ATOM     15  C   UNL d   1      42.138 -16.371  36.344  0.00  0.00     0.032 A 
ENDBRANCH   9  11
ENDBRANCH   1   8
BRANCH   2  16
ATOM     16  C   UNL d   1      44.920 -13.925  37.703  0.00  0.00     0.299 C 
ATOM     17  O   UNL d   1      44.583 -14.075  38.449  0.00  0.00    -0.264 OA
ATOM     18  N   UNL d   1      44.985 -13.142  37.436  0.00  0.00    -0.102 N 
ENDBRANCH   2  16
TORSDOF 3
ENDMDL
