MODEL 1
REMARK VINA RESULT:      60.4      0.000      0.000
REMARK  9 active torsions:
REMARK  status: ('A' for Active; 'I' for Inactive)
REMARK    1  A    between atoms: C_22  and  N_1 
REMARK    2  A    between atoms: S_10  and  C_2 
REMARK    3  A    between atoms: N_8  and  C_9 
REMARK    4  A    between atoms: C_24  and  S_10 
REMARK    5  A    between atoms: C_11  and  C_24 
REMARK       I    between atoms: N_15  and  C_11 
REMARK    6  A    between atoms: C_13  and  C_25 
REMARK    7  A    between atoms: C_25  and  N_15 
REMARK    8  A    between atoms: C_30  and  C_22 
REMARK    9  A    between atoms: C_31  and  C_30 
ROOT
ATOM      1  N   UNL d   1      14.526  15.831  -3.640  0.00  0.00    -0.253 N 
ATOM      2  C   UNL d   1      14.118  15.290  -4.111  0.00  0.00     0.182 A 
ATOM      3  C   UNL d   1      14.608  16.618  -3.893  0.00  0.00     0.268 A 
ATOM      4  C   UNL d   1      14.284  16.859  -4.611  0.00  0.00     0.076 A 
ATOM      5  N   UNL d   1      13.792  15.536  -4.835  0.00  0.00    -0.222 NA
ATOM      6  C   UNL d   1      13.876  16.318  -5.082  0.00  0.00     0.088 A 
ATOM      7  C   UNL d   1      14.368  17.639  -4.858  0.00  0.00     0.024 A 
ATOM      8  C   UNL d   1      14.044  17.880  -5.576  0.00  0.00     0.065 A 
ATOM      9  O   UNL d   1      15.016  17.159  -3.423  0.00  0.00    -0.267 OA
ATOM     10  C   UNL d   1      13.552  16.557  -5.800  0.00  0.00     0.021 A 
ATOM     11  C   UNL d   1      13.636  17.339  -6.046  0.00  0.00     0.019 A 
ENDROOT
BRANCH   2  12
ATOM     12  S   UNL d   1      14.033  14.504  -3.865  0.00  0.00    -0.044 SA
BRANCH  12  13
ATOM     13  C   UNL d   1      13.536  13.984  -4.288  0.00  0.00     0.101 C 
BRANCH  13  14
ATOM     14  C   UNL d   1      13.401  13.219  -4.001  0.00  0.00     0.286 C 
ATOM     15  N   UNL d   1      13.599  13.034  -3.217  0.00  0.00    -0.204 NA
ATOM     16  O   UNL d   1      13.072  12.649  -4.498  0.00  0.00    -0.265 OA
BRANCH  15  17
ATOM     17  C   UNL d   1      13.463  12.264  -2.929  0.00  0.00     0.127 C 
BRANCH  17  18
ATOM     18  C   UNL d   1      13.656  12.081  -2.142  0.00  0.00     0.119 A 
ATOM     19  O   UNL d   1      13.192  11.929  -1.484  0.00  0.00    -0.304 OA
ATOM     20  C   UNL d   1      13.693  11.779  -0.844  0.00  0.00     0.123 A 
ATOM     21  C   UNL d   1      14.470  11.838  -1.104  0.00  0.00     0.029 A 
ATOM     22  C   UNL d   1      14.446  12.026  -1.911  0.00  0.00     0.028 A 
ENDBRANCH  17  18
ENDBRANCH  15  17
ENDBRANCH  13  14
ENDBRANCH  12  13
ENDBRANCH   2  12
BRANCH   1  23
ATOM     23  C   UNL d   1      14.851  15.588  -2.921  0.00  0.00     0.085 C 
BRANCH  23  24
ATOM     24  C   UNL d   1      14.774  16.066  -2.253  0.00  0.00     0.019 C 
BRANCH  24  25
ATOM     25  C   UNL d   1      15.161  15.856  -1.548  0.00  0.00     0.002 C 
ATOM     26  C   UNL d   1      15.075  16.336  -0.867  0.00  0.00     0.000 C 
ENDBRANCH  24  25
ENDBRANCH  23  24
ENDBRANCH   1  23
BRANCH   8  27
ATOM     27  N   UNL d   1      14.127  18.660  -5.822  0.00  0.00    -0.300 N 
ATOM     28  C   UNL d   1      13.475  19.069  -6.141  0.00  0.00     0.107 A 
ATOM     29  C   UNL d   1      13.559  19.851  -6.388  0.00  0.00     0.142 A 
ATOM     30  O   UNL d   1      14.295  20.237  -6.322  0.00  0.00    -0.300 OA
ATOM     31  C   UNL d   1      14.948  19.827  -6.003  0.00  0.00     0.142 A 
ATOM     32  C   UNL d   1      14.859  19.040  -5.755  0.00  0.00     0.107 A 
ENDBRANCH   8  27
TORSDOF 9
ENDMDL
