MODEL 1
REMARK VINA RESULT:      -2.9      0.000      0.000
REMARK  2 active torsions:
REMARK  status: ('A' for Active; 'I' for Inactive)
REMARK    1  A    between atoms: C_3  and  C_1 
REMARK       I    between atoms: C_2  and  N_4 
REMARK    2  A    between atoms: N_4  and  C_12 
ROOT
ATOM      1  C   UNL d   1      55.877  -0.094  32.839  0.00  0.00     0.072 A 
ATOM      2  C   UNL d   1      56.039   0.638  32.491  0.00  0.00     0.005 A 
ATOM      3  C   UNL d   1      56.227  -0.780  32.540  0.00  0.00     0.005 A 
ATOM      4  C   UNL d   1      56.900  -0.004  31.546  0.00  0.00     0.100 A 
ATOM      5  C   UNL d   1      56.550   0.682  31.845  0.00  0.00     0.020 A 
ATOM      6  C   UNL d   1      56.738  -0.735  31.893  0.00  0.00     0.020 A 
ENDROOT
BRANCH   1   7
ATOM      7  C   UNL d   1      55.364  -0.140  33.488  0.00  0.00     0.419 C 
ATOM      8  F   UNL d   1      54.899  -0.181  34.077  0.00  0.00    -0.166 F 
ATOM      9  F   UNL d   1      54.505  -0.245  33.503  0.00  0.00    -0.166 F 
ATOM     10  F   UNL d   1      55.546  -0.095  34.331  0.00  0.00    -0.166 F 
ENDBRANCH   1   7
BRANCH   4  11
ATOM     11  N   UNL d   1      57.412   0.036  30.899  0.00  0.00    -0.056 NA
ATOM     12  C   UNL d   1      58.162   0.379  30.979  0.00  0.00     0.787 C 
ATOM     13  N   UNL d   1      58.677   0.421  30.336  0.00  0.00     0.064 N 
ATOM     14  N   UNL d   1      58.392   0.680  31.714  0.00  0.00     0.064 N 
ENDBRANCH   4  11
TORSDOF 2
ENDMDL
