MODEL 1
REMARK VINA RESULT:      -7.3      0.000      0.000
REMARK  4 active torsions:
REMARK  status: ('A' for Active; 'I' for Inactive)
REMARK    1  A    between atoms: C_4  and  C_10 
REMARK    2  A    between atoms: C_18  and  C_7 
REMARK       I    between atoms: C_10  and  N_17 
REMARK    3  A    between atoms: N_17  and  C_20 
REMARK    4  A    between atoms: C_20  and  C_18 
ROOT
ATOM      1  C   UNL d   1     -48.209  11.474  23.418  0.00  0.00     0.042 C 
ENDROOT
BRANCH   1   2
ATOM      2  C   UNL d   1     -48.861  11.935  23.192  0.00  0.00     0.102 A 
ATOM      3  N   UNL d   1     -49.092  12.090  22.422  0.00  0.00    -0.227 NA
ATOM      4  C   UNL d   1     -49.758  12.564  22.440  0.00  0.00     0.148 A 
ATOM      5  N   UNL d   1     -49.950  12.709  23.230  0.00  0.00    -0.288 N 
ATOM      6  C   UNL d   1     -50.228  12.891  21.846  0.00  0.00     0.035 A 
ATOM      7  C   UNL d   1     -49.389  12.315  23.697  0.00  0.00     0.101 A 
ATOM      8  C   UNL d   1     -50.600  13.173  23.426  0.00  0.00     0.082 A 
ATOM      9  C   UNL d   1     -51.063  13.495  22.832  0.00  0.00     0.019 A 
ATOM     10  C   UNL d   1     -50.879  13.355  22.033  0.00  0.00     0.004 A 
ATOM     11  C   UNL d   1     -50.044  12.751  21.043  0.00  0.00     0.003 C 
ENDBRANCH   1   2
BRANCH   1  12
ATOM     12  C   UNL d   1     -47.441  11.771  23.329  0.00  0.00     0.104 C 
BRANCH  12  13
ATOM     13  N   UNL d   1     -46.796  11.319  23.557  0.00  0.00    -0.205 NA
ATOM     14  C   UNL d   1     -46.028  11.616  23.469  0.00  0.00     0.302 C 
ATOM     15  O   UNL d   1     -45.393  11.164  23.698  0.00  0.00    -0.263 OA
BRANCH  14  16
ATOM     16  C   UNL d   1     -45.918  12.371  23.149  0.00  0.00     0.158 A 
ATOM     17  O   UNL d   1     -46.108  13.121  23.421  0.00  0.00    -0.296 OA
ATOM     18  C   UNL d   1     -45.860  13.674  22.858  0.00  0.00     0.134 A 
ATOM     19 BR   UNL d   1     -45.932  14.496  22.887  0.00  0.00    -0.022 Br
ATOM     20  C   UNL d   1     -45.521  13.248  22.250  0.00  0.00     0.034 A 
ATOM     21  C   UNL d   1     -45.550  12.449  22.416  0.00  0.00     0.032 A 
ENDBRANCH  14  16
ENDBRANCH  12  13
ENDBRANCH   1  12
TORSDOF 4
ENDMDL
MODEL 2
REMARK VINA RESULT:      -7.0      2.035      4.143
REMARK  4 active torsions:
REMARK  status: ('A' for Active; 'I' for Inactive)
REMARK    1  A    between atoms: C_4  and  C_10 
REMARK    2  A    between atoms: C_18  and  C_7 
REMARK       I    between atoms: C_10  and  N_17 
REMARK    3  A    between atoms: N_17  and  C_20 
REMARK    4  A    between atoms: C_20  and  C_18 
ROOT
ATOM      1  C   UNL d   1     -48.250  11.849  23.698  0.00  0.00     0.042 C 
ENDROOT
BRANCH   1   2
ATOM      2  C   UNL d   1     -47.594  12.248  23.381  0.00  0.00     0.102 A 
ATOM      3  N   UNL d   1     -47.521  13.060  23.304  0.00  0.00    -0.227 NA
ATOM      4  C   UNL d   1     -46.795  13.226  22.968  0.00  0.00     0.148 A 
ATOM      5  N   UNL d   1     -46.406  12.511  22.831  0.00  0.00    -0.288 N 
ATOM      6  C   UNL d   1     -46.422  13.933  22.761  0.00  0.00     0.035 A 
ATOM      7  C   UNL d   1     -46.906  11.903  23.089  0.00  0.00     0.101 A 
ATOM      8  C   UNL d   1     -45.655  12.499  22.493  0.00  0.00     0.082 A 
ATOM      9  C   UNL d   1     -45.290  13.204  22.291  0.00  0.00     0.019 A 
ATOM     10  C   UNL d   1     -45.673  13.930  22.424  0.00  0.00     0.004 A 
ATOM     11  C   UNL d   1     -46.806  14.663  22.895  0.00  0.00     0.003 C 
ENDBRANCH   1   2
BRANCH   1  12
ATOM     12  C   UNL d   1     -49.017  12.067  23.471  0.00  0.00     0.104 C 
BRANCH  12  13
ATOM     13  N   UNL d   1     -49.657  11.604  23.690  0.00  0.00    -0.205 NA
ATOM     14  C   UNL d   1     -50.424  11.830  23.478  0.00  0.00     0.302 C 
ATOM     15  O   UNL d   1     -51.055  11.366  23.698  0.00  0.00    -0.263 OA
BRANCH  14  16
ATOM     16  C   UNL d   1     -50.540  12.524  23.044  0.00  0.00     0.158 A 
ATOM     17  O   UNL d   1     -50.554  13.316  23.259  0.00  0.00    -0.296 OA
ATOM     18  C   UNL d   1     -50.694  13.768  22.582  0.00  0.00     0.134 A 
ATOM     19 BR   UNL d   1     -50.756  14.590  22.523  0.00  0.00    -0.022 Br
ATOM     20  C   UNL d   1     -50.763  13.241  21.962  0.00  0.00     0.034 A 
ATOM     21  C   UNL d   1     -50.670  12.476  22.232  0.00  0.00     0.032 A 
ENDBRANCH  14  16
ENDBRANCH  12  13
ENDBRANCH   1  12
TORSDOF 4
ENDMDL
MODEL 3
REMARK VINA RESULT:      -7.0      2.442      4.645
REMARK  4 active torsions:
REMARK  status: ('A' for Active; 'I' for Inactive)
REMARK    1  A    between atoms: C_4  and  C_10 
REMARK    2  A    between atoms: C_18  and  C_7 
REMARK       I    between atoms: C_10  and  N_17 
REMARK    3  A    between atoms: N_17  and  C_20 
REMARK    4  A    between atoms: C_20  and  C_18 
ROOT
ATOM      1  C   UNL d   1     -48.239  14.936  22.916  0.00  0.00     0.042 C 
ENDROOT
BRANCH   1   2
ATOM      2  C   UNL d   1     -47.653  14.349  22.888  0.00  0.00     0.102 A 
ATOM      3  N   UNL d   1     -47.710  13.602  23.219  0.00  0.00    -0.227 NA
ATOM      4  C   UNL d   1     -47.017  13.196  23.068  0.00  0.00     0.148 A 
ATOM      5  N   UNL d   1     -46.517  13.692  22.637  0.00  0.00    -0.288 N 
ATOM      6  C   UNL d   1     -46.760  12.436  23.262  0.00  0.00     0.035 A 
ATOM      7  C   UNL d   1     -46.916  14.410  22.526  0.00  0.00     0.101 A 
ATOM      8  C   UNL d   1     -45.772  13.435  22.401  0.00  0.00     0.082 A 
ATOM      9  C   UNL d   1     -45.523  12.679  22.596  0.00  0.00     0.019 A 
ATOM     10  C   UNL d   1     -46.018  12.172  23.030  0.00  0.00     0.004 A 
ATOM     11  C   UNL d   1     -47.257  11.925  23.698  0.00  0.00     0.003 C 
ENDBRANCH   1   2
BRANCH   1  12
ATOM     12  C   UNL d   1     -49.036  14.723  22.991  0.00  0.00     0.104 C 
BRANCH  12  13
ATOM     13  N   UNL d   1     -49.617  15.301  22.994  0.00  0.00    -0.205 NA
ATOM     14  C   UNL d   1     -50.415  15.088  22.943  0.00  0.00     0.302 C 
ATOM     15  O   UNL d   1     -50.987  15.666  22.947  0.00  0.00    -0.263 OA
BRANCH  14  16
ATOM     16  C   UNL d   1     -50.621  14.289  22.890  0.00  0.00     0.158 A 
ATOM     17  O   UNL d   1     -50.609  13.676  23.434  0.00  0.00    -0.296 OA
ATOM     18  C   UNL d   1     -50.880  12.990  23.062  0.00  0.00     0.134 A 
ATOM     19 BR   UNL d   1     -50.965  12.235  23.386  0.00  0.00    -0.022 Br
ATOM     20  C   UNL d   1     -51.053  13.198  22.292  0.00  0.00     0.034 A 
ATOM     21  C   UNL d   1     -50.899  13.991  22.173  0.00  0.00     0.032 A 
ENDBRANCH  14  16
ENDBRANCH  12  13
ENDBRANCH   1  12
TORSDOF 4
ENDMDL
MODEL 4
REMARK VINA RESULT:      -6.6      2.361      4.583
REMARK  4 active torsions:
REMARK  status: ('A' for Active; 'I' for Inactive)
REMARK    1  A    between atoms: C_4  and  C_10 
REMARK    2  A    between atoms: C_18  and  C_7 
REMARK       I    between atoms: C_10  and  N_17 
REMARK    3  A    between atoms: N_17  and  C_20 
REMARK    4  A    between atoms: C_20  and  C_18 
ROOT
ATOM      1  C   UNL d   1     -47.994  14.609  22.948  0.00  0.00     0.042 C 
ENDROOT
BRANCH   1   2
ATOM      2  C   UNL d   1     -47.442  13.990  22.989  0.00  0.00     0.102 A 
ATOM      3  N   UNL d   1     -46.747  13.941  22.559  0.00  0.00    -0.227 NA
ATOM      4  C   UNL d   1     -46.363  13.249  22.761  0.00  0.00     0.148 A 
ATOM      5  N   UNL d   1     -46.820  12.856  23.325  0.00  0.00    -0.288 N 
ATOM      6  C   UNL d   1     -45.653  12.910  22.513  0.00  0.00     0.035 A 
ATOM      7  C   UNL d   1     -47.493  13.321  23.466  0.00  0.00     0.101 A 
ATOM      8  C   UNL d   1     -46.575  12.136  23.638  0.00  0.00     0.082 A 
ATOM      9  C   UNL d   1     -45.869  11.804  23.387  0.00  0.00     0.019 A 
ATOM     10  C   UNL d   1     -45.400  12.191  22.819  0.00  0.00     0.004 A 
ATOM     11  C   UNL d   1     -45.181  13.298  21.943  0.00  0.00     0.003 C 
ENDBRANCH   1   2
BRANCH   1  12
ATOM     12  C   UNL d   1     -48.778  14.451  22.731  0.00  0.00     0.104 C 
BRANCH  12  13
ATOM     13  N   UNL d   1     -49.283  15.067  22.539  0.00  0.00    -0.205 NA
ATOM     14  C   UNL d   1     -50.095  14.929  22.461  0.00  0.00     0.302 C 
ATOM     15  O   UNL d   1     -50.592  15.544  22.271  0.00  0.00    -0.263 OA
BRANCH  14  16
ATOM     16  C   UNL d   1     -50.392  14.167  22.580  0.00  0.00     0.158 A 
ATOM     17  O   UNL d   1     -50.535  13.726  23.257  0.00  0.00    -0.296 OA
ATOM     18  C   UNL d   1     -50.837  12.991  23.032  0.00  0.00     0.134 A 
ATOM     19 BR   UNL d   1     -51.063  12.363  23.519  0.00  0.00    -0.022 Br
ATOM     20  C   UNL d   1     -50.874  12.995  22.216  0.00  0.00     0.034 A 
ATOM     21  C   UNL d   1     -50.604  13.710  21.927  0.00  0.00     0.032 A 
ENDBRANCH  14  16
ENDBRANCH  12  13
ENDBRANCH   1  12
TORSDOF 4
ENDMDL
MODEL 5
REMARK VINA RESULT:      -6.3      1.494      2.104
REMARK  4 active torsions:
REMARK  status: ('A' for Active; 'I' for Inactive)
REMARK    1  A    between atoms: C_4  and  C_10 
REMARK    2  A    between atoms: C_18  and  C_7 
REMARK       I    between atoms: C_10  and  N_17 
REMARK    3  A    between atoms: N_17  and  C_20 
REMARK    4  A    between atoms: C_20  and  C_18 
ROOT
ATOM      1  C   UNL d   1     -48.009  14.491  22.792  0.00  0.00     0.042 C 
ENDROOT
BRANCH   1   2
ATOM      2  C   UNL d   1     -48.721  14.097  22.626  0.00  0.00     0.102 A 
ATOM      3  N   UNL d   1     -49.087  13.548  23.110  0.00  0.00    -0.227 NA
ATOM      4  C   UNL d   1     -49.772  13.293  22.746  0.00  0.00     0.148 A 
ATOM      5  N   UNL d   1     -49.839  13.686  22.022  0.00  0.00    -0.288 N 
ATOM      6  C   UNL d   1     -50.356  12.753  22.966  0.00  0.00     0.035 A 
ATOM      7  C   UNL d   1     -49.182  14.187  21.950  0.00  0.00     0.101 A 
ATOM      8  C   UNL d   1     -50.479  13.543  21.525  0.00  0.00     0.082 A 
ATOM      9  C   UNL d   1     -51.055  13.006  21.749  0.00  0.00     0.019 A 
ATOM     10  C   UNL d   1     -50.997  12.605  22.475  0.00  0.00     0.004 A 
ATOM     11  C   UNL d   1     -50.299  12.350  23.695  0.00  0.00     0.003 C 
ENDBRANCH   1   2
BRANCH   1  12
ATOM     12  C   UNL d   1     -47.292  14.076  22.777  0.00  0.00     0.104 C 
BRANCH  12  13
ATOM     13  N   UNL d   1     -46.583  14.483  22.725  0.00  0.00    -0.205 NA
ATOM     14  C   UNL d   1     -45.865  14.074  22.776  0.00  0.00     0.302 C 
ATOM     15  O   UNL d   1     -45.164  14.483  22.725  0.00  0.00    -0.263 OA
BRANCH  14  16
ATOM     16  C   UNL d   1     -45.869  13.254  22.879  0.00  0.00     0.158 A 
ATOM     17  O   UNL d   1     -46.182  12.770  23.463  0.00  0.00    -0.296 OA
ATOM     18  C   UNL d   1     -46.014  11.984  23.270  0.00  0.00     0.134 A 
ATOM     19 BR   UNL d   1     -46.216  11.303  23.690  0.00  0.00    -0.022 Br
ATOM     20  C   UNL d   1     -45.600  12.003  22.566  0.00  0.00     0.034 A 
ATOM     21  C   UNL d   1     -45.505  12.774  22.316  0.00  0.00     0.032 A 
ENDBRANCH  14  16
ENDBRANCH  12  13
ENDBRANCH   1  12
TORSDOF 4
ENDMDL
MODEL 6
REMARK VINA RESULT:      -6.2      8.364     10.044
REMARK  4 active torsions:
REMARK  status: ('A' for Active; 'I' for Inactive)
REMARK    1  A    between atoms: C_4  and  C_10 
REMARK    2  A    between atoms: C_18  and  C_7 
REMARK       I    between atoms: C_10  and  N_17 
REMARK    3  A    between atoms: N_17  and  C_20 
REMARK    4  A    between atoms: C_20  and  C_18 
ROOT
ATOM      1  C   UNL d   1     -40.724  14.488  18.727  0.00  0.00     0.042 C 
ENDROOT
BRANCH   1   2
ATOM      2  C   UNL d   1     -40.142  14.304  18.165  0.00  0.00     0.102 A 
ATOM      3  N   UNL d   1     -39.673  13.632  18.164  0.00  0.00    -0.227 NA
ATOM      4  C   UNL d   1     -39.173  13.662  17.519  0.00  0.00     0.148 A 
ATOM      5  N   UNL d   1     -39.328  14.361  17.107  0.00  0.00    -0.288 N 
ATOM      6  C   UNL d   1     -38.590  13.151  17.238  0.00  0.00     0.035 A 
ATOM      7  C   UNL d   1     -39.932  14.760  17.512  0.00  0.00     0.101 A 
ATOM      8  C   UNL d   1     -38.908  14.548  16.425  0.00  0.00     0.082 A 
ATOM      9  C   UNL d   1     -38.330  14.037  16.151  0.00  0.00     0.019 A 
ATOM     10  C   UNL d   1     -38.166  13.330  16.558  0.00  0.00     0.004 A 
ATOM     11  C   UNL d   1     -38.425  12.441  17.646  0.00  0.00     0.003 C 
ENDBRANCH   1   2
BRANCH   1  12
ATOM     12  C   UNL d   1     -40.505  14.792  19.466  0.00  0.00     0.104 C 
BRANCH  12  13
ATOM     13  N   UNL d   1     -41.019  15.280  19.878  0.00  0.00    -0.205 NA
ATOM     14  C   UNL d   1     -40.892  15.433  20.681  0.00  0.00     0.302 C 
ATOM     15  O   UNL d   1     -41.405  15.918  21.085  0.00  0.00    -0.263 OA
BRANCH  14  16
ATOM     16  C   UNL d   1     -40.244  15.091  21.063  0.00  0.00     0.158 A 
ATOM     17  O   UNL d   1     -40.099  14.331  21.336  0.00  0.00    -0.296 OA
ATOM     18  C   UNL d   1     -39.346  14.314  21.676  0.00  0.00     0.134 A 
ATOM     19 BR   UNL d   1     -38.959  13.672  22.024  0.00  0.00    -0.022 Br
ATOM     20  C   UNL d   1     -39.043  15.068  21.604  0.00  0.00     0.034 A 
ATOM     21  C   UNL d   1     -39.583  15.554  21.231  0.00  0.00     0.032 A 
ENDBRANCH  14  16
ENDBRANCH  12  13
ENDBRANCH   1  12
TORSDOF 4
ENDMDL
MODEL 7
REMARK VINA RESULT:      -6.2      8.709      9.783
REMARK  4 active torsions:
REMARK  status: ('A' for Active; 'I' for Inactive)
REMARK    1  A    between atoms: C_4  and  C_10 
REMARK    2  A    between atoms: C_18  and  C_7 
REMARK       I    between atoms: C_10  and  N_17 
REMARK    3  A    between atoms: N_17  and  C_20 
REMARK    4  A    between atoms: C_20  and  C_18 
ROOT
ATOM      1  C   UNL d   1     -40.791  14.539  19.987  0.00  0.00     0.042 C 
ENDROOT
BRANCH   1   2
ATOM      2  C   UNL d   1     -40.321  14.707  20.651  0.00  0.00     0.102 A 
ATOM      3  N   UNL d   1     -39.879  14.162  21.073  0.00  0.00    -0.227 NA
ATOM      4  C   UNL d   1     -39.499  14.551  21.683  0.00  0.00     0.148 A 
ATOM      5  N   UNL d   1     -39.703  15.350  21.646  0.00  0.00    -0.288 N 
ATOM      6  C   UNL d   1     -38.989  14.294  22.278  0.00  0.00     0.035 A 
ATOM      7  C   UNL d   1     -40.216  15.445  21.001  0.00  0.00     0.101 A 
ATOM      8  C   UNL d   1     -39.403  15.886  22.193  0.00  0.00     0.082 A 
ATOM      9  C   UNL d   1     -38.897  15.626  22.781  0.00  0.00     0.019 A 
ATOM     10  C   UNL d   1     -38.685  14.823  22.828  0.00  0.00     0.004 A 
ATOM     11  C   UNL d   1     -38.775  13.488  22.327  0.00  0.00     0.003 C 
ENDBRANCH   1   2
BRANCH   1  12
ATOM     12  C   UNL d   1     -40.447  14.505  19.234  0.00  0.00     0.104 C 
BRANCH  12  13
ATOM     13  N   UNL d   1     -40.889  14.702  18.572  0.00  0.00    -0.205 NA
ATOM     14  C   UNL d   1     -40.607  14.518  17.816  0.00  0.00     0.302 C 
ATOM     15  O   UNL d   1     -41.049  14.716  17.162  0.00  0.00    -0.263 OA
BRANCH  14  16
ATOM     16  C   UNL d   1     -39.880  14.134  17.734  0.00  0.00     0.158 A 
ATOM     17  O   UNL d   1     -39.644  13.358  17.860  0.00  0.00    -0.296 OA
ATOM     18  C   UNL d   1     -38.839  13.297  17.685  0.00  0.00     0.134 A 
ATOM     19 BR   UNL d   1     -38.359  12.626  17.729  0.00  0.00    -0.022 Br
ATOM     20  C   UNL d   1     -38.596  14.041  17.454  0.00  0.00     0.034 A 
ATOM     21  C   UNL d   1     -39.223  14.563  17.479  0.00  0.00     0.032 A 
ENDBRANCH  14  16
ENDBRANCH  12  13
ENDBRANCH   1  12
TORSDOF 4
ENDMDL
MODEL 8
REMARK VINA RESULT:      -5.4      8.555     10.137
REMARK  4 active torsions:
REMARK  status: ('A' for Active; 'I' for Inactive)
REMARK    1  A    between atoms: C_4  and  C_10 
REMARK    2  A    between atoms: C_18  and  C_7 
REMARK       I    between atoms: C_10  and  N_17 
REMARK    3  A    between atoms: N_17  and  C_20 
REMARK    4  A    between atoms: C_20  and  C_18 
ROOT
ATOM      1  C   UNL d   1     -39.073  13.844  19.157  0.00  0.00     0.042 C 
ENDROOT
BRANCH   1   2
ATOM      2  C   UNL d   1     -39.187  14.334  19.818  0.00  0.00     0.102 A 
ATOM      3  N   UNL d   1     -39.908  14.619  20.082  0.00  0.00    -0.227 NA
ATOM      4  C   UNL d   1     -39.780  15.078  20.745  0.00  0.00     0.148 A 
ATOM      5  N   UNL d   1     -38.969  15.083  20.902  0.00  0.00    -0.288 N 
ATOM      6  C   UNL d   1     -40.287  15.500  21.241  0.00  0.00     0.035 A 
ATOM      7  C   UNL d   1     -38.601  14.618  20.322  0.00  0.00     0.101 A 
ATOM      8  C   UNL d   1     -38.667  15.503  21.542  0.00  0.00     0.082 A 
ATOM      9  C   UNL d   1     -39.176  15.921  22.030  0.00  0.00     0.019 A 
ATOM     10  C   UNL d   1     -39.995  15.922  21.881  0.00  0.00     0.004 A 
ATOM     11  C   UNL d   1     -41.110  15.502  21.092  0.00  0.00     0.003 C 
ENDBRANCH   1   2
BRANCH   1  12
ATOM     12  C   UNL d   1     -39.178  14.148  18.393  0.00  0.00     0.104 C 
BRANCH  12  13
ATOM     13  N   UNL d   1     -38.848  13.763  17.749  0.00  0.00    -0.205 NA
ATOM     14  C   UNL d   1     -39.012  14.023  16.981  0.00  0.00     0.302 C 
ATOM     15  O   UNL d   1     -38.682  13.638  16.346  0.00  0.00    -0.263 OA
BRANCH  14  16
ATOM     16  C   UNL d   1     -39.511  14.673  16.869  0.00  0.00     0.158 A 
ATOM     17  O   UNL d   1     -40.320  14.774  16.963  0.00  0.00    -0.296 OA
ATOM     18  C   UNL d   1     -40.511  15.553  16.767  0.00  0.00     0.134 A 
ATOM     19 BR   UNL d   1     -41.255  15.913  16.776  0.00  0.00    -0.022 Br
ATOM     20  C   UNL d   1     -39.811  15.917  16.556  0.00  0.00     0.034 A 
ATOM     21  C   UNL d   1     -39.191  15.389  16.614  0.00  0.00     0.032 A 
ENDBRANCH  14  16
ENDBRANCH  12  13
ENDBRANCH   1  12
TORSDOF 4
ENDMDL
