MODEL 1
REMARK VINA RESULT:      47.5      0.000      0.000
REMARK  1 active torsions:
REMARK  status: ('A' for Active; 'I' for Inactive)
REMARK       I    between atoms: N_2  and  C_1 
REMARK       I    between atoms: N_4  and  C_1 
REMARK    1  A    between atoms: C_5  and  N_3 
ROOT
ATOM      1  C   UNL d   1     -51.643  24.008  33.348  0.00  0.00     0.339 C 
ATOM      2  N   UNL d   1     -51.317  24.764  33.380  0.00  0.00    -0.254 N 
ATOM      3  N   UNL d   1     -50.670  26.262  33.445  0.00  0.00    -0.301 N 
ATOM      4  N   UNL d   1     -52.461  23.905  33.346  0.00  0.00    -0.258 N 
ATOM      5  O   UNL d   1     -51.144  23.350  33.317  0.00  0.00    -0.245 OA
ATOM      6  C   UNL d   1     -50.505  24.861  33.382  0.00  0.00     0.104 A 
ATOM      7  C   UNL d   1     -51.821  25.429  33.412  0.00  0.00     0.104 A 
ATOM      8  C   UNL d   1     -51.499  26.176  33.444  0.00  0.00     0.100 A 
ATOM      9  C   UNL d   1     -50.182  25.609  33.414  0.00  0.00     0.100 A 
ATOM     10  C   UNL d   1     -52.856  23.188  33.316  0.00  0.00     0.085 A 
ATOM     11  C   UNL d   1     -53.021  24.507  33.375  0.00  0.00     0.085 A 
ATOM     12  C   UNL d   1     -53.762  24.162  33.362  0.00  0.00     0.021 A 
ATOM     13  C   UNL d   1     -53.666  23.347  33.326  0.00  0.00     0.021 A 
ENDROOT
BRANCH   3  14
ATOM     14  C   UNL d   1     -50.339  27.028  33.478  0.00  0.00     0.064 A 
ATOM     15  C   UNL d   1     -50.826  27.692  33.381  0.00  0.00     0.018 A 
ATOM     16  C   UNL d   1     -50.500  28.460  33.413  0.00  0.00     0.001 A 
ATOM     17  C   UNL d   1     -50.978  29.120  33.317  0.00  0.00     0.000 C 
ATOM     18  C   UNL d   1     -49.674  28.559  33.545  0.00  0.00     0.000 A 
ATOM     19  C   UNL d   1     -49.188  27.883  33.642  0.00  0.00     0.002 A 
ATOM     20  C   UNL d   1     -49.348  29.314  33.577  0.00  0.00     0.000 C 
ATOM     21  C   UNL d   1     -49.517  27.121  33.609  0.00  0.00     0.018 A 
ENDBRANCH   3  14
TORSDOF 1
ENDMDL
