MODEL 1
REMARK VINA RESULT:      15.0      0.000      0.000
REMARK  3 active torsions:
REMARK  status: ('A' for Active; 'I' for Inactive)
REMARK    1  A    between atoms: C_9  and  C_4 
REMARK    2  A    between atoms: C_10  and  C_7 
REMARK    3  A    between atoms: C_11  and  C_10 
ROOT
ATOM      1  C   UNL d   1      45.430 -15.805  44.740  0.00  0.00     0.179 A 
ATOM      2  N   UNL d   1      46.235 -15.747  44.581  0.00  0.00    -0.282 N 
ATOM      3  N   UNL d   1      45.100 -15.045  44.691  0.00  0.00    -0.221 NA
ATOM      4  C   UNL d   1      45.701 -14.519  44.503  0.00  0.00     0.101 A 
ATOM      5  S   UNL d   1      45.256 -16.596  44.887  0.00  0.00    -0.048 SA
ATOM      6  C   UNL d   1      46.404 -14.949  44.434  0.00  0.00     0.101 A 
ATOM      7  C   UNL d   1      45.954 -17.024  44.820  0.00  0.00     0.050 A 
ATOM      8  C   UNL d   1      46.562 -16.494  44.629  0.00  0.00     0.089 A 
ENDROOT
BRANCH   7   9
ATOM      9  C   UNL d   1      46.033 -17.838  44.923  0.00  0.00     0.008 C 
BRANCH   9  10
ATOM     10  C   UNL d   1      46.186 -18.320  44.273  0.00  0.00     0.001 A 
ATOM     11  C   UNL d   1      46.364 -19.120  44.385  0.00  0.00     0.002 A 
ATOM     12  C   UNL d   1      46.516 -19.602  43.736  0.00  0.00     0.030 A 
ATOM     13  C   UNL d   1      46.492 -19.289  42.973  0.00  0.00     0.140 A 
ATOM     14  C   UNL d   1      46.316 -18.493  42.860  0.00  0.00     0.030 A 
ATOM     15  F   UNL d   1      46.647 -19.779  42.321  0.00  0.00    -0.204 F 
ATOM     16  C   UNL d   1      46.162 -18.006  43.510  0.00  0.00     0.002 A 
ENDBRANCH   9  10
ENDBRANCH   7   9
BRANCH   4  17
ATOM     17  C   UNL d   1      45.624 -13.709  44.399  0.00  0.00     0.019 A 
ATOM     18  C   UNL d   1      45.217 -13.412  43.751  0.00  0.00     0.002 A 
ATOM     19  C   UNL d   1      45.141 -12.598  43.650  0.00  0.00     0.000 A 
ATOM     20  C   UNL d   1      45.475 -12.080  44.201  0.00  0.00     0.000 A 
ATOM     21  C   UNL d   1      45.884 -12.379  44.852  0.00  0.00     0.000 A 
ATOM     22  C   UNL d   1      45.960 -13.192  44.954  0.00  0.00     0.002 A 
ENDBRANCH   4  17
TORSDOF 3
ENDMDL
