MODEL 1
REMARK VINA RESULT:      -4.2      0.000      0.000
REMARK  5 active torsions:
REMARK  status: ('A' for Active; 'I' for Inactive)
REMARK    1  A    between atoms: C_4  and  N_1 
REMARK    2  A    between atoms: C_8  and  C_3 
REMARK    3  A    between atoms: N_7  and  C_4 
REMARK    4  A    between atoms: C_15  and  N_7 
REMARK    5  A    between atoms: C_17  and  C_15 
ROOT
ATOM      1  N   UNL d   1      59.046  -1.435  29.271  0.00  0.00    -0.281 N 
ATOM      2  C   UNL d   1      60.225  -2.140  28.921  0.00  0.00     0.080 A 
ATOM      3  C   UNL d   1      59.851  -1.437  29.113  0.00  0.00     0.084 A 
ATOM      4  N   UNL d   1      59.796  -2.840  28.887  0.00  0.00    -0.301 N 
ATOM      5  C   UNL d   1      58.614  -2.140  29.238  0.00  0.00     0.101 A 
ATOM      6  C   UNL d   1      61.011  -2.313  28.737  0.00  0.00     0.021 A 
ATOM      7  C   UNL d   1      60.312  -3.451  28.683  0.00  0.00     0.080 A 
ATOM      8  C   UNL d   1      58.997  -2.841  29.044  0.00  0.00     0.100 A 
ATOM      9  C   UNL d   1      61.066  -3.129  28.589  0.00  0.00     0.021 A 
ENDROOT
BRANCH   1  10
ATOM     10  C   UNL d   1      58.659  -0.729  29.466  0.00  0.00     0.184 C 
ATOM     11  S   UNL d   1      58.512  -0.178  28.879  0.00  0.00    -0.040 SA
BRANCH  10  12
ATOM     12  N   UNL d   1      58.425  -0.584  30.238  0.00  0.00    -0.330 N 
ATOM     13  H   UNL d   1      58.879  -0.867  30.867  0.00  0.00     0.168 HD
BRANCH  12  14
ATOM     14  C   UNL d   1      57.740  -0.157  30.386  0.00  0.00     0.074 C 
BRANCH  14  15
ATOM     15  C   UNL d   1      57.462  -0.081  31.154  0.00  0.00     0.017 A 
ATOM     16  C   UNL d   1      57.006  -0.682  31.496  0.00  0.00     0.002 A 
ATOM     17  C   UNL d   1      56.730  -0.598  32.268  0.00  0.00     0.000 A 
ATOM     18  C   UNL d   1      56.903   0.083  32.707  0.00  0.00     0.000 A 
ATOM     19  C   UNL d   1      57.360   0.682  32.359  0.00  0.00     0.000 A 
ATOM     20  C   UNL d   1      57.638   0.600  31.585  0.00  0.00     0.002 A 
ENDBRANCH  14  15
ENDBRANCH  12  14
ENDBRANCH  10  12
ENDBRANCH   1  10
BRANCH   3  21
ATOM     21  C   UNL d   1      60.279  -0.733  29.147  0.00  0.00     0.037 A 
ATOM     22  C   UNL d   1      60.417  -0.299  28.459  0.00  0.00     0.100 A 
ATOM     23  N   UNL d   1      60.845   0.401  28.501  0.00  0.00    -0.242 NA
ATOM     24  C   UNL d   1      61.133   0.673  29.208  0.00  0.00     0.099 A 
ATOM     25  C   UNL d   1      60.998   0.242  29.903  0.00  0.00     0.021 A 
ATOM     26  C   UNL d   1      60.569  -0.463  29.868  0.00  0.00     0.005 A 
ENDBRANCH   3  21
TORSDOF 5
ENDMDL
