MODEL 1
REMARK VINA RESULT:      -6.7      0.000      0.000
REMARK  3 active torsions:
REMARK  status: ('A' for Active; 'I' for Inactive)
REMARK    1  A    between atoms: N_2  and  C_1 
REMARK       I    between atoms: C_4  and  N_2 
REMARK    2  A    between atoms: C_8  and  C_4 
REMARK    3  A    between atoms: C_10  and  C_5 
ROOT
ATOM      1  C   UNL d   1     -41.771-123.364 -51.808  0.00  0.00     0.197 A 
ATOM      2  N   UNL d   1     -42.225-123.087 -51.194  0.00  0.00    -0.221 NA
ATOM      3  C   UNL d   1     -41.836-123.377 -50.485  0.00  0.00     0.090 A 
ATOM      4  S   UNL d   1     -41.125-123.808 -51.533  0.00  0.00    -0.046 SA
ATOM      5  C   UNL d   1     -41.162-123.817 -50.724  0.00  0.00     0.058 A 
ENDROOT
BRANCH   1   6
ATOM      6  N   UNL d   1     -41.936-123.219 -52.627  0.00  0.00    -0.183 NA
ATOM      7  C   UNL d   1     -41.637-122.511 -52.976  0.00  0.00     0.281 C 
ATOM      8  O   UNL d   1     -41.193-121.974 -52.526  0.00  0.00    -0.265 OA
BRANCH   7   9
ATOM      9  C   UNL d   1     -41.778-122.337 -53.770  0.00  0.00     0.058 A 
ATOM     10  C   UNL d   1     -42.260-121.703 -53.947  0.00  0.00     0.006 A 
ATOM     11  C   UNL d   1     -42.409-121.518 -54.751  0.00  0.00     0.012 A 
ATOM     12  C   UNL d   1     -42.082-121.960 -55.361  0.00  0.00     0.058 A 
ATOM     13  C   UNL d   1     -41.587-122.611 -55.166  0.00  0.00     0.012 A 
ATOM     14 CL   UNL d   1     -42.204-121.810 -56.094  0.00  0.00    -0.082 Cl
ATOM     15  C   UNL d   1     -41.438-122.795 -54.366  0.00  0.00     0.006 A 
ENDBRANCH   7   9
ENDBRANCH   1   6
BRANCH   3  16
ATOM     16  C   UNL d   1     -42.064-123.258 -49.708  0.00  0.00     0.018 A 
ATOM     17  C   UNL d   1     -42.764-122.861 -49.524  0.00  0.00     0.002 A 
ATOM     18  C   UNL d   1     -42.997-122.739 -48.730  0.00  0.00     0.000 A 
ATOM     19  C   UNL d   1     -42.506-123.028 -48.122  0.00  0.00     0.000 A 
ATOM     20  C   UNL d   1     -41.811-123.423 -48.309  0.00  0.00     0.000 A 
ATOM     21  C   UNL d   1     -41.592-123.537 -49.108  0.00  0.00     0.002 A 
ENDBRANCH   3  16
TORSDOF 3
ENDMDL
MODEL 2
REMARK VINA RESULT:      -6.6      2.177      5.101
REMARK  3 active torsions:
REMARK  status: ('A' for Active; 'I' for Inactive)
REMARK    1  A    between atoms: N_2  and  C_1 
REMARK       I    between atoms: C_4  and  N_2 
REMARK    2  A    between atoms: C_8  and  C_4 
REMARK    3  A    between atoms: C_10  and  C_5 
ROOT
ATOM      1  C   UNL d   1     -41.494-122.622 -51.536  0.00  0.00     0.197 A 
ATOM      2  N   UNL d   1     -41.733-122.974 -52.228  0.00  0.00    -0.221 NA
ATOM      3  C   UNL d   1     -41.495-122.426 -52.845  0.00  0.00     0.090 A 
ATOM      4  S   UNL d   1     -41.124-121.893 -51.676  0.00  0.00    -0.046 SA
ATOM      5  C   UNL d   1     -41.123-121.770 -52.477  0.00  0.00     0.058 A 
ENDROOT
BRANCH   1   6
ATOM      6  N   UNL d   1     -41.609-122.959 -50.766  0.00  0.00    -0.183 NA
ATOM      7  C   UNL d   1     -42.215-122.636 -50.275  0.00  0.00     0.281 C 
ATOM      8  O   UNL d   1     -42.683-122.006 -50.542  0.00  0.00    -0.265 OA
BRANCH   7   9
ATOM      9  C   UNL d   1     -42.355-122.939 -49.520  0.00  0.00     0.058 A 
ATOM     10  C   UNL d   1     -41.814-122.776 -48.931  0.00  0.00     0.006 A 
ATOM     11  C   UNL d   1     -41.948-123.079 -48.161  0.00  0.00     0.012 A 
ATOM     12  C   UNL d   1     -42.609-123.534 -47.988  0.00  0.00     0.058 A 
ATOM     13  C   UNL d   1     -43.160-123.696 -48.602  0.00  0.00     0.012 A 
ATOM     14 CL   UNL d   1     -42.748-123.817 -47.298  0.00  0.00    -0.082 Cl
ATOM     15  C   UNL d   1     -43.026-123.394 -49.369  0.00  0.00     0.006 A 
ENDBRANCH   7   9
ENDBRANCH   1   6
BRANCH   3  16
ATOM     16  C   UNL d   1     -41.602-122.509 -53.653  0.00  0.00     0.018 A 
ATOM     17  C   UNL d   1     -41.193-123.082 -54.082  0.00  0.00     0.002 A 
ATOM     18  C   UNL d   1     -41.303-123.167 -54.906  0.00  0.00     0.000 A 
ATOM     19  C   UNL d   1     -41.838-122.657 -55.292  0.00  0.00     0.000 A 
ATOM     20  C   UNL d   1     -42.242-122.087 -54.861  0.00  0.00     0.000 A 
ATOM     21  C   UNL d   1     -42.122-122.015 -54.037  0.00  0.00     0.002 A 
ENDBRANCH   3  16
TORSDOF 3
ENDMDL
