MODEL 1
REMARK VINA RESULT:      79.3      0.000      0.000
REMARK  7 active torsions:
REMARK  status: ('A' for Active; 'I' for Inactive)
REMARK       I    between atoms: C_5  and  N_1 
REMARK    1  A    between atoms: C_11  and  C_3 
REMARK    2  A    between atoms: C_12  and  C_5 
REMARK    3  A    between atoms: N_7  and  C_12 
REMARK    4  A    between atoms: C_13  and  C_8 
REMARK    5  A    between atoms: C_29  and  N_10 
REMARK    6  A    between atoms: O_28  and  C_16 
REMARK    7  A    between atoms: O_30  and  C_23 
ROOT
ATOM      1  N   UNL d   1      43.716 -16.262  37.836  0.00  0.00    -0.193 N 
ATOM      2  N   UNL d   1      42.957 -16.533  37.711  0.00  0.00    -0.162 NA
ATOM      3  C   UNL d   1      42.611 -16.092  37.110  0.00  0.00     0.109 A 
ATOM      4  C   UNL d   1      44.258 -16.550  38.388  0.00  0.00     0.298 C 
ATOM      5  C   UNL d   1      43.857 -15.642  37.311  0.00  0.00     0.088 A 
ATOM      6  C   UNL d   1      43.169 -15.539  36.862  0.00  0.00     0.041 A 
ATOM      7  O   UNL d   1      45.001 -16.210  38.440  0.00  0.00    -0.264 OA
ENDROOT
BRANCH   4   8
ATOM      8  C   UNL d   1      44.049 -17.166  38.876  0.00  0.00     0.146 C 
BRANCH   8   9
ATOM      9  N   UNL d   1      44.602 -17.481  39.394  0.00  0.00    -0.262 N 
ATOM     10  C   UNL d   1      44.358 -17.845  40.086  0.00  0.00     0.322 A 
ATOM     11  C   UNL d   1      44.913 -18.161  40.607  0.00  0.00     0.322 A 
ATOM     12  O   UNL d   1      43.552 -17.895  40.262  0.00  0.00    -0.261 OA
ATOM     13  O   UNL d   1      44.663 -18.528  41.305  0.00  0.00    -0.261 OA
ATOM     14  N   UNL d   1      45.714 -18.113  40.437  0.00  0.00    -0.267 N 
ATOM     15  C   UNL d   1      45.961 -17.748  39.741  0.00  0.00     0.102 A 
ATOM     16  C   UNL d   1      45.406 -17.431  39.220  0.00  0.00     0.102 A 
BRANCH  14  17
ATOM     17  C   UNL d   1      46.269 -18.430  40.958  0.00  0.00     0.083 C 
ATOM     18  C   UNL d   1      46.527 -17.985  41.606  0.00  0.00     0.021 C 
ENDBRANCH  14  17
ENDBRANCH   8   9
ENDBRANCH   4   8
BRANCH   5  19
ATOM     19  C   UNL d   1      44.542 -15.206  37.240  0.00  0.00     0.020 A 
ATOM     20  C   UNL d   1      45.182 -15.513  36.830  0.00  0.00     0.028 A 
ATOM     21  C   UNL d   1      45.876 -15.064  36.761  0.00  0.00     0.116 A 
ATOM     22  C   UNL d   1      45.920 -14.321  37.100  0.00  0.00     0.116 A 
ATOM     23  C   UNL d   1      45.272 -14.017  37.512  0.00  0.00     0.026 A 
ATOM     24  C   UNL d   1      44.581 -14.465  37.580  0.00  0.00     0.004 A 
BRANCH  21  25
ATOM     25  O   UNL d   1      46.513 -15.371  36.352  0.00  0.00    -0.326 OA
ATOM     26  C   UNL d   1      46.646 -16.177  36.331  0.00  0.00     0.181 C 
ENDBRANCH  21  25
BRANCH  22  27
ATOM     27  O   UNL d   1      46.600 -13.883  37.033  0.00  0.00    -0.326 OA
ATOM     28  C   UNL d   1      46.639 -13.133  37.356  0.00  0.00     0.181 C 
ENDBRANCH  22  27
ENDBRANCH   5  19
BRANCH   3  29
ATOM     29  C   UNL d   1      41.848 -16.186  36.812  0.00  0.00     0.049 A 
ATOM     30  S   UNL d   1      41.335 -15.593  36.600  0.00  0.00    -0.085 SA
ATOM     31  C   UNL d   1      40.633 -15.926  36.331  0.00  0.00     0.035 A 
ATOM     32  C   UNL d   1      40.721 -16.750  36.381  0.00  0.00     0.007 A 
ATOM     33  C   UNL d   1      41.476 -16.915  36.681  0.00  0.00     0.009 A 
ENDBRANCH   3  29
TORSDOF 7
ENDMDL
