MODEL 1
REMARK VINA RESULT:      36.6      0.000      0.000
REMARK  7 active torsions:
REMARK  status: ('A' for Active; 'I' for Inactive)
REMARK    1  A    between atoms: S_2  and  C_1 
REMARK    2  A    between atoms: C_8  and  S_2 
REMARK    3  A    between atoms: N_16  and  C_6 
REMARK    4  A    between atoms: N_9  and  C_22 
REMARK    5  A    between atoms: C_24  and  N_16 
REMARK    6  A    between atoms: C_22  and  C_23 
REMARK    7  A    between atoms: C_23  and  C_24 
ROOT
ATOM      1  C   UNL d   1      14.749  13.464  -1.036  0.00  0.00     0.187 A 
ATOM      2  N   UNL d   1      14.181  13.145  -1.529  0.00  0.00    -0.208 NA
ATOM      3  C   UNL d   1      15.131  12.848  -0.645  0.00  0.00     0.118 A 
ATOM      4  S   UNL d   1      14.797  12.150  -0.899  0.00  0.00    -0.035 SA
ATOM      5  C   UNL d   1      14.206  12.328  -1.450  0.00  0.00     0.196 A 
ATOM      6 CL   UNL d   1      15.738  12.919  -0.097  0.00  0.00    -0.073 Cl
ENDROOT
BRANCH   1   7
ATOM      7  S   UNL d   1      14.910  14.265  -0.945  0.00  0.00     0.228 S 
ATOM      8  O   UNL d   1      14.159  14.470  -1.198  0.00  0.00    -0.216 OA
ATOM      9  O   UNL d   1      15.669  14.059  -0.689  0.00  0.00    -0.216 OA
BRANCH   7  10
ATOM     10  C   UNL d   1      15.116  15.056  -0.839  0.00  0.00     0.089 A 
ATOM     11  C   UNL d   1      15.405  15.322  -0.120  0.00  0.00     0.011 A 
ATOM     12  C   UNL d   1      15.611  16.113  -0.014  0.00  0.00     0.001 A 
ATOM     13  C   UNL d   1      15.525  16.647  -0.642  0.00  0.00     0.000 A 
ATOM     14  C   UNL d   1      15.234  16.386  -1.369  0.00  0.00     0.001 A 
ATOM     15  C   UNL d   1      15.729  17.443  -0.543  0.00  0.00     0.000 C 
ATOM     16  C   UNL d   1      15.028  15.595  -1.475  0.00  0.00     0.011 A 
ENDBRANCH   7  10
ENDBRANCH   1   7
BRANCH   5  17
ATOM     17  N   UNL d   1      13.726  11.787  -1.849  0.00  0.00    -0.220 NA
BRANCH  17  18
ATOM     18  C   UNL d   1      13.251  12.047  -2.472  0.00  0.00     0.103 C 
BRANCH  18  19
ATOM     19  C   UNL d   1      13.403  11.779  -3.239  0.00  0.00     0.040 C 
BRANCH  19  20
ATOM     20  C   UNL d   1      12.834  11.885  -3.828  0.00  0.00     0.083 C 
BRANCH  20  21
ATOM     21  N   UNL d   1      13.057  12.201  -4.553  0.00  0.00    -0.285 N 
ATOM     22  C   UNL d   1      13.275  11.780  -5.218  0.00  0.00     0.183 A 
ATOM     23  N   UNL d   1      13.452  12.318  -5.814  0.00  0.00    -0.222 NA
ATOM     24  C   UNL d   1      13.343  13.068  -5.512  0.00  0.00     0.120 A 
ATOM     25  C   UNL d   1      13.097  13.001  -4.730  0.00  0.00     0.102 A 
ENDBRANCH  20  21
ENDBRANCH  19  20
ENDBRANCH  18  19
ENDBRANCH  17  18
ENDBRANCH   5  17
TORSDOF 7
ENDMDL
MODEL 2
REMARK VINA RESULT:      37.2      2.464      4.400
REMARK  7 active torsions:
REMARK  status: ('A' for Active; 'I' for Inactive)
REMARK    1  A    between atoms: S_2  and  C_1 
REMARK    2  A    between atoms: C_8  and  S_2 
REMARK    3  A    between atoms: N_16  and  C_6 
REMARK    4  A    between atoms: N_9  and  C_22 
REMARK    5  A    between atoms: C_24  and  N_16 
REMARK    6  A    between atoms: C_22  and  C_23 
REMARK    7  A    between atoms: C_23  and  C_24 
ROOT
ATOM      1  C   UNL d   1      13.410  13.092  -4.297  0.00  0.00     0.187 A 
ATOM      2  N   UNL d   1      13.342  12.971  -3.492  0.00  0.00    -0.208 NA
ATOM      3  C   UNL d   1      13.456  12.358  -4.667  0.00  0.00     0.118 A 
ATOM      4  S   UNL d   1      13.416  11.787  -4.089  0.00  0.00    -0.035 SA
ATOM      5  C   UNL d   1      13.344  12.162  -3.355  0.00  0.00     0.196 A 
ATOM      6 CL   UNL d   1      13.530  12.221  -5.473  0.00  0.00    -0.073 Cl
ENDROOT
BRANCH   1   7
ATOM      7  S   UNL d   1      13.430  13.823  -4.673  0.00  0.00     0.228 S 
ATOM      8  O   UNL d   1      13.085  13.512  -5.347  0.00  0.00    -0.216 OA
ATOM      9  O   UNL d   1      13.778  14.137  -3.991  0.00  0.00    -0.216 OA
BRANCH   7  10
ATOM     10  C   UNL d   1      13.469  14.574  -5.010  0.00  0.00     0.089 A 
ATOM     11  C   UNL d   1      14.186  14.883  -5.261  0.00  0.00     0.011 A 
ATOM     12  C   UNL d   1      14.226  15.634  -5.599  0.00  0.00     0.001 A 
ATOM     13  C   UNL d   1      13.534  16.083  -5.686  0.00  0.00     0.000 A 
ATOM     14  C   UNL d   1      12.809  15.776  -5.435  0.00  0.00     0.001 A 
ATOM     15  C   UNL d   1      13.566  16.837  -6.024  0.00  0.00     0.000 C 
ATOM     16  C   UNL d   1      12.770  15.025  -5.098  0.00  0.00     0.011 A 
ENDBRANCH   7  10
ENDBRANCH   1   7
BRANCH   5  17
ATOM     17  N   UNL d   1      13.286  11.794  -2.617  0.00  0.00    -0.220 NA
BRANCH  17  18
ATOM     18  C   UNL d   1      13.940  11.787  -2.114  0.00  0.00     0.103 C 
BRANCH  18  19
ATOM     19  C   UNL d   1      13.832  11.911  -1.304  0.00  0.00     0.040 C 
BRANCH  19  20
ATOM     20  C   UNL d   1      14.491  11.957  -0.808  0.00  0.00     0.083 C 
BRANCH  20  21
ATOM     21  N   UNL d   1      14.745  12.691  -0.540  0.00  0.00    -0.285 N 
ATOM     22  C   UNL d   1      14.279  13.271  -0.201  0.00  0.00     0.183 A 
ATOM     23  N   UNL d   1      14.760  13.911  -0.018  0.00  0.00    -0.222 NA
ATOM     24  C   UNL d   1      15.521  13.724  -0.246  0.00  0.00     0.120 A 
ATOM     25  C   UNL d   1      15.516  12.968  -0.570  0.00  0.00     0.102 A 
ENDBRANCH  20  21
ENDBRANCH  19  20
ENDBRANCH  18  19
ENDBRANCH  17  18
ENDBRANCH   5  17
TORSDOF 7
ENDMDL
