MODEL 1
REMARK VINA RESULT:      54.1      0.000      0.000
REMARK  3 active torsions:
REMARK  status: ('A' for Active; 'I' for Inactive)
REMARK    1  A    between atoms: C_8  and  N_1 
REMARK    2  A    between atoms: O_16  and  C_11 
REMARK    3  A    between atoms: C_19  and  O_16 
ROOT
ATOM      1  N   UNL d   1     -51.508  25.760  33.350  0.00  0.00    -0.240 N 
ATOM      2  C   UNL d   1     -51.317  26.553  33.363  0.00  0.00     0.267 A 
ATOM      3  C   UNL d   1     -50.994  25.113  33.335  0.00  0.00     0.267 A 
ATOM      4  C   UNL d   1     -50.168  25.103  33.330  0.00  0.00     0.057 A 
ATOM      5  C   UNL d   1     -50.574  26.905  33.364  0.00  0.00     0.057 A 
ATOM      6  C   UNL d   1     -49.656  25.743  33.338  0.00  0.00     0.005 A 
ATOM      7  C   UNL d   1     -49.831  26.549  33.353  0.00  0.00     0.005 A 
ATOM      8  O   UNL d   1     -51.962  27.077  33.376  0.00  0.00    -0.267 OA
ATOM      9  O   UNL d   1     -51.363  24.374  33.324  0.00  0.00    -0.267 OA
ATOM     10  C   UNL d   1     -49.876  24.339  33.314  0.00  0.00     0.005 A 
ATOM     11  C   UNL d   1     -50.635  27.718  33.379  0.00  0.00     0.005 A 
ATOM     12  C   UNL d   1     -49.152  27.007  33.357  0.00  0.00     0.000 A 
ATOM     13  C   UNL d   1     -48.836  25.617  33.330  0.00  0.00     0.000 A 
ATOM     14  C   UNL d   1     -48.540  24.845  33.314  0.00  0.00     0.000 A 
ATOM     15  C   UNL d   1     -49.208  27.828  33.372  0.00  0.00     0.000 A 
ATOM     16  C   UNL d   1     -49.956  28.187  33.383  0.00  0.00     0.000 A 
ATOM     17  C   UNL d   1     -49.055  24.213  33.307  0.00  0.00     0.000 A 
ENDROOT
BRANCH   1  18
ATOM     18  C   UNL d   1     -52.317  25.584  33.352  0.00  0.00     0.092 A 
ATOM     19  C   UNL d   1     -52.569  24.799  33.400  0.00  0.00     0.116 A 
ATOM     20  C   UNL d   1     -53.378  24.623  33.402  0.00  0.00     0.026 A 
ATOM     21  C   UNL d   1     -53.941  25.238  33.356  0.00  0.00     0.002 A 
ATOM     22  C   UNL d   1     -53.681  26.031  33.308  0.00  0.00     0.002 A 
ATOM     23  C   UNL d   1     -52.873  26.203  33.306  0.00  0.00     0.020 A 
BRANCH  19  24
ATOM     24  O   UNL d   1     -52.010  24.191  33.445  0.00  0.00    -0.304 OA
BRANCH  24  25
ATOM     25  C   UNL d   1     -52.264  23.416  33.518  0.00  0.00     0.123 C 
ATOM     26  C   UNL d   1     -52.672  23.189  34.196  0.00  0.00     0.029 C 
ENDBRANCH  24  25
ENDBRANCH  19  24
ENDBRANCH   1  18
TORSDOF 3
ENDMDL
