MODEL 1
REMARK VINA RESULT:      -8.9      0.000      0.000
REMARK  3 active torsions:
REMARK  status: ('A' for Active; 'I' for Inactive)
REMARK    1  A    between atoms: C_2  and  C_1 
REMARK       I    between atoms: N_6  and  C_2 
REMARK    2  A    between atoms: C_7  and  N_6 
REMARK    3  A    between atoms: C_18  and  N_6 
ROOT
ATOM      1  C   UNL d   1      52.164  31.522  53.144  0.00  0.00     0.270 C 
ATOM      2  N   UNL d   1      52.580  32.679  53.345  0.00  0.00    -0.274 N 
ATOM      3  O   UNL d   1      51.452  31.518  52.786  0.00  0.00    -0.266 OA
ENDROOT
BRANCH   2   4
ATOM      4  C   UNL d   1      53.279  32.732  53.697  0.00  0.00     0.079 A 
ATOM      5  C   UNL d   1      53.404  32.858  54.458  0.00  0.00     0.116 A 
ATOM      6  S   UNL d   1      54.175  32.872  54.576  0.00  0.00     0.213 S 
ATOM      7  O   UNL d   1      54.946  32.886  54.694  0.00  0.00    -0.217 OA
ATOM      8  O   UNL d   1      53.863  32.991  55.276  0.00  0.00    -0.217 OA
ATOM      9  C   UNL d   1      54.521  32.755  53.887  0.00  0.00     0.100 A 
ATOM     10  C   UNL d   1      53.972  32.669  53.347  0.00  0.00     0.030 A 
ENDBRANCH   2   4
BRANCH   2  11
ATOM     11  C   UNL d   1      52.148  33.341  53.123  0.00  0.00     0.067 A 
ATOM     12  C   UNL d   1      51.537  33.594  53.597  0.00  0.00     0.018 A 
ATOM     13  C   UNL d   1      51.095  34.268  53.374  0.00  0.00     0.002 A 
ATOM     14  C   UNL d   1      51.277  34.670  52.682  0.00  0.00     0.000 A 
ATOM     15  C   UNL d   1      51.896  34.412  52.206  0.00  0.00     0.002 A 
ATOM     16  C   UNL d   1      52.336  33.750  52.418  0.00  0.00     0.018 A 
ENDBRANCH   2  11
BRANCH   1  17
ATOM     17  C   UNL d   1      52.580  30.844  53.358  0.00  0.00     0.120 A 
ATOM     18  C   UNL d   1      53.034  30.436  52.782  0.00  0.00     0.305 A 
ATOM     19  O   UNL d   1      53.452  29.755  52.995  0.00  0.00    -0.273 OA
ATOM     20  O   UNL d   1      53.061  30.718  52.007  0.00  0.00    -0.259 OA
ATOM     21  C   UNL d   1      53.420  29.480  53.774  0.00  0.00     0.103 A 
ATOM     22  C   UNL d   1      52.972  29.881  54.342  0.00  0.00     0.023 A 
ATOM     23  C   UNL d   1      53.842  28.796  53.979  0.00  0.00     0.025 A 
ATOM     24  C   UNL d   1      52.555  30.559  54.133  0.00  0.00     0.012 A 
ATOM     25  C   UNL d   1      52.945  29.600  55.117  0.00  0.00     0.002 A 
ATOM     26  C   UNL d   1      53.364  28.919  55.327  0.00  0.00     0.000 A 
ATOM     27  C   UNL d   1      53.812  28.517  54.758  0.00  0.00     0.002 A 
ENDBRANCH   1  17
TORSDOF 3
ENDMDL
MODEL 2
REMARK VINA RESULT:      -8.5      1.943      4.354
REMARK  3 active torsions:
REMARK  status: ('A' for Active; 'I' for Inactive)
REMARK    1  A    between atoms: C_2  and  C_1 
REMARK       I    between atoms: N_6  and  C_2 
REMARK    2  A    between atoms: C_7  and  N_6 
REMARK    3  A    between atoms: C_18  and  N_6 
ROOT
ATOM      1  C   UNL d   1      52.666  34.458  53.339  0.00  0.00     0.270 C 
ATOM      2  N   UNL d   1      53.211  33.430  53.785  0.00  0.00    -0.274 N 
ATOM      3  O   UNL d   1      53.027  35.122  53.592  0.00  0.00    -0.266 OA
ENDROOT
BRANCH   2   4
ATOM      4  C   UNL d   1      52.888  32.751  53.562  0.00  0.00     0.079 A 
ATOM      5  C   UNL d   1      53.138  32.290  52.981  0.00  0.00     0.116 A 
ATOM      6  S   UNL d   1      52.663  31.672  52.944  0.00  0.00     0.213 S 
ATOM      7  O   UNL d   1      52.188  31.055  52.906  0.00  0.00    -0.217 OA
ATOM      8  O   UNL d   1      53.184  31.560  52.381  0.00  0.00    -0.217 OA
ATOM      9  C   UNL d   1      52.123  31.755  53.501  0.00  0.00     0.100 A 
ATOM     10  C   UNL d   1      52.260  32.417  53.881  0.00  0.00     0.030 A 
ENDBRANCH   2   4
BRANCH   2  11
ATOM     11  C   UNL d   1      53.864  33.464  54.280  0.00  0.00     0.067 A 
ATOM     12  C   UNL d   1      53.752  33.492  55.085  0.00  0.00     0.018 A 
ATOM     13  C   UNL d   1      54.416  33.527  55.593  0.00  0.00     0.002 A 
ATOM     14  C   UNL d   1      55.174  33.533  55.279  0.00  0.00     0.000 A 
ATOM     15  C   UNL d   1      55.284  33.505  54.464  0.00  0.00     0.002 A 
ATOM     16  C   UNL d   1      54.637  33.470  53.959  0.00  0.00     0.018 A 
ENDBRANCH   2  11
BRANCH   1  17
ATOM     17  C   UNL d   1      52.010  34.448  52.841  0.00  0.00     0.120 A 
ATOM     18  C   UNL d   1      52.117  34.525  52.012  0.00  0.00     0.305 A 
ATOM     19  O   UNL d   1      51.459  34.515  51.510  0.00  0.00    -0.273 OA
ATOM     20  O   UNL d   1      52.876  34.609  51.702  0.00  0.00    -0.259 OA
ATOM     21  C   UNL d   1      50.700  34.430  51.829  0.00  0.00     0.103 A 
ATOM     22  C   UNL d   1      50.595  34.355  52.647  0.00  0.00     0.023 A 
ATOM     23  C   UNL d   1      50.046  34.421  51.320  0.00  0.00     0.025 A 
ATOM     24  C   UNL d   1      51.247  34.364  53.147  0.00  0.00     0.012 A 
ATOM     25  C   UNL d   1      49.835  34.270  52.956  0.00  0.00     0.002 A 
ATOM     26  C   UNL d   1      49.180  34.261  52.453  0.00  0.00     0.000 A 
ATOM     27  C   UNL d   1      49.286  34.336  51.635  0.00  0.00     0.002 A 
ENDBRANCH   1  17
TORSDOF 3
ENDMDL
MODEL 3
REMARK VINA RESULT:      -7.2      1.662      2.471
REMARK  3 active torsions:
REMARK  status: ('A' for Active; 'I' for Inactive)
REMARK    1  A    between atoms: C_2  and  C_1 
REMARK       I    between atoms: N_6  and  C_2 
REMARK    2  A    between atoms: C_7  and  N_6 
REMARK    3  A    between atoms: C_18  and  N_6 
ROOT
ATOM      1  C   UNL d   1      53.901  33.068  54.309  0.00  0.00     0.270 C 
ATOM      2  N   UNL d   1      53.060  33.941  54.019  0.00  0.00    -0.274 N 
ATOM      3  O   UNL d   1      54.461  33.345  54.804  0.00  0.00    -0.266 OA
ENDROOT
BRANCH   2   4
ATOM      4  C   UNL d   1      52.489  33.714  53.532  0.00  0.00     0.079 A 
ATOM      5  C   UNL d   1      51.765  33.500  53.738  0.00  0.00     0.116 A 
ATOM      6  S   UNL d   1      51.375  33.316  53.088  0.00  0.00     0.213 S 
ATOM      7  O   UNL d   1      50.985  33.132  52.438  0.00  0.00    -0.217 OA
ATOM      8  O   UNL d   1      50.869  33.205  53.665  0.00  0.00    -0.217 OA
ATOM      9  C   UNL d   1      51.860  33.417  52.485  0.00  0.00     0.100 A 
ATOM     10  C   UNL d   1      52.544  33.661  52.757  0.00  0.00     0.030 A 
ENDBRANCH   2   4
BRANCH   2  11
ATOM     11  C   UNL d   1      53.104  34.704  54.320  0.00  0.00     0.067 A 
ATOM     12  C   UNL d   1      52.890  34.839  55.093  0.00  0.00     0.018 A 
ATOM     13  C   UNL d   1      52.933  35.614  55.403  0.00  0.00     0.002 A 
ATOM     14  C   UNL d   1      53.189  36.233  54.929  0.00  0.00     0.000 A 
ATOM     15  C   UNL d   1      53.405  36.093  54.148  0.00  0.00     0.002 A 
ATOM     16  C   UNL d   1      53.365  35.334  53.836  0.00  0.00     0.018 A 
ENDBRANCH   2  11
BRANCH   1  17
ATOM     17  C   UNL d   1      53.878  32.298  54.019  0.00  0.00     0.120 A 
ATOM     18  C   UNL d   1      54.362  32.084  53.367  0.00  0.00     0.305 A 
ATOM     19  O   UNL d   1      54.340  31.310  53.075  0.00  0.00    -0.273 OA
ATOM     20  O   UNL d   1      54.857  32.647  53.022  0.00  0.00    -0.259 OA
ATOM     21  C   UNL d   1      53.841  30.753  53.427  0.00  0.00     0.103 A 
ATOM     22  C   UNL d   1      53.363  30.963  54.070  0.00  0.00     0.023 A 
ATOM     23  C   UNL d   1      53.824  29.979  53.129  0.00  0.00     0.025 A 
ATOM     24  C   UNL d   1      53.383  31.731  54.362  0.00  0.00     0.012 A 
ATOM     25  C   UNL d   1      52.869  30.400  54.415  0.00  0.00     0.002 A 
ATOM     26  C   UNL d   1      52.848  29.628  54.121  0.00  0.00     0.000 A 
ATOM     27  C   UNL d   1      53.326  29.418  53.478  0.00  0.00     0.002 A 
ENDBRANCH   1  17
TORSDOF 3
ENDMDL
MODEL 4
REMARK VINA RESULT:      -6.7      1.991      3.635
REMARK  3 active torsions:
REMARK  status: ('A' for Active; 'I' for Inactive)
REMARK    1  A    between atoms: C_2  and  C_1 
REMARK       I    between atoms: N_6  and  C_2 
REMARK    2  A    between atoms: C_7  and  N_6 
REMARK    3  A    between atoms: C_18  and  N_6 
ROOT
ATOM      1  C   UNL d   1      52.419  34.658  53.587  0.00  0.00     0.270 C 
ATOM      2  N   UNL d   1      51.699  33.826  53.002  0.00  0.00    -0.274 N 
ATOM      3  O   UNL d   1      52.179  35.406  53.455  0.00  0.00    -0.266 OA
ENDROOT
BRANCH   2   4
ATOM      4  C   UNL d   1      51.898  33.074  53.104  0.00  0.00     0.079 A 
ATOM      5  C   UNL d   1      52.339  32.644  52.621  0.00  0.00     0.116 A 
ATOM      6  S   UNL d   1      52.403  31.929  52.926  0.00  0.00     0.213 S 
ATOM      7  O   UNL d   1      52.466  31.214  53.231  0.00  0.00    -0.217 OA
ATOM      8  O   UNL d   1      52.810  31.903  52.267  0.00  0.00    -0.217 OA
ATOM      9  C   UNL d   1      52.001  31.922  53.595  0.00  0.00     0.100 A 
ATOM     10  C   UNL d   1      51.691  32.624  53.705  0.00  0.00     0.030 A 
ENDBRANCH   2   4
BRANCH   2  11
ATOM     11  C   UNL d   1      51.058  34.052  52.541  0.00  0.00     0.067 A 
ATOM     12  C   UNL d   1      51.167  34.183  51.746  0.00  0.00     0.018 A 
ATOM     13  C   UNL d   1      50.517  34.414  51.274  0.00  0.00     0.002 A 
ATOM     14  C   UNL d   1      49.775  34.507  51.612  0.00  0.00     0.000 A 
ATOM     15  C   UNL d   1      49.668  34.374  52.416  0.00  0.00     0.002 A 
ATOM     16  C   UNL d   1      50.302  34.146  52.888  0.00  0.00     0.018 A 
ENDBRANCH   2  11
BRANCH   1  17
ATOM     17  C   UNL d   1      53.066  34.454  54.053  0.00  0.00     0.120 A 
ATOM     18  C   UNL d   1      53.006  34.502  54.890  0.00  0.00     0.305 A 
ATOM     19  O   UNL d   1      53.655  34.297  55.360  0.00  0.00    -0.273 OA
ATOM     20  O   UNL d   1      52.301  34.752  55.237  0.00  0.00    -0.259 OA
ATOM     21  C   UNL d   1      54.359  34.047  55.004  0.00  0.00     0.103 A 
ATOM     22  C   UNL d   1      54.418  34.001  54.180  0.00  0.00     0.023 A 
ATOM     23  C   UNL d   1      55.005  33.844  55.482  0.00  0.00     0.025 A 
ATOM     24  C   UNL d   1      53.774  34.203  53.709  0.00  0.00     0.012 A 
ATOM     25  C   UNL d   1      55.123  33.751  53.833  0.00  0.00     0.002 A 
ATOM     26  C   UNL d   1      55.770  33.547  54.305  0.00  0.00     0.000 A 
ATOM     27  C   UNL d   1      55.710  33.594  55.130  0.00  0.00     0.002 A 
ENDBRANCH   1  17
TORSDOF 3
ENDMDL
MODEL 5
REMARK VINA RESULT:      -6.5      2.142      4.426
REMARK  3 active torsions:
REMARK  status: ('A' for Active; 'I' for Inactive)
REMARK    1  A    between atoms: C_2  and  C_1 
REMARK       I    between atoms: N_6  and  C_2 
REMARK    2  A    between atoms: C_7  and  N_6 
REMARK    3  A    between atoms: C_18  and  N_6 
ROOT
ATOM      1  C   UNL d   1      51.790  33.235  53.050  0.00  0.00     0.270 C 
ATOM      2  N   UNL d   1      52.829  33.596  53.636  0.00  0.00    -0.274 N 
ATOM      3  O   UNL d   1      51.790  32.454  52.895  0.00  0.00    -0.266 OA
ENDROOT
BRANCH   2   4
ATOM      4  C   UNL d   1      52.873  34.360  53.809  0.00  0.00     0.079 A 
ATOM      5  C   UNL d   1      52.775  34.679  54.516  0.00  0.00     0.116 A 
ATOM      6  S   UNL d   1      52.865  35.451  54.446  0.00  0.00     0.213 S 
ATOM      7  O   UNL d   1      52.955  36.222  54.375  0.00  0.00    -0.217 OA
ATOM      8  O   UNL d   1      52.714  35.334  55.197  0.00  0.00    -0.217 OA
ATOM      9  C   UNL d   1      53.019  35.603  53.696  0.00  0.00     0.100 A 
ATOM     10  C   UNL d   1      53.024  34.934  53.305  0.00  0.00     0.030 A 
ENDBRANCH   2   4
BRANCH   2  11
ATOM     11  C   UNL d   1      53.426  33.066  53.828  0.00  0.00     0.067 A 
ATOM     12  C   UNL d   1      53.365  32.629  54.511  0.00  0.00     0.018 A 
ATOM     13  C   UNL d   1      53.972  32.088  54.710  0.00  0.00     0.002 A 
ATOM     14  C   UNL d   1      54.623  32.001  54.218  0.00  0.00     0.000 A 
ATOM     15  C   UNL d   1      54.682  32.445  53.528  0.00  0.00     0.002 A 
ATOM     16  C   UNL d   1      54.090  32.979  53.326  0.00  0.00     0.018 A 
ENDBRANCH   2  11
BRANCH   1  17
ATOM     17  C   UNL d   1      51.179  33.748  52.848  0.00  0.00     0.120 A 
ATOM     18  C   UNL d   1      51.104  34.013  52.054  0.00  0.00     0.305 A 
ATOM     19  O   UNL d   1      50.490  34.528  51.849  0.00  0.00    -0.273 OA
ATOM     20  O   UNL d   1      51.642  33.757  51.484  0.00  0.00    -0.259 OA
ATOM     21  C   UNL d   1      49.954  34.779  52.427  0.00  0.00     0.103 A 
ATOM     22  C   UNL d   1      50.028  34.519  53.209  0.00  0.00     0.023 A 
ATOM     23  C   UNL d   1      49.342  35.296  52.213  0.00  0.00     0.025 A 
ATOM     24  C   UNL d   1      50.637  34.006  53.416  0.00  0.00     0.012 A 
ATOM     25  C   UNL d   1      49.489  34.774  53.779  0.00  0.00     0.002 A 
ATOM     26  C   UNL d   1      48.877  35.289  53.571  0.00  0.00     0.000 A 
ATOM     27  C   UNL d   1      48.804  35.550  52.788  0.00  0.00     0.002 A 
ENDBRANCH   1  17
TORSDOF 3
ENDMDL
MODEL 6
REMARK VINA RESULT:      -6.2      0.840      3.867
REMARK  3 active torsions:
REMARK  status: ('A' for Active; 'I' for Inactive)
REMARK    1  A    between atoms: C_2  and  C_1 
REMARK       I    between atoms: N_6  and  C_2 
REMARK    2  A    between atoms: C_7  and  N_6 
REMARK    3  A    between atoms: C_18  and  N_6 
ROOT
ATOM      1  C   UNL d   1      52.162  31.320  53.336  0.00  0.00     0.270 C 
ATOM      2  N   UNL d   1      53.176  31.035  54.003  0.00  0.00    -0.274 N 
ATOM      3  O   UNL d   1      51.709  30.680  53.194  0.00  0.00    -0.266 OA
ENDROOT
BRANCH   2   4
ATOM      4  C   UNL d   1      53.653  31.636  54.167  0.00  0.00     0.079 A 
ATOM      5  C   UNL d   1      53.667  32.045  54.833  0.00  0.00     0.116 A 
ATOM      6  S   UNL d   1      54.221  32.591  54.769  0.00  0.00     0.213 S 
ATOM      7  O   UNL d   1      54.775  33.136  54.704  0.00  0.00    -0.217 OA
ATOM      8  O   UNL d   1      53.920  32.693  55.476  0.00  0.00    -0.217 OA
ATOM      9  C   UNL d   1      54.546  32.515  54.063  0.00  0.00     0.100 A 
ATOM     10  C   UNL d   1      54.198  31.929  53.693  0.00  0.00     0.030 A 
ENDBRANCH   2   4
BRANCH   2  11
ATOM     11  C   UNL d   1      53.332  30.269  54.253  0.00  0.00     0.067 A 
ATOM     12  C   UNL d   1      53.764  29.775  53.772  0.00  0.00     0.018 A 
ATOM     13  C   UNL d   1      53.924  28.993  54.023  0.00  0.00     0.002 A 
ATOM     14  C   UNL d   1      53.647  28.729  54.749  0.00  0.00     0.000 A 
ATOM     15  C   UNL d   1      53.211  29.231  55.232  0.00  0.00     0.002 A 
ATOM     16  C   UNL d   1      53.048  30.001  54.993  0.00  0.00     0.018 A 
ENDBRANCH   2  11
BRANCH   1  17
ATOM     17  C   UNL d   1      51.986  32.080  53.075  0.00  0.00     0.120 A 
ATOM     18  C   UNL d   1      52.239  32.327  52.314  0.00  0.00     0.305 A 
ATOM     19  O   UNL d   1      52.063  33.091  52.050  0.00  0.00    -0.273 OA
ATOM     20  O   UNL d   1      52.662  31.807  51.834  0.00  0.00    -0.259 OA
ATOM     21  C   UNL d   1      51.638  33.606  52.538  0.00  0.00     0.103 A 
ATOM     22  C   UNL d   1      51.388  33.363  53.288  0.00  0.00     0.023 A 
ATOM     23  C   UNL d   1      51.465  34.371  52.266  0.00  0.00     0.025 A 
ATOM     24  C   UNL d   1      51.562  32.604  53.553  0.00  0.00     0.012 A 
ATOM     25  C   UNL d   1      50.965  33.884  53.768  0.00  0.00     0.002 A 
ATOM     26  C   UNL d   1      50.790  34.646  53.502  0.00  0.00     0.000 A 
ATOM     27  C   UNL d   1      51.040  34.889  52.751  0.00  0.00     0.002 A 
ENDBRANCH   1  17
TORSDOF 3
ENDMDL
MODEL 7
REMARK VINA RESULT:      -6.0      1.540      4.035
REMARK  3 active torsions:
REMARK  status: ('A' for Active; 'I' for Inactive)
REMARK    1  A    between atoms: C_2  and  C_1 
REMARK       I    between atoms: N_6  and  C_2 
REMARK    2  A    between atoms: C_7  and  N_6 
REMARK    3  A    between atoms: C_18  and  N_6 
ROOT
ATOM      1  C   UNL d   1      52.293  32.687  53.501  0.00  0.00     0.270 C 
ATOM      2  N   UNL d   1      53.253  31.897  53.583  0.00  0.00    -0.274 N 
ATOM      3  O   UNL d   1      51.606  32.309  53.359  0.00  0.00    -0.266 OA
ENDROOT
BRANCH   2   4
ATOM      4  C   UNL d   1      53.952  32.226  53.722  0.00  0.00     0.079 A 
ATOM      5  C   UNL d   1      54.478  32.436  53.183  0.00  0.00     0.116 A 
ATOM      6  S   UNL d   1      55.094  32.739  53.553  0.00  0.00     0.213 S 
ATOM      7  O   UNL d   1      55.709  33.043  53.924  0.00  0.00    -0.217 OA
ATOM      8  O   UNL d   1      55.273  32.778  52.800  0.00  0.00    -0.217 OA
ATOM      9  C   UNL d   1      54.944  32.715  54.319  0.00  0.00     0.100 A 
ATOM     10  C   UNL d   1      54.243  32.400  54.423  0.00  0.00     0.030 A 
ENDBRANCH   2   4
BRANCH   2  11
ATOM     11  C   UNL d   1      53.158  31.086  53.497  0.00  0.00     0.067 A 
ATOM     12  C   UNL d   1      53.167  30.613  54.159  0.00  0.00     0.018 A 
ATOM     13  C   UNL d   1      53.071  29.786  54.075  0.00  0.00     0.002 A 
ATOM     14  C   UNL d   1      52.967  29.457  53.331  0.00  0.00     0.000 A 
ATOM     15  C   UNL d   1      52.958  29.939  52.664  0.00  0.00     0.002 A 
ATOM     16  C   UNL d   1      53.052  30.752  52.737  0.00  0.00     0.018 A 
ENDBRANCH   2  11
BRANCH   1  17
ATOM     17  C   UNL d   1      52.365  33.504  53.583  0.00  0.00     0.120 A 
ATOM     18  C   UNL d   1      52.251  34.000  52.915  0.00  0.00     0.305 A 
ATOM     19  O   UNL d   1      52.323  34.820  52.997  0.00  0.00    -0.273 OA
ATOM     20  O   UNL d   1      52.069  33.667  52.183  0.00  0.00    -0.259 OA
ATOM     21  C   UNL d   1      52.506  35.145  53.734  0.00  0.00     0.103 A 
ATOM     22  C   UNL d   1      52.618  34.656  54.392  0.00  0.00     0.023 A 
ATOM     23  C   UNL d   1      52.576  35.969  53.807  0.00  0.00     0.025 A 
ATOM     24  C   UNL d   1      52.547  33.841  54.315  0.00  0.00     0.012 A 
ATOM     25  C   UNL d   1      52.800  34.989  55.125  0.00  0.00     0.002 A 
ATOM     26  C   UNL d   1      52.872  35.809  55.203  0.00  0.00     0.000 A 
ATOM     27  C   UNL d   1      52.759  36.298  54.544  0.00  0.00     0.002 A 
ENDBRANCH   1  17
TORSDOF 3
ENDMDL
