MODEL 1
REMARK VINA RESULT:      16.5      0.000      0.000
REMARK  4 active torsions:
REMARK  status: ('A' for Active; 'I' for Inactive)
REMARK    1  A    between atoms: C_7  and  C_2 
REMARK    2  A    between atoms: C_6  and  C_3 
REMARK    3  A    between atoms: C_9  and  C_6 
REMARK    4  A    between atoms: O_15  and  C_10 
ROOT
ATOM      1  N   UNL d   1      44.756 -15.134  44.685  0.00  0.00    -0.201 NA
ATOM      2  C   UNL d   1      45.465 -14.734  44.572  0.00  0.00     0.114 A 
ATOM      3  C   UNL d   1      45.724 -16.018  44.785  0.00  0.00     0.089 A 
ATOM      4  C   UNL d   1      44.905 -15.919  44.816  0.00  0.00     0.286 A 
ATOM      5  S   UNL d   1      46.077 -15.298  44.636  0.00  0.00    -0.063 SA
ATOM      6  O   UNL d   1      44.341 -16.505  44.954  0.00  0.00    -0.265 OA
ENDROOT
BRANCH   3   7
ATOM      7  C   UNL d   1      46.137 -16.722  44.886  0.00  0.00     0.011 C 
BRANCH   7   8
ATOM      8  C   UNL d   1      46.175 -17.302  44.297  0.00  0.00     0.001 A 
ATOM      9  C   UNL d   1      46.191 -17.122  43.511  0.00  0.00     0.002 A 
ATOM     10  C   UNL d   1      46.230 -17.717  42.954  0.00  0.00     0.024 A 
ATOM     11  C   UNL d   1      46.253 -18.487  43.159  0.00  0.00     0.094 A 
ATOM     12  C   UNL d   1      46.237 -18.688  43.962  0.00  0.00     0.024 A 
ATOM     13  C   UNL d   1      46.198 -18.101  44.539  0.00  0.00     0.002 A 
BRANCH  11  14
ATOM     14  O   UNL d   1      46.292 -19.084  42.585  0.00  0.00    -0.328 OA
ATOM     15  C   UNL d   1      46.505 -19.845  42.793  0.00  0.00     0.181 C 
ENDBRANCH  11  14
ENDBRANCH   7   8
ENDBRANCH   3   7
BRANCH   2  16
ATOM     16  C   UNL d   1      45.557 -13.928  44.423  0.00  0.00     0.024 A 
ATOM     17  C   UNL d   1      45.227 -13.603  43.745  0.00  0.00     0.002 A 
ATOM     18  C   UNL d   1      45.319 -12.797  43.595  0.00  0.00     0.000 A 
ATOM     19  C   UNL d   1      45.739 -12.324  44.126  0.00  0.00     0.000 A 
ATOM     20  C   UNL d   1      46.068 -12.658  44.806  0.00  0.00     0.000 A 
ATOM     21  C   UNL d   1      45.976 -13.465  44.955  0.00  0.00     0.002 A 
ENDBRANCH   2  16
TORSDOF 4
ENDMDL
MODEL 2
REMARK VINA RESULT:      18.7      1.443      4.737
REMARK  4 active torsions:
REMARK  status: ('A' for Active; 'I' for Inactive)
REMARK    1  A    between atoms: C_7  and  C_2 
REMARK    2  A    between atoms: C_6  and  C_3 
REMARK    3  A    between atoms: C_9  and  C_6 
REMARK    4  A    between atoms: O_15  and  C_10 
ROOT
ATOM      1  N   UNL d   1      46.249 -17.239  43.496  0.00  0.00    -0.201 NA
ATOM      2  C   UNL d   1      46.113 -17.779  44.101  0.00  0.00     0.114 A 
ATOM      3  C   UNL d   1      45.693 -16.582  44.491  0.00  0.00     0.089 A 
ATOM      4  C   UNL d   1      45.995 -16.505  43.727  0.00  0.00     0.286 A 
ATOM      5  S   UNL d   1      45.760 -17.359  44.730  0.00  0.00    -0.063 SA
ATOM      6  O   UNL d   1      46.035 -15.814  43.278  0.00  0.00    -0.265 OA
ENDROOT
BRANCH   3   7
ATOM      7  C   UNL d   1      45.371 -15.983  44.953  0.00  0.00     0.011 C 
BRANCH   7   8
ATOM      8  C   UNL d   1      45.470 -15.182  44.773  0.00  0.00     0.001 A 
ATOM      9  C   UNL d   1      46.167 -14.793  44.892  0.00  0.00     0.002 A 
ATOM     10  C   UNL d   1      46.234 -14.002  44.705  0.00  0.00     0.024 A 
ATOM     11  C   UNL d   1      45.624 -13.586  44.401  0.00  0.00     0.094 A 
ATOM     12  C   UNL d   1      44.903 -13.972  44.273  0.00  0.00     0.024 A 
ATOM     13  C   UNL d   1      44.817 -14.770  44.456  0.00  0.00     0.002 A 
BRANCH  11  14
ATOM     14  O   UNL d   1      45.702 -12.783  44.213  0.00  0.00    -0.328 OA
ATOM     15  C   UNL d   1      45.358 -12.480  43.537  0.00  0.00     0.181 C 
ENDBRANCH  11  14
ENDBRANCH   7   8
ENDBRANCH   3   7
BRANCH   2  16
ATOM     16  C   UNL d   1      46.290 -18.585  44.090  0.00  0.00     0.024 A 
ATOM     17  C   UNL d   1      46.291 -18.988  43.375  0.00  0.00     0.002 A 
ATOM     18  C   UNL d   1      46.468 -19.793  43.364  0.00  0.00     0.000 A 
ATOM     19  C   UNL d   1      46.644 -20.187  44.068  0.00  0.00     0.000 A 
ATOM     20  C   UNL d   1      46.641 -19.775  44.783  0.00  0.00     0.000 A 
ATOM     21  C   UNL d   1      46.464 -18.969  44.794  0.00  0.00     0.002 A 
ENDBRANCH   2  16
TORSDOF 4
ENDMDL
