MODEL 1
REMARK VINA RESULT:      -3.0      0.000      0.000
REMARK  6 active torsions:
REMARK  status: ('A' for Active; 'I' for Inactive)
REMARK    1  A    between atoms: C_2  and  C_4 
REMARK    2  A    between atoms: C_5  and  C_3 
REMARK    3  A    between atoms: C_16  and  C_15 
REMARK    4  A    between atoms: C_17  and  C_16 
REMARK    5  A    between atoms: C_19  and  C_17 
REMARK    6  A    between atoms: C_18  and  C_19 
ROOT
ATOM      1  N   UNL d   1      32.851  20.255 -22.942  0.00  0.00    -0.244 NA
ATOM      2  C   UNL d   1      32.950  20.297 -22.108  0.00  0.00     0.081 A 
ATOM      3  C   UNL d   1      33.148  19.595 -21.680  0.00  0.00     0.019 A 
ATOM      4  C   UNL d   1      32.948  19.512 -23.366  0.00  0.00     0.099 A 
ATOM      5  C   UNL d   1      33.241  18.888 -22.073  0.00  0.00     0.003 A 
ATOM      6  C   UNL d   1      33.142  18.847 -22.907  0.00  0.00     0.019 A 
ENDROOT
BRANCH   2   7
ATOM      7  C   UNL d   1      32.856  20.991 -21.745  0.00  0.00     0.018 A 
ATOM      8  C   UNL d   1      33.151  21.668 -22.090  0.00  0.00     0.002 A 
ATOM      9  C   UNL d   1      33.042  22.406 -21.689  0.00  0.00     0.006 A 
ATOM     10  C   UNL d   1      32.649  22.433 -20.972  0.00  0.00     0.064 A 
ATOM     11  C   UNL d   1      32.348  21.715 -20.628  0.00  0.00     0.006 A 
ATOM     12  C   UNL d   1      32.462  21.014 -21.029  0.00  0.00     0.002 A 
BRANCH  10  13
ATOM     13  C   UNL d   1      32.540  23.170 -20.569  0.00  0.00     0.211 C 
ATOM     14  O   UNL d   1      31.845  23.632 -20.635  0.00  0.00    -0.644 OA
ATOM     15  O   UNL d   1      33.157  23.473 -20.068  0.00  0.00    -0.644 OA
ENDBRANCH  10  13
ENDBRANCH   2   7
BRANCH   6  16
ATOM     16  C   UNL d   1      33.238  18.103 -23.335  0.00  0.00     0.002 C 
BRANCH  16  17
ATOM     17  C   UNL d   1      32.614  17.581 -23.330  0.00  0.00     0.000 C 
BRANCH  17  18
ATOM     18  C   UNL d   1      32.752  16.765 -23.515  0.00  0.00     0.000 C 
BRANCH  18  19
ATOM     19  C   UNL d   1      32.170  16.278 -23.754  0.00  0.00     0.000 C 
ATOM     20  C   UNL d   1      32.169  15.483 -23.557  0.00  0.00     0.000 C 
ENDBRANCH  18  19
ENDBRANCH  17  18
ENDBRANCH  16  17
ENDBRANCH   6  16
TORSDOF 6
ENDMDL
MODEL 2
REMARK VINA RESULT:      -2.5      2.442      5.264
REMARK  6 active torsions:
REMARK  status: ('A' for Active; 'I' for Inactive)
REMARK    1  A    between atoms: C_2  and  C_4 
REMARK    2  A    between atoms: C_5  and  C_3 
REMARK    3  A    between atoms: C_16  and  C_15 
REMARK    4  A    between atoms: C_17  and  C_16 
REMARK    5  A    between atoms: C_19  and  C_17 
REMARK    6  A    between atoms: C_18  and  C_19 
ROOT
ATOM      1  N   UNL d   1      32.564  20.808 -21.035  0.00  0.00    -0.244 NA
ATOM      2  C   UNL d   1      32.938  20.889 -21.784  0.00  0.00     0.081 A 
ATOM      3  C   UNL d   1      33.240  21.643 -22.017  0.00  0.00     0.019 A 
ATOM      4  C   UNL d   1      32.484  21.480 -20.503  0.00  0.00     0.099 A 
ATOM      5  C   UNL d   1      33.168  22.284 -21.519  0.00  0.00     0.003 A 
ATOM      6  C   UNL d   1      32.794  22.204 -20.770  0.00  0.00     0.019 A 
ENDROOT
BRANCH   2   7
ATOM      7  C   UNL d   1      32.998  20.256 -22.252  0.00  0.00     0.018 A 
ATOM      8  C   UNL d   1      32.989  19.511 -21.923  0.00  0.00     0.002 A 
ATOM      9  C   UNL d   1      33.054  18.842 -22.439  0.00  0.00     0.006 A 
ATOM     10  C   UNL d   1      33.125  18.947 -23.247  0.00  0.00     0.064 A 
ATOM     11  C   UNL d   1      33.133  19.734 -23.571  0.00  0.00     0.006 A 
ATOM     12  C   UNL d   1      33.069  20.366 -23.060  0.00  0.00     0.002 A 
BRANCH  10  13
ATOM     13  C   UNL d   1      33.191  18.279 -23.763  0.00  0.00     0.211 C 
ATOM     14  O   UNL d   1      33.241  18.343 -24.596  0.00  0.00    -0.644 OA
ATOM     15  O   UNL d   1      33.208  17.493 -23.437  0.00  0.00    -0.644 OA
ENDBRANCH  10  13
ENDBRANCH   2   7
BRANCH   6  16
ATOM     16  C   UNL d   1      32.712  22.875 -20.234  0.00  0.00     0.002 C 
BRANCH  16  17
ATOM     17  C   UNL d   1      33.053  22.815 -19.497  0.00  0.00     0.000 C 
BRANCH  17  18
ATOM     18  C   UNL d   1      32.721  23.248 -18.848  0.00  0.00     0.000 C 
BRANCH  18  19
ATOM     19  C   UNL d   1      33.130  23.401 -18.184  0.00  0.00     0.000 C 
ATOM     20  C   UNL d   1      32.754  23.533 -17.469  0.00  0.00     0.000 C 
ENDBRANCH  18  19
ENDBRANCH  17  18
ENDBRANCH  16  17
ENDBRANCH   6  16
TORSDOF 6
ENDMDL
MODEL 3
REMARK VINA RESULT:      -2.5      2.851      5.373
REMARK  6 active torsions:
REMARK  status: ('A' for Active; 'I' for Inactive)
REMARK    1  A    between atoms: C_2  and  C_4 
REMARK    2  A    between atoms: C_5  and  C_3 
REMARK    3  A    between atoms: C_16  and  C_15 
REMARK    4  A    between atoms: C_17  and  C_16 
REMARK    5  A    between atoms: C_19  and  C_17 
REMARK    6  A    between atoms: C_18  and  C_19 
ROOT
ATOM      1  N   UNL d   1      32.741  19.310 -22.225  0.00  0.00    -0.244 NA
ATOM      2  C   UNL d   1      32.866  19.238 -23.053  0.00  0.00     0.081 A 
ATOM      3  C   UNL d   1      33.120  19.914 -23.494  0.00  0.00     0.019 A 
ATOM      4  C   UNL d   1      32.867  20.059 -21.819  0.00  0.00     0.099 A 
ATOM      5  C   UNL d   1      33.241  20.626 -23.117  0.00  0.00     0.003 A 
ATOM      6  C   UNL d   1      33.116  20.698 -22.289  0.00  0.00     0.019 A 
ENDROOT
BRANCH   2   7
ATOM      7  C   UNL d   1      32.743  18.540 -23.400  0.00  0.00     0.018 A 
ATOM      8  C   UNL d   1      32.158  18.468 -23.962  0.00  0.00     0.002 A 
ATOM      9  C   UNL d   1      32.038  17.713 -24.325  0.00  0.00     0.006 A 
ATOM     10  C   UNL d   1      32.502  17.073 -24.113  0.00  0.00     0.064 A 
ATOM     11  C   UNL d   1      33.109  17.168 -23.524  0.00  0.00     0.006 A 
ATOM     12  C   UNL d   1      33.209  17.903 -23.185  0.00  0.00     0.002 A 
BRANCH  10  13
ATOM     13  C   UNL d   1      32.383  16.317 -24.476  0.00  0.00     0.211 C 
ATOM     14  O   UNL d   1      33.003  15.859 -24.803  0.00  0.00    -0.644 OA
ATOM     15  O   UNL d   1      31.599  15.988 -24.521  0.00  0.00    -0.644 OA
ENDBRANCH  10  13
ENDBRANCH   2   7
BRANCH   6  16
ATOM     16  C   UNL d   1      33.241  21.447 -21.879  0.00  0.00     0.002 C 
BRANCH  16  17
ATOM     17  C   UNL d   1      32.615  21.966 -21.840  0.00  0.00     0.000 C 
BRANCH  17  18
ATOM     18  C   UNL d   1      32.576  22.524 -21.203  0.00  0.00     0.000 C 
BRANCH  18  19
ATOM     19  C   UNL d   1      32.332  23.273 -21.307  0.00  0.00     0.000 C 
ATOM     20  C   UNL d   1      31.941  23.683 -20.716  0.00  0.00     0.000 C 
ENDBRANCH  18  19
ENDBRANCH  17  18
ENDBRANCH  16  17
ENDBRANCH   6  16
TORSDOF 6
ENDMDL
MODEL 4
REMARK VINA RESULT:      -1.1      3.707      4.547
REMARK  6 active torsions:
REMARK  status: ('A' for Active; 'I' for Inactive)
REMARK    1  A    between atoms: C_2  and  C_4 
REMARK    2  A    between atoms: C_5  and  C_3 
REMARK    3  A    between atoms: C_16  and  C_15 
REMARK    4  A    between atoms: C_17  and  C_16 
REMARK    5  A    between atoms: C_19  and  C_17 
REMARK    6  A    between atoms: C_18  and  C_19 
ROOT
ATOM      1  N   UNL d   1      32.950  23.670 -20.652  0.00  0.00    -0.244 NA
ATOM      2  C   UNL d   1      33.013  22.940 -20.238  0.00  0.00     0.081 A 
ATOM      3  C   UNL d   1      33.151  22.228 -20.672  0.00  0.00     0.019 A 
ATOM      4  C   UNL d   1      33.023  23.702 -21.509  0.00  0.00     0.099 A 
ATOM      5  C   UNL d   1      33.222  22.251 -21.484  0.00  0.00     0.003 A 
ATOM      6  C   UNL d   1      33.159  22.980 -21.898  0.00  0.00     0.019 A 
ENDROOT
BRANCH   2   7
ATOM      7  C   UNL d   1      32.941  22.939 -19.452  0.00  0.00     0.018 A 
ATOM      8  C   UNL d   1      33.088  22.253 -19.037  0.00  0.00     0.002 A 
ATOM      9  C   UNL d   1      33.007  22.267 -18.194  0.00  0.00     0.006 A 
ATOM     10  C   UNL d   1      32.787  22.955 -17.810  0.00  0.00     0.064 A 
ATOM     11  C   UNL d   1      32.638  23.661 -18.262  0.00  0.00     0.006 A 
ATOM     12  C   UNL d   1      32.720  23.629 -19.072  0.00  0.00     0.002 A 
BRANCH  10  13
ATOM     13  C   UNL d   1      32.705  22.970 -16.968  0.00  0.00     0.211 C 
ATOM     14  O   UNL d   1      32.405  23.627 -16.545  0.00  0.00    -0.644 OA
ATOM     15  O   UNL d   1      32.936  22.291 -16.509  0.00  0.00    -0.644 OA
ENDBRANCH  10  13
ENDBRANCH   2   7
BRANCH   6  16
ATOM     16  C   UNL d   1      33.232  23.017 -22.757  0.00  0.00     0.002 C 
BRANCH  16  17
ATOM     17  C   UNL d   1      32.566  23.207 -23.186  0.00  0.00     0.000 C 
BRANCH  17  18
ATOM     18  C   UNL d   1      32.571  23.109 -24.028  0.00  0.00     0.000 C 
BRANCH  18  19
ATOM     19  C   UNL d   1      32.391  23.701 -24.527  0.00  0.00     0.000 C 
ATOM     20  C   UNL d   1      31.733  23.667 -25.013  0.00  0.00     0.000 C 
ENDBRANCH  18  19
ENDBRANCH  17  18
ENDBRANCH  16  17
ENDBRANCH   6  16
TORSDOF 6
ENDMDL
MODEL 5
REMARK VINA RESULT:      -0.4      1.723      2.620
REMARK  6 active torsions:
REMARK  status: ('A' for Active; 'I' for Inactive)
REMARK    1  A    between atoms: C_2  and  C_4 
REMARK    2  A    between atoms: C_5  and  C_3 
REMARK    3  A    between atoms: C_16  and  C_15 
REMARK    4  A    between atoms: C_17  and  C_16 
REMARK    5  A    between atoms: C_19  and  C_17 
REMARK    6  A    between atoms: C_18  and  C_19 
ROOT
ATOM      1  N   UNL d   1      32.620  22.122 -21.100  0.00  0.00    -0.244 NA
ATOM      2  C   UNL d   1      32.785  21.764 -20.357  0.00  0.00     0.081 A 
ATOM      3  C   UNL d   1      33.097  20.979 -20.335  0.00  0.00     0.019 A 
ATOM      4  C   UNL d   1      32.763  21.702 -21.838  0.00  0.00     0.099 A 
ATOM      5  C   UNL d   1      33.235  20.574 -21.029  0.00  0.00     0.003 A 
ATOM      6  C   UNL d   1      33.071  20.932 -21.772  0.00  0.00     0.019 A 
ENDROOT
BRANCH   2   7
ATOM      7  C   UNL d   1      32.644  22.172 -19.696  0.00  0.00     0.018 A 
ATOM      8  C   UNL d   1      31.910  22.505 -19.579  0.00  0.00     0.002 A 
ATOM      9  C   UNL d   1      31.773  22.940 -18.865  0.00  0.00     0.006 A 
ATOM     10  C   UNL d   1      32.368  23.020 -18.309  0.00  0.00     0.064 A 
ATOM     11  C   UNL d   1      33.128  22.664 -18.450  0.00  0.00     0.006 A 
ATOM     12  C   UNL d   1      33.241  22.249 -19.142  0.00  0.00     0.002 A 
BRANCH  10  13
ATOM     13  C   UNL d   1      32.233  23.454 -17.594  0.00  0.00     0.211 C 
ATOM     14  O   UNL d   1      31.474  23.700 -17.341  0.00  0.00    -0.644 OA
ATOM     15  O   UNL d   1      32.890  23.660 -17.094  0.00  0.00    -0.644 OA
ENDBRANCH  10  13
ENDBRANCH   2   7
BRANCH   6  16
ATOM     16  C   UNL d   1      33.213  20.514 -22.514  0.00  0.00     0.002 C 
BRANCH  16  17
ATOM     17  C   UNL d   1      33.056  19.715 -22.533  0.00  0.00     0.000 C 
BRANCH  17  18
ATOM     18  C   UNL d   1      33.181  19.284 -23.253  0.00  0.00     0.000 C 
BRANCH  18  19
ATOM     19  C   UNL d   1      32.714  18.679 -23.473  0.00  0.00     0.000 C 
ATOM     20  C   UNL d   1      32.997  18.067 -23.938  0.00  0.00     0.000 C 
ENDBRANCH  18  19
ENDBRANCH  17  18
ENDBRANCH  16  17
ENDBRANCH   6  16
TORSDOF 6
ENDMDL
