MODEL 1
REMARK VINA RESULT:      88.1      0.000      0.000
REMARK  5 active torsions:
REMARK  status: ('A' for Active; 'I' for Inactive)
REMARK    1  A    between atoms: N_2  and  C_1 
REMARK       I    between atoms: C_7  and  N_2 
REMARK    2  A    between atoms: C_17  and  N_3 
REMARK    3  A    between atoms: C_14  and  C_7 
REMARK       I    between atoms: C_10  and  N_11 
REMARK    4  A    between atoms: N_11  and  C_12 
REMARK    5  A    between atoms: C_16  and  C_17 
ROOT
ATOM      1  C   UNL d   1      59.628  49.289  50.742  0.00  0.00     0.182 A 
ATOM      2  N   UNL d   1      60.236  48.778  50.535  0.00  0.00    -0.285 N 
ATOM      3  S   UNL d   1      59.864  49.707  51.412  0.00  0.00    -0.048 SA
ATOM      4  C   UNL d   1      60.624  49.452  51.621  0.00  0.00     0.050 A 
ATOM      5  C   UNL d   1      60.855  48.875  51.076  0.00  0.00     0.072 A 
ATOM      6  C   UNL d   1      61.131  49.670  52.232  0.00  0.00     0.027 A 
ATOM      7  C   UNL d   1      61.594  48.515  51.143  0.00  0.00     0.020 A 
ATOM      8  C   UNL d   1      61.871  49.310  52.300  0.00  0.00     0.085 A 
ATOM      9  C   UNL d   1      62.102  48.734  51.756  0.00  0.00     0.021 A 
ENDROOT
BRANCH   1  10
ATOM     10  N   UNL d   1      58.908  49.365  50.343  0.00  0.00    -0.184 NA
ATOM     11  C   UNL d   1      58.233  49.007  50.653  0.00  0.00     0.281 C 
ATOM     12  O   UNL d   1      58.281  48.579  51.355  0.00  0.00    -0.265 OA
BRANCH  11  13
ATOM     13  C   UNL d   1      57.510  49.077  50.260  0.00  0.00     0.058 A 
ATOM     14  C   UNL d   1      57.455  48.930  49.440  0.00  0.00     0.005 A 
ATOM     15  C   UNL d   1      56.732  49.001  49.047  0.00  0.00     0.000 A 
ATOM     16  C   UNL d   1      56.053  49.220  49.468  0.00  0.00     0.000 A 
ATOM     17  C   UNL d   1      56.107  49.365  50.277  0.00  0.00     0.000 A 
ATOM     18  C   UNL d   1      56.830  49.294  50.670  0.00  0.00     0.005 A 
ENDBRANCH  11  13
ENDBRANCH   1  10
BRANCH   2  19
ATOM     19  C   UNL d   1      60.239  48.252  49.897  0.00  0.00     0.082 C 
BRANCH  19  20
ATOM     20  C   UNL d   1      60.921  47.833  49.702  0.00  0.00     0.019 C 
ATOM     21  C   UNL d   1      60.900  47.012  49.646  0.00  0.00     0.002 C 
ENDBRANCH  19  20
ENDBRANCH   2  19
BRANCH   8  22
ATOM     22  N   UNL d   1      62.388  49.530  52.921  0.00  0.00    -0.208 NA
ATOM     23  C   UNL d   1      62.539  49.004  53.528  0.00  0.00     0.279 C 
ATOM     24  O   UNL d   1      63.049  49.223  54.137  0.00  0.00    -0.265 OA
ATOM     25  C   UNL d   1      62.188  48.256  53.539  0.00  0.00     0.068 C 
ENDBRANCH   8  22
TORSDOF 5
ENDMDL
