MODEL 1
REMARK VINA RESULT:      77.0      0.000      0.000
REMARK  8 active torsions:
REMARK  status: ('A' for Active; 'I' for Inactive)
REMARK    1  A    between atoms: C_3  and  N_1 
REMARK    2  A    between atoms: C_8  and  N_2 
REMARK    3  A    between atoms: C_6  and  C_3 
REMARK    4  A    between atoms: C_9  and  C_3 
REMARK       I    between atoms: C_4  and  N_7 
REMARK    5  A    between atoms: C_5  and  C_4 
REMARK       I    between atoms: N_10  and  C_5 
REMARK    6  A    between atoms: N_7  and  C_9 
REMARK    7  A    between atoms: C_22  and  N_10 
REMARK    8  A    between atoms: C_24  and  C_22 
ROOT
ATOM      1  C   UNL d   1     -50.241  25.981  33.817  0.00  0.00     0.106 C 
ENDROOT
BRANCH   1   2
ATOM      2  N   UNL d   1     -50.954  25.552  33.803  0.00  0.00    -0.298 N 
ATOM      3  C   UNL d   1     -51.669  25.956  33.881  0.00  0.00     0.100 A 
ATOM      4  C   UNL d   1     -52.382  25.542  33.869  0.00  0.00     0.100 A 
ATOM      5  N   UNL d   1     -52.380  24.722  33.778  0.00  0.00    -0.299 N 
ATOM      6  C   UNL d   1     -51.665  24.321  33.700  0.00  0.00     0.100 A 
ATOM      7  C   UNL d   1     -50.952  24.732  33.712  0.00  0.00     0.100 A 
BRANCH   5   8
ATOM      8  C   UNL d   1     -53.089  24.311  33.766  0.00  0.00     0.092 A 
ATOM      9  C   UNL d   1     -53.173  23.613  34.195  0.00  0.00     0.156 A 
ATOM     10  F   UNL d   1     -52.540  23.327  34.639  0.00  0.00    -0.203 F 
ATOM     11  C   UNL d   1     -53.884  23.199  34.184  0.00  0.00     0.031 A 
ATOM     12  C   UNL d   1     -54.518  23.485  33.739  0.00  0.00     0.002 A 
ATOM     13  C   UNL d   1     -54.435  24.187  33.306  0.00  0.00     0.002 A 
ATOM     14  C   UNL d   1     -53.722  24.597  33.321  0.00  0.00     0.020 A 
ENDBRANCH   5   8
ENDBRANCH   1   2
BRANCH   1  15
ATOM     15  C   UNL d   1     -49.527  25.614  33.624  0.00  0.00     0.118 A 
ATOM     16  O   UNL d   1     -48.754  25.903  33.527  0.00  0.00    -0.304 OA
ATOM     17  C   UNL d   1     -48.266  25.277  33.334  0.00  0.00     0.123 A 
ATOM     18  C   UNL d   1     -48.726  24.593  33.308  0.00  0.00     0.029 A 
ATOM     19  C   UNL d   1     -49.505  24.808  33.488  0.00  0.00     0.028 A 
ENDBRANCH   1  15
BRANCH   1  20
ATOM     20  C   UNL d   1     -50.249  26.787  34.027  0.00  0.00     0.122 C 
BRANCH  20  21
ATOM     21  N   UNL d   1     -49.590  27.126  34.390  0.00  0.00    -0.201 NA
ATOM     22  C   UNL d   1     -49.361  27.901  34.209  0.00  0.00     0.337 C 
ATOM     23  O   UNL d   1     -49.800  28.333  33.662  0.00  0.00    -0.260 OA
BRANCH  22  24
ATOM     24  C   UNL d   1     -48.709  28.231  34.570  0.00  0.00     0.337 C 
ATOM     25  N   UNL d   1     -48.754  28.993  34.886  0.00  0.00    -0.202 NA
ATOM     26  O   UNL d   1     -48.004  27.805  34.619  0.00  0.00    -0.260 OA
BRANCH  25  27
ATOM     27  C   UNL d   1     -48.094  29.327  35.251  0.00  0.00     0.102 C 
BRANCH  27  28
ATOM     28  C   UNL d   1     -47.939  30.129  35.168  0.00  0.00     0.019 A 
ATOM     29  C   UNL d   1     -47.248  30.452  35.482  0.00  0.00     0.002 A 
ATOM     30  C   UNL d   1     -47.092  31.251  35.401  0.00  0.00     0.000 A 
ATOM     31  C   UNL d   1     -47.632  31.742  34.999  0.00  0.00     0.000 A 
ATOM     32  C   UNL d   1     -48.324  31.419  34.686  0.00  0.00     0.000 A 
ATOM     33  C   UNL d   1     -48.477  30.613  34.770  0.00  0.00     0.002 A 
ENDBRANCH  27  28
ENDBRANCH  25  27
ENDBRANCH  22  24
ENDBRANCH  20  21
ENDBRANCH   1  20
TORSDOF 8
ENDMDL
MODEL 2
REMARK VINA RESULT:      77.6      2.081      6.867
REMARK  8 active torsions:
REMARK  status: ('A' for Active; 'I' for Inactive)
REMARK    1  A    between atoms: C_3  and  N_1 
REMARK    2  A    between atoms: C_8  and  N_2 
REMARK    3  A    between atoms: C_6  and  C_3 
REMARK    4  A    between atoms: C_9  and  C_3 
REMARK       I    between atoms: C_4  and  N_7 
REMARK    5  A    between atoms: C_5  and  C_4 
REMARK       I    between atoms: N_10  and  C_5 
REMARK    6  A    between atoms: N_7  and  C_9 
REMARK    7  A    between atoms: C_22  and  N_10 
REMARK    8  A    between atoms: C_24  and  C_22 
ROOT
ATOM      1  C   UNL d   1     -49.188  27.931  35.439  0.00  0.00     0.106 C 
ENDROOT
BRANCH   1   2
ATOM      2  N   UNL d   1     -48.761  28.641  35.359  0.00  0.00    -0.298 N 
ATOM      3  C   UNL d   1     -48.006  28.622  35.025  0.00  0.00     0.100 A 
ATOM      4  C   UNL d   1     -47.574  29.320  34.941  0.00  0.00     0.100 A 
ATOM      5  N   UNL d   1     -47.896  30.037  35.192  0.00  0.00    -0.299 N 
ATOM      6  C   UNL d   1     -48.649  30.052  35.525  0.00  0.00     0.100 A 
ATOM      7  C   UNL d   1     -49.083  29.358  35.610  0.00  0.00     0.100 A 
BRANCH   5   8
ATOM      8  C   UNL d   1     -47.466  30.729  35.108  0.00  0.00     0.092 A 
ATOM      9  C   UNL d   1     -47.069  31.053  35.752  0.00  0.00     0.156 A 
ATOM     10  F   UNL d   1     -47.105  30.678  36.486  0.00  0.00    -0.203 F 
ATOM     11  C   UNL d   1     -46.636  31.749  35.671  0.00  0.00     0.031 A 
ATOM     12  C   UNL d   1     -46.600  32.124  34.937  0.00  0.00     0.002 A 
ATOM     13  C   UNL d   1     -46.999  31.799  34.287  0.00  0.00     0.002 A 
ATOM     14  C   UNL d   1     -47.430  31.104  34.374  0.00  0.00     0.020 A 
ENDBRANCH   5   8
ENDBRANCH   1   2
BRANCH   1  15
ATOM     15  C   UNL d   1     -49.544  27.735  36.157  0.00  0.00     0.118 A 
ATOM     16  O   UNL d   1     -49.855  27.024  36.454  0.00  0.00    -0.304 OA
ATOM     17  C   UNL d   1     -50.140  27.161  37.207  0.00  0.00     0.123 A 
ATOM     18  C   UNL d   1     -50.012  27.956  37.388  0.00  0.00     0.029 A 
ATOM     19  C   UNL d   1     -49.643  28.305  36.734  0.00  0.00     0.028 A 
ENDBRANCH   1  15
BRANCH   1  20
ATOM     20  C   UNL d   1     -49.254  27.416  34.788  0.00  0.00     0.122 C 
BRANCH  20  21
ATOM     21  N   UNL d   1     -49.998  27.235  34.479  0.00  0.00    -0.201 NA
ATOM     22  C   UNL d   1     -50.096  26.596  33.962  0.00  0.00     0.337 C 
ATOM     23  O   UNL d   1     -49.441  26.140  33.757  0.00  0.00    -0.260 OA
BRANCH  22  24
ATOM     24  C   UNL d   1     -50.832  26.420  33.660  0.00  0.00     0.337 C 
ATOM     25  N   UNL d   1     -51.094  25.638  33.637  0.00  0.00    -0.202 NA
ATOM     26  O   UNL d   1     -51.317  27.026  33.376  0.00  0.00    -0.260 OA
BRANCH  25  27
ATOM     27  C   UNL d   1     -51.840  25.460  33.331  0.00  0.00     0.102 C 
BRANCH  27  28
ATOM     28  C   UNL d   1     -52.153  24.707  33.421  0.00  0.00     0.019 A 
ATOM     29  C   UNL d   1     -51.673  24.044  33.323  0.00  0.00     0.002 A 
ATOM     30  C   UNL d   1     -51.983  23.292  33.412  0.00  0.00     0.000 A 
ATOM     31  C   UNL d   1     -52.788  23.194  33.603  0.00  0.00     0.000 A 
ATOM     32  C   UNL d   1     -53.269  23.857  33.701  0.00  0.00     0.000 A 
ATOM     33  C   UNL d   1     -52.951  24.614  33.610  0.00  0.00     0.002 A 
ENDBRANCH  27  28
ENDBRANCH  25  27
ENDBRANCH  22  24
ENDBRANCH  20  21
ENDBRANCH   1  20
TORSDOF 8
ENDMDL
