MODEL 1
REMARK VINA RESULT:      -5.8      0.000      0.000
REMARK  3 active torsions:
REMARK  status: ('A' for Active; 'I' for Inactive)
REMARK    1  A    between atoms: C_2  and  N_1 
REMARK    2  A    between atoms: C_5  and  C_8 
REMARK       I    between atoms: N_6  and  C_5 
REMARK    3  A    between atoms: C_13  and  N_6 
ROOT
ATOM      1  C   UNL d   1      59.204  -1.156  29.066  0.00  0.00     0.070 A 
ATOM      2  C   UNL d   1      58.807  -1.005  29.778  0.00  0.00     0.022 A 
ATOM      3  C   UNL d   1      58.429  -0.284  29.891  0.00  0.00     0.059 A 
ATOM      4  C   UNL d   1      59.222  -0.576  28.459  0.00  0.00     0.018 A 
ATOM      5  C   UNL d   1      58.442   0.288  29.306  0.00  0.00     0.005 A 
ATOM      6  C   UNL d   1      58.840   0.144  28.584  0.00  0.00     0.002 A 
ENDROOT
BRANCH   3   7
ATOM      7  C   UNL d   1      58.034  -0.130  30.599  0.00  0.00     0.279 C 
ATOM      8  N   UNL d   1      57.265  -0.407  30.710  0.00  0.00    -0.208 NA
ATOM      9  O   UNL d   1      58.403   0.299  31.194  0.00  0.00    -0.265 OA
BRANCH   8  10
ATOM     10  C   UNL d   1      56.863  -0.251  31.429  0.00  0.00     0.085 A 
ATOM     11  C   UNL d   1      56.616  -0.871  31.908  0.00  0.00     0.020 A 
ATOM     12  C   UNL d   1      56.217  -0.737  32.622  0.00  0.00     0.008 A 
ATOM     13  C   UNL d   1      55.908  -1.241  33.208  0.00  0.00     0.007 A 
ATOM     14  C   UNL d   1      56.065   0.042  32.854  0.00  0.00     0.030 A 
ATOM     15  C   UNL d   1      55.577  -0.766  33.782  0.00  0.00     0.035 A 
ATOM     16  S   UNL d   1      55.661   0.017  33.586  0.00  0.00    -0.086 SA
ATOM     17  C   UNL d   1      56.315   0.682  32.368  0.00  0.00     0.008 A 
ATOM     18  C   UNL d   1      56.713   0.527  31.657  0.00  0.00     0.020 A 
ENDBRANCH   8  10
ENDBRANCH   3   7
BRANCH   1  19
ATOM     19  N   UNL d   1      59.585  -1.878  28.945  0.00  0.00    -0.242 N 
ATOM     20  C   UNL d   1      60.378  -2.060  29.049  0.00  0.00     0.267 A 
ATOM     21  C   UNL d   1      60.517  -2.838  28.867  0.00  0.00     0.066 A 
ATOM     22  O   UNL d   1      60.991  -1.502  29.317  0.00  0.00    -0.267 OA
ATOM     23  C   UNL d   1      59.806  -3.156  28.645  0.00  0.00     0.066 A 
ATOM     24  C   UNL d   1      59.259  -2.585  28.692  0.00  0.00     0.267 A 
ATOM     25  O   UNL d   1      58.410  -2.714  28.494  0.00  0.00    -0.267 OA
ENDBRANCH   1  19
TORSDOF 3
ENDMDL
MODEL 2
REMARK VINA RESULT:      -4.1      2.294      5.407
REMARK  3 active torsions:
REMARK  status: ('A' for Active; 'I' for Inactive)
REMARK    1  A    between atoms: C_2  and  N_1 
REMARK    2  A    between atoms: C_5  and  C_8 
REMARK       I    between atoms: N_6  and  C_5 
REMARK    3  A    between atoms: C_13  and  N_6 
ROOT
ATOM      1  C   UNL d   1      56.056  -0.383  33.187  0.00  0.00     0.070 A 
ATOM      2  C   UNL d   1      56.558  -0.040  32.624  0.00  0.00     0.022 A 
ATOM      3  C   UNL d   1      56.766  -0.462  31.950  0.00  0.00     0.059 A 
ATOM      4  C   UNL d   1      55.759  -1.161  33.074  0.00  0.00     0.018 A 
ATOM      5  C   UNL d   1      56.482  -1.220  31.830  0.00  0.00     0.005 A 
ATOM      6  C   UNL d   1      55.975  -1.574  32.394  0.00  0.00     0.002 A 
ENDROOT
BRANCH   3   7
ATOM      7  C   UNL d   1      57.265  -0.123  31.387  0.00  0.00     0.279 C 
ATOM      8  N   UNL d   1      57.601  -0.593  30.798  0.00  0.00    -0.208 NA
ATOM      9  O   UNL d   1      57.429   0.681  31.411  0.00  0.00    -0.265 OA
BRANCH   8  10
ATOM     10  C   UNL d   1      58.108  -0.249  30.226  0.00  0.00     0.085 A 
ATOM     11  C   UNL d   1      58.911  -0.420  30.230  0.00  0.00     0.020 A 
ATOM     12  C   UNL d   1      59.429  -0.090  29.673  0.00  0.00     0.008 A 
ATOM     13  C   UNL d   1      60.249  -0.158  29.543  0.00  0.00     0.007 A 
ATOM     14  C   UNL d   1      59.125   0.423  29.100  0.00  0.00     0.030 A 
ATOM     15  C   UNL d   1      60.429   0.310  28.900  0.00  0.00     0.035 A 
ATOM     16  S   UNL d   1      59.760   0.671  28.615  0.00  0.00    -0.086 SA
ATOM     17  C   UNL d   1      58.303   0.602  29.090  0.00  0.00     0.008 A 
ATOM     18  C   UNL d   1      57.801   0.262  29.656  0.00  0.00     0.020 A 
ENDBRANCH   8  10
ENDBRANCH   3   7
BRANCH   1  19
ATOM     19  N   UNL d   1      55.843   0.035  33.866  0.00  0.00    -0.242 N 
ATOM     20  C   UNL d   1      55.096   0.283  34.100  0.00  0.00     0.267 A 
ATOM     21  C   UNL d   1      55.137   0.678  34.808  0.00  0.00     0.066 A 
ATOM     22  O   UNL d   1      54.359   0.145  33.657  0.00  0.00    -0.267 OA
ATOM     23  C   UNL d   1      55.917   0.682  35.027  0.00  0.00     0.066 A 
ATOM     24  C   UNL d   1      56.330   0.301  34.469  0.00  0.00     0.267 A 
ATOM     25  O   UNL d   1      57.202   0.188  34.507  0.00  0.00    -0.267 OA
ENDBRANCH   1  19
TORSDOF 3
ENDMDL
