MODEL 1
REMARK VINA RESULT:      76.4      0.000      0.000
REMARK  9 active torsions:
REMARK  status: ('A' for Active; 'I' for Inactive)
REMARK    1  A    between atoms: N_2  and  S_1 
REMARK    2  A    between atoms: C_9  and  S_1 
REMARK    3  A    between atoms: C_4  and  N_2 
REMARK    4  A    between atoms: O_24  and  C_6 
REMARK    5  A    between atoms: O_26  and  C_7 
REMARK       I    between atoms: C_12  and  N_15 
REMARK    6  A    between atoms: C_22  and  C_12 
REMARK    7  A    between atoms: C_14  and  O_16 
REMARK    8  A    between atoms: N_15  and  C_23 
REMARK    9  A    between atoms: O_16  and  C_22 
ROOT
ATOM      1  C   UNL d   1     -51.068  25.448  33.710  0.00  0.00     0.105 A 
ATOM      2  C   UNL d   1     -50.489  25.450  34.290  0.00  0.00     0.015 A 
ATOM      3  C   UNL d   1     -51.259  26.151  33.310  0.00  0.00     0.015 A 
ATOM      4  C   UNL d   1     -50.283  26.839  34.084  0.00  0.00     0.085 A 
ATOM      5  C   UNL d   1     -50.081  26.137  34.496  0.00  0.00     0.020 A 
ATOM      6  C   UNL d   1     -50.858  26.839  33.508  0.00  0.00     0.020 A 
ENDROOT
BRANCH   1   7
ATOM      7  S   UNL d   1     -51.470  24.760  33.511  0.00  0.00     0.287 S 
ATOM      8  O   UNL d   1     -50.751  24.311  33.620  0.00  0.00    -0.198 OA
ATOM      9  O   UNL d   1     -52.179  25.177  33.399  0.00  0.00    -0.198 OA
BRANCH   7  10
ATOM     10  N   UNL d   1     -51.859  24.044  33.311  0.00  0.00    -0.139 NA
BRANCH  10  11
ATOM     11  C   UNL d   1     -52.519  23.785  33.715  0.00  0.00     0.182 A 
ATOM     12  N   UNL d   1     -53.205  23.641  33.328  0.00  0.00    -0.185 NA
ATOM     13  C   UNL d   1     -53.890  23.374  33.730  0.00  0.00     0.274 A 
ATOM     14  N   UNL d   1     -53.859  23.259  34.534  0.00  0.00    -0.181 NA
ATOM     15  C   UNL d   1     -53.174  23.398  34.945  0.00  0.00     0.185 A 
ATOM     16  C   UNL d   1     -52.477  23.672  34.518  0.00  0.00     0.084 A 
BRANCH  13  17
ATOM     17  O   UNL d   1     -54.608  23.224  33.322  0.00  0.00    -0.297 OA
ATOM     18  C   UNL d   1     -55.325  23.191  33.727  0.00  0.00     0.185 C 
ENDBRANCH  13  17
BRANCH  15  19
ATOM     19  O   UNL d   1     -53.174  23.269  35.774  0.00  0.00    -0.312 OA
ATOM     20  C   UNL d   1     -53.504  23.859  36.267  0.00  0.00     0.183 C 
ENDBRANCH  15  19
ENDBRANCH  10  11
ENDBRANCH   7  10
ENDBRANCH   1   7
BRANCH   4  21
ATOM     21  N   UNL d   1     -49.893  27.549  34.266  0.00  0.00    -0.206 NA
ATOM     22  C   UNL d   1     -49.055  27.529  34.329  0.00  0.00     0.304 C 
ATOM     23  O   UNL d   1     -48.660  26.854  34.219  0.00  0.00    -0.263 OA
BRANCH  22  24
ATOM     24  C   UNL d   1     -48.667  28.234  34.509  0.00  0.00     0.185 C 
BRANCH  24  25
ATOM     25  O   UNL d   1     -48.510  28.440  35.289  0.00  0.00    -0.300 OA
BRANCH  25  26
ATOM     26  C   UNL d   1     -47.938  29.036  35.437  0.00  0.00     0.100 A 
ATOM     27  C   UNL d   1     -47.685  29.229  36.196  0.00  0.00     0.023 A 
ATOM     28  C   UNL d   1     -47.128  29.810  36.326  0.00  0.00     0.002 A 
ATOM     29  C   UNL d   1     -48.002  28.822  36.874  0.00  0.00     0.002 C 
ATOM     30  C   UNL d   1     -46.814  30.209  35.700  0.00  0.00     0.000 A 
ATOM     31  C   UNL d   1     -47.045  30.041  34.917  0.00  0.00     0.002 A 
ATOM     32  C   UNL d   1     -46.242  30.807  35.815  0.00  0.00     0.000 C 
ATOM     33  C   UNL d   1     -47.602  29.460  34.787  0.00  0.00     0.025 A 
ENDBRANCH  25  26
ENDBRANCH  24  25
ENDBRANCH  22  24
ENDBRANCH   4  21
TORSDOF 9
ENDMDL
MODEL 2
REMARK VINA RESULT:      79.2      1.763      3.193
REMARK  9 active torsions:
REMARK  status: ('A' for Active; 'I' for Inactive)
REMARK    1  A    between atoms: N_2  and  S_1 
REMARK    2  A    between atoms: C_9  and  S_1 
REMARK    3  A    between atoms: C_4  and  N_2 
REMARK    4  A    between atoms: O_24  and  C_6 
REMARK    5  A    between atoms: O_26  and  C_7 
REMARK       I    between atoms: C_12  and  N_15 
REMARK    6  A    between atoms: C_22  and  C_12 
REMARK    7  A    between atoms: C_14  and  O_16 
REMARK    8  A    between atoms: N_15  and  C_23 
REMARK    9  A    between atoms: O_16  and  C_22 
ROOT
ATOM      1  C   UNL d   1     -49.052  27.461  34.424  0.00  0.00     0.105 A 
ATOM      2  C   UNL d   1     -48.389  27.879  34.187  0.00  0.00     0.015 A 
ATOM      3  C   UNL d   1     -49.499  27.722  35.075  0.00  0.00     0.015 A 
ATOM      4  C   UNL d   1     -48.603  28.816  35.231  0.00  0.00     0.085 A 
ATOM      5  C   UNL d   1     -48.143  28.564  34.576  0.00  0.00     0.020 A 
ATOM      6  C   UNL d   1     -49.262  28.402  35.468  0.00  0.00     0.020 A 
ENDROOT
BRANCH   1   7
ATOM      7  S   UNL d   1     -49.291  26.780  34.031  0.00  0.00     0.287 S 
ATOM      8  O   UNL d   1     -49.360  27.226  33.306  0.00  0.00    -0.198 OA
ATOM      9  O   UNL d   1     -49.230  26.329  34.725  0.00  0.00    -0.198 OA
BRANCH   7  10
ATOM     10  N   UNL d   1     -49.536  26.098  33.608  0.00  0.00    -0.139 NA
BRANCH  10  11
ATOM     11  C   UNL d   1     -50.325  25.913  33.510  0.00  0.00     0.182 A 
ATOM     12  N   UNL d   1     -50.878  26.490  33.460  0.00  0.00    -0.185 NA
ATOM     13  C   UNL d   1     -51.691  26.315  33.359  0.00  0.00     0.274 A 
ATOM     14  N   UNL d   1     -51.926  25.538  33.311  0.00  0.00    -0.181 NA
ATOM     15  C   UNL d   1     -51.383  24.938  33.359  0.00  0.00     0.185 A 
ATOM     16  C   UNL d   1     -50.550  25.134  33.463  0.00  0.00     0.084 A 
BRANCH  13  17
ATOM     17  O   UNL d   1     -52.268  26.922  33.307  0.00  0.00    -0.297 OA
ATOM     18  C   UNL d   1     -53.052  26.778  33.516  0.00  0.00     0.185 C 
ENDBRANCH  13  17
BRANCH  15  19
ATOM     19  O   UNL d   1     -51.658  24.147  33.306  0.00  0.00    -0.312 OA
ATOM     20  C   UNL d   1     -52.318  23.925  33.769  0.00  0.00     0.183 C 
ENDBRANCH  15  19
ENDBRANCH  10  11
ENDBRANCH   7  10
ENDBRANCH   1   7
BRANCH   4  21
ATOM     21  N   UNL d   1     -48.385  29.501  35.646  0.00  0.00    -0.206 NA
ATOM     22  C   UNL d   1     -47.620  29.819  35.502  0.00  0.00     0.304 C 
ATOM     23  O   UNL d   1     -47.131  29.472  34.988  0.00  0.00    -0.263 OA
BRANCH  22  24
ATOM     24  C   UNL d   1     -47.403  30.499  35.915  0.00  0.00     0.185 C 
BRANCH  24  25
ATOM     25  O   UNL d   1     -46.862  31.029  35.597  0.00  0.00    -0.300 OA
BRANCH  25  26
ATOM     26  C   UNL d   1     -47.146  31.634  35.089  0.00  0.00     0.100 A 
ATOM     27  C   UNL d   1     -47.391  32.368  35.368  0.00  0.00     0.023 A 
ATOM     28  C   UNL d   1     -47.665  32.947  34.864  0.00  0.00     0.002 A 
ATOM     29  C   UNL d   1     -47.366  32.545  36.201  0.00  0.00     0.002 C 
ATOM     30  C   UNL d   1     -47.699  32.804  34.072  0.00  0.00     0.000 A 
ATOM     31  C   UNL d   1     -47.459  32.072  33.752  0.00  0.00     0.002 A 
ATOM     32  C   UNL d   1     -47.976  33.385  33.541  0.00  0.00     0.000 C 
ATOM     33  C   UNL d   1     -47.185  31.493  34.256  0.00  0.00     0.025 A 
ENDBRANCH  25  26
ENDBRANCH  24  25
ENDBRANCH  22  24
ENDBRANCH   4  21
TORSDOF 9
ENDMDL
