MODEL 1
REMARK VINA RESULT:      -1.8      0.000      0.000
REMARK  8 active torsions:
REMARK  status: ('A' for Active; 'I' for Inactive)
REMARK    1  A    between atoms: C_2  and  C_4 
REMARK    2  A    between atoms: S_9  and  C_6 
REMARK    3  A    between atoms: C_7  and  C_17 
REMARK       I    between atoms: N_16  and  C_7 
REMARK    4  A    between atoms: C_17  and  S_9 
REMARK    5  A    between atoms: O_19  and  C_14 
REMARK    6  A    between atoms: C_15  and  C_21 
REMARK    7  A    between atoms: C_20  and  N_16 
REMARK    8  A    between atoms: C_21  and  C_20 
ROOT
ATOM      1  C   UNL d   1     -41.773-123.193 -50.837  0.00  0.00     0.286 C 
ATOM      2  O   UNL d   1     -41.124-123.688 -50.731  0.00  0.00    -0.265 OA
ATOM      3  N   UNL d   1     -42.245-123.004 -50.201  0.00  0.00    -0.206 NA
ENDROOT
BRANCH   1   4
ATOM      4  C   UNL d   1     -41.942-122.892 -51.589  0.00  0.00     0.099 C 
BRANCH   4   5
ATOM      5  S   UNL d   1     -41.449-123.076 -52.219  0.00  0.00    -0.061 SA
BRANCH   5   6
ATOM      6  C   UNL d   1     -41.634-122.821 -52.981  0.00  0.00     0.133 A 
ATOM      7  N   UNL d   1     -42.156-122.201 -53.099  0.00  0.00    -0.141 NA
ATOM      8  N   UNL d   1     -42.342-121.946 -53.853  0.00  0.00    -0.147 NA
ATOM      9  C   UNL d   1     -42.000-122.318 -54.505  0.00  0.00     0.109 A 
ATOM     10  C   UNL d   1     -41.473-122.945 -54.395  0.00  0.00     0.024 A 
ATOM     11  C   UNL d   1     -41.292-123.194 -53.641  0.00  0.00     0.029 A 
BRANCH   9  12
ATOM     12  C   UNL d   1     -42.183-122.066 -55.267  0.00  0.00     0.049 A 
ATOM     13  S   UNL d   1     -42.896-122.179 -55.663  0.00  0.00    -0.085 SA
ATOM     14  C   UNL d   1     -42.844-121.840 -56.413  0.00  0.00     0.035 A 
ATOM     15  C   UNL d   1     -42.080-121.510 -56.484  0.00  0.00     0.007 A 
ATOM     16  C   UNL d   1     -41.670-121.648 -55.778  0.00  0.00     0.009 A 
ENDBRANCH   9  12
ENDBRANCH   5   6
ENDBRANCH   4   5
ENDBRANCH   1   4
BRANCH   3  17
ATOM     17  C   UNL d   1     -42.076-123.305 -49.449  0.00  0.00     0.102 C 
BRANCH  17  18
ATOM     18  C   UNL d   1     -42.188-122.840 -48.783  0.00  0.00     0.023 C 
BRANCH  18  19
ATOM     19  C   UNL d   1     -42.517-123.166 -48.098  0.00  0.00     0.024 A 
ATOM     20  C   UNL d   1     -42.080-123.204 -47.408  0.00  0.00     0.094 A 
ATOM     21  C   UNL d   1     -42.404-123.525 -46.734  0.00  0.00     0.024 A 
ATOM     22  C   UNL d   1     -43.180-123.815 -46.745  0.00  0.00     0.002 A 
ATOM     23  C   UNL d   1     -43.622-123.776 -47.443  0.00  0.00     0.000 A 
ATOM     24  C   UNL d   1     -43.285-123.450 -48.118  0.00  0.00     0.002 A 
BRANCH  20  25
ATOM     25  O   UNL d   1     -41.311-122.919 -47.391  0.00  0.00    -0.328 OA
ATOM     26  C   UNL d   1     -41.123-122.289 -46.898  0.00  0.00     0.181 C 
ENDBRANCH  20  25
ENDBRANCH  18  19
ENDBRANCH  17  18
ENDBRANCH   3  17
TORSDOF 8
ENDMDL
MODEL 2
REMARK VINA RESULT:      -0.1      1.750      6.680
REMARK  8 active torsions:
REMARK  status: ('A' for Active; 'I' for Inactive)
REMARK    1  A    between atoms: C_2  and  C_4 
REMARK    2  A    between atoms: S_9  and  C_6 
REMARK    3  A    between atoms: C_7  and  C_17 
REMARK       I    between atoms: N_16  and  C_7 
REMARK    4  A    between atoms: C_17  and  S_9 
REMARK    5  A    between atoms: O_19  and  C_14 
REMARK    6  A    between atoms: C_15  and  C_21 
REMARK    7  A    between atoms: C_20  and  N_16 
REMARK    8  A    between atoms: C_21  and  C_20 
ROOT
ATOM      1  C   UNL d   1     -41.206-122.105 -52.290  0.00  0.00     0.286 C 
ATOM      2  O   UNL d   1     -41.176-121.283 -52.265  0.00  0.00    -0.265 OA
ATOM      3  N   UNL d   1     -41.318-122.484 -53.002  0.00  0.00    -0.206 NA
ENDROOT
BRANCH   1   4
ATOM      4  C   UNL d   1     -41.123-122.541 -51.592  0.00  0.00     0.099 C 
BRANCH   4   5
ATOM      5  S   UNL d   1     -41.791-122.830 -51.212  0.00  0.00    -0.061 SA
BRANCH   5   6
ATOM      6  C   UNL d   1     -41.781-122.972 -50.400  0.00  0.00     0.133 A 
ATOM      7  N   UNL d   1     -41.474-123.671 -50.103  0.00  0.00    -0.141 NA
ATOM      8  N   UNL d   1     -41.463-123.816 -49.298  0.00  0.00    -0.147 NA
ATOM      9  C   UNL d   1     -41.763-123.251 -48.777  0.00  0.00     0.109 A 
ATOM     10  C   UNL d   1     -42.074-122.542 -49.070  0.00  0.00     0.024 A 
ATOM     11  C   UNL d   1     -42.083-122.405 -49.872  0.00  0.00     0.029 A 
BRANCH   9  12
ATOM     12  C   UNL d   1     -41.755-123.389 -47.966  0.00  0.00     0.049 A 
ATOM     13  S   UNL d   1     -42.324-123.798 -47.533  0.00  0.00    -0.085 SA
ATOM     14  C   UNL d   1     -42.100-123.808 -46.740  0.00  0.00     0.035 A 
ATOM     15  C   UNL d   1     -41.376-123.395 -46.679  0.00  0.00     0.007 A 
ATOM     16  C   UNL d   1     -41.162-123.136 -47.435  0.00  0.00     0.009 A 
ENDBRANCH   9  12
ENDBRANCH   5   6
ENDBRANCH   4   5
ENDBRANCH   1   4
BRANCH   3  17
ATOM     17  C   UNL d   1     -41.402-122.048 -53.700  0.00  0.00     0.102 C 
BRANCH  17  18
ATOM     18  C   UNL d   1     -41.255-122.400 -54.426  0.00  0.00     0.023 C 
BRANCH  18  19
ATOM     19  C   UNL d   1     -41.869-122.498 -54.973  0.00  0.00     0.024 A 
ATOM     20  C   UNL d   1     -41.957-121.972 -55.592  0.00  0.00     0.094 A 
ATOM     21  C   UNL d   1     -42.561-122.068 -56.130  0.00  0.00     0.024 A 
ATOM     22  C   UNL d   1     -43.089-122.702 -56.050  0.00  0.00     0.002 A 
ATOM     23  C   UNL d   1     -42.999-123.234 -55.423  0.00  0.00     0.000 A 
ATOM     24  C   UNL d   1     -42.386-123.127 -54.886  0.00  0.00     0.002 A 
BRANCH  20  25
ATOM     25  O   UNL d   1     -41.437-121.342 -55.676  0.00  0.00    -0.328 OA
ATOM     26  C   UNL d   1     -41.484-120.863 -56.342  0.00  0.00     0.181 C 
ENDBRANCH  20  25
ENDBRANCH  18  19
ENDBRANCH  17  18
ENDBRANCH   3  17
TORSDOF 8
ENDMDL
MODEL 3
REMARK VINA RESULT:       0.3      1.100      1.521
REMARK  8 active torsions:
REMARK  status: ('A' for Active; 'I' for Inactive)
REMARK    1  A    between atoms: C_2  and  C_4 
REMARK    2  A    between atoms: S_9  and  C_6 
REMARK    3  A    between atoms: C_7  and  C_17 
REMARK       I    between atoms: N_16  and  C_7 
REMARK    4  A    between atoms: C_17  and  S_9 
REMARK    5  A    between atoms: O_19  and  C_14 
REMARK    6  A    between atoms: C_15  and  C_21 
REMARK    7  A    between atoms: C_20  and  N_16 
REMARK    8  A    between atoms: C_21  and  C_20 
ROOT
ATOM      1  C   UNL d   1     -41.516-121.924 -50.665  0.00  0.00     0.286 C 
ATOM      2  O   UNL d   1     -42.223-121.566 -50.440  0.00  0.00    -0.265 OA
ATOM      3  N   UNL d   1     -41.129-122.415 -50.143  0.00  0.00    -0.206 NA
ENDROOT
BRANCH   1   4
ATOM      4  C   UNL d   1     -41.205-121.782 -51.418  0.00  0.00     0.099 C 
BRANCH   4   5
ATOM      5  S   UNL d   1     -41.124-122.405 -51.946  0.00  0.00    -0.061 SA
BRANCH   5   6
ATOM      6  C   UNL d   1     -41.400-122.335 -52.720  0.00  0.00     0.133 A 
ATOM      7  N   UNL d   1     -41.269-122.932 -53.265  0.00  0.00    -0.141 NA
ATOM      8  N   UNL d   1     -41.542-122.866 -54.033  0.00  0.00    -0.147 NA
ATOM      9  C   UNL d   1     -41.955-122.189 -54.263  0.00  0.00     0.109 A 
ATOM     10  C   UNL d   1     -42.091-121.583 -53.718  0.00  0.00     0.024 A 
ATOM     11  C   UNL d   1     -41.817-121.655 -52.955  0.00  0.00     0.029 A 
BRANCH   9  12
ATOM     12  C   UNL d   1     -42.232-122.116 -55.034  0.00  0.00     0.049 A 
ATOM     13  S   UNL d   1     -41.783-121.942 -55.702  0.00  0.00    -0.085 SA
ATOM     14  C   UNL d   1     -42.279-121.921 -56.360  0.00  0.00     0.035 A 
ATOM     15  C   UNL d   1     -43.053-122.086 -56.095  0.00  0.00     0.007 A 
ATOM     16  C   UNL d   1     -43.027-122.207 -55.276  0.00  0.00     0.009 A 
ENDBRANCH   9  12
ENDBRANCH   5   6
ENDBRANCH   4   5
ENDBRANCH   1   4
BRANCH   3  17
ATOM     17  C   UNL d   1     -41.440-122.556 -49.390  0.00  0.00     0.102 C 
BRANCH  17  18
ATOM     18  C   UNL d   1     -41.694-123.308 -49.183  0.00  0.00     0.023 C 
BRANCH  18  19
ATOM     19  C   UNL d   1     -41.976-123.457 -48.420  0.00  0.00     0.024 A 
ATOM     20  C   UNL d   1     -42.757-123.671 -48.303  0.00  0.00     0.094 A 
ATOM     21  C   UNL d   1     -43.035-123.817 -47.552  0.00  0.00     0.024 A 
ATOM     22  C   UNL d   1     -42.526-123.749 -46.901  0.00  0.00     0.002 A 
ATOM     23  C   UNL d   1     -41.736-123.533 -47.020  0.00  0.00     0.000 A 
ATOM     24  C   UNL d   1     -41.466-123.387 -47.783  0.00  0.00     0.002 A 
BRANCH  20  25
ATOM     25  O   UNL d   1     -43.265-123.740 -48.943  0.00  0.00    -0.328 OA
ATOM     26  C   UNL d   1     -44.073-123.817 -48.813  0.00  0.00     0.181 C 
ENDBRANCH  20  25
ENDBRANCH  18  19
ENDBRANCH  17  18
ENDBRANCH   3  17
TORSDOF 8
ENDMDL
