MODEL 1
REMARK VINA RESULT:      -9.8      0.000      0.000
REMARK  3 active torsions:
REMARK  status: ('A' for Active; 'I' for Inactive)
REMARK    1  A    between atoms: S_3  and  N_1 
REMARK    2  A    between atoms: C_8  and  C_4 
REMARK    3  A    between atoms: C_7  and  C_5 
ROOT
ATOM      1  N   UNL d   1      54.125  32.792  54.334  0.00  0.00    -0.155 N 
ATOM      2  N   UNL d   1      54.158  31.973  54.178  0.00  0.00    -0.155 NA
ATOM      3  C   UNL d   1      53.422  33.072  54.048  0.00  0.00     0.096 A 
ATOM      4  C   UNL d   1      53.461  31.772  53.793  0.00  0.00     0.110 A 
ATOM      5  C   UNL d   1      52.989  32.465  53.707  0.00  0.00     0.041 A 
ENDROOT
BRANCH   3   6
ATOM      6  C   UNL d   1      53.172  33.857  54.090  0.00  0.00     0.018 A 
ATOM      7  C   UNL d   1      52.944  34.254  53.414  0.00  0.00     0.002 A 
ATOM      8  C   UNL d   1      52.963  33.867  52.687  0.00  0.00     0.000 C 
ATOM      9  C   UNL d   1      52.694  35.039  53.457  0.00  0.00     0.000 A 
ATOM     10  C   UNL d   1      52.673  35.427  54.176  0.00  0.00     0.000 A 
ATOM     11  C   UNL d   1      52.903  35.029  54.866  0.00  0.00     0.000 A 
ATOM     12  C   UNL d   1      53.153  34.244  54.823  0.00  0.00     0.002 A 
ENDBRANCH   3   6
BRANCH   1  13
ATOM     13  S   UNL d   1      54.706  33.212  54.708  0.00  0.00     0.266 S 
ATOM     14  O   UNL d   1      54.336  33.082  55.419  0.00  0.00    -0.203 OA
ATOM     15  O   UNL d   1      55.103  33.356  53.979  0.00  0.00    -0.203 OA
ATOM     16  C   UNL d   1      55.330  33.661  55.098  0.00  0.00     0.165 C 
ENDBRANCH   1  13
BRANCH   4  17
ATOM     17  C   UNL d   1      53.243  31.023  53.528  0.00  0.00     0.049 A 
ATOM     18  S   UNL d   1      53.407  30.333  53.931  0.00  0.00    -0.085 SA
ATOM     19  C   UNL d   1      53.098  29.710  53.485  0.00  0.00     0.035 A 
ATOM     20  C   UNL d   1      52.741  30.017  52.802  0.00  0.00     0.007 A 
ATOM     21  C   UNL d   1      52.833  30.816  52.836  0.00  0.00     0.009 A 
ENDBRANCH   4  17
TORSDOF 3
ENDMDL
MODEL 2
REMARK VINA RESULT:      -9.6      1.222      1.881
REMARK  3 active torsions:
REMARK  status: ('A' for Active; 'I' for Inactive)
REMARK    1  A    between atoms: S_3  and  N_1 
REMARK    2  A    between atoms: C_8  and  C_4 
REMARK    3  A    between atoms: C_7  and  C_5 
ROOT
ATOM      1  N   UNL d   1      53.014  32.845  53.634  0.00  0.00    -0.155 N 
ATOM      2  N   UNL d   1      52.660  32.168  53.298  0.00  0.00    -0.155 NA
ATOM      3  C   UNL d   1      53.683  32.610  54.024  0.00  0.00     0.096 A 
ATOM      4  C   UNL d   1      53.132  31.526  53.496  0.00  0.00     0.110 A 
ATOM      5  C   UNL d   1      53.784  31.800  53.957  0.00  0.00     0.041 A 
ENDROOT
BRANCH   3   6
ATOM      6  C   UNL d   1      54.194  33.112  54.432  0.00  0.00     0.018 A 
ATOM      7  C   UNL d   1      54.948  33.251  54.150  0.00  0.00     0.002 A 
ATOM      8  C   UNL d   1      55.197  32.885  53.454  0.00  0.00     0.000 C 
ATOM      9  C   UNL d   1      55.459  33.753  54.558  0.00  0.00     0.000 A 
ATOM     10  C   UNL d   1      55.217  34.117  55.248  0.00  0.00     0.000 A 
ATOM     11  C   UNL d   1      54.452  33.981  55.539  0.00  0.00     0.000 A 
ATOM     12  C   UNL d   1      53.941  33.478  55.131  0.00  0.00     0.002 A 
ENDBRANCH   3   6
BRANCH   1  13
ATOM     13  S   UNL d   1      52.721  33.596  53.568  0.00  0.00     0.266 S 
ATOM     14  O   UNL d   1      52.313  33.493  54.263  0.00  0.00    -0.203 OA
ATOM     15  O   UNL d   1      53.137  33.720  52.847  0.00  0.00    -0.203 OA
ATOM     16  C   UNL d   1      52.413  34.397  53.490  0.00  0.00     0.165 C 
ENDBRANCH   1  13
BRANCH   4  17
ATOM     17  C   UNL d   1      53.006  30.738  53.288  0.00  0.00     0.049 A 
ATOM     18  S   UNL d   1      52.982  30.125  53.826  0.00  0.00    -0.085 SA
ATOM     19  C   UNL d   1      52.846  29.432  53.398  0.00  0.00     0.035 A 
ATOM     20  C   UNL d   1      52.785  29.617  52.592  0.00  0.00     0.007 A 
ATOM     21  C   UNL d   1      52.884  30.414  52.534  0.00  0.00     0.009 A 
ENDBRANCH   4  17
TORSDOF 3
ENDMDL
MODEL 3
REMARK VINA RESULT:      -9.6      1.838      3.088
REMARK  3 active torsions:
REMARK  status: ('A' for Active; 'I' for Inactive)
REMARK    1  A    between atoms: S_3  and  N_1 
REMARK    2  A    between atoms: C_8  and  C_4 
REMARK    3  A    between atoms: C_7  and  C_5 
ROOT
ATOM      1  N   UNL d   1      52.879  32.472  53.341  0.00  0.00    -0.155 N 
ATOM      2  N   UNL d   1      52.133  32.601  52.989  0.00  0.00    -0.155 NA
ATOM      3  C   UNL d   1      53.166  33.188  53.587  0.00  0.00     0.096 A 
ATOM      4  C   UNL d   1      51.983  33.407  53.031  0.00  0.00     0.110 A 
ATOM      5  C   UNL d   1      52.635  33.786  53.409  0.00  0.00     0.041 A 
ENDROOT
BRANCH   3   6
ATOM      6  C   UNL d   1      53.891  33.303  53.963  0.00  0.00     0.018 A 
ATOM      7  C   UNL d   1      53.919  33.634  54.709  0.00  0.00     0.002 A 
ATOM      8  C   UNL d   1      53.220  33.853  55.086  0.00  0.00     0.000 C 
ATOM      9  C   UNL d   1      54.644  33.750  55.086  0.00  0.00     0.000 A 
ATOM     10  C   UNL d   1      55.340  33.534  54.717  0.00  0.00     0.000 A 
ATOM     11  C   UNL d   1      55.318  33.198  53.959  0.00  0.00     0.000 A 
ATOM     12  C   UNL d   1      54.593  33.082  53.583  0.00  0.00     0.002 A 
ENDBRANCH   3   6
BRANCH   1  13
ATOM     13  S   UNL d   1      53.234  31.749  53.413  0.00  0.00     0.266 S 
ATOM     14  O   UNL d   1      53.583  31.853  52.688  0.00  0.00    -0.203 OA
ATOM     15  O   UNL d   1      52.880  31.624  54.167  0.00  0.00    -0.203 OA
ATOM     16  C   UNL d   1      53.608  30.977  53.498  0.00  0.00     0.165 C 
ENDBRANCH   1  13
BRANCH   4  17
ATOM     17  C   UNL d   1      51.312  33.798  52.754  0.00  0.00     0.049 A 
ATOM     18  S   UNL d   1      50.619  33.864  53.178  0.00  0.00    -0.085 SA
ATOM     19  C   UNL d   1      50.088  34.292  52.711  0.00  0.00     0.035 A 
ATOM     20  C   UNL d   1      50.456  34.492  51.996  0.00  0.00     0.007 A 
ATOM     21  C   UNL d   1      51.200  34.188  52.029  0.00  0.00     0.009 A 
ENDBRANCH   4  17
TORSDOF 3
ENDMDL
MODEL 4
REMARK VINA RESULT:      -9.1      1.574      3.003
REMARK  3 active torsions:
REMARK  status: ('A' for Active; 'I' for Inactive)
REMARK    1  A    between atoms: S_3  and  N_1 
REMARK    2  A    between atoms: C_8  and  C_4 
REMARK    3  A    between atoms: C_7  and  C_5 
ROOT
ATOM      1  N   UNL d   1      52.949  32.525  53.467  0.00  0.00    -0.155 N 
ATOM      2  N   UNL d   1      53.672  32.494  53.885  0.00  0.00    -0.155 NA
ATOM      3  C   UNL d   1      52.631  33.261  53.576  0.00  0.00     0.096 A 
ATOM      4  C   UNL d   1      53.775  33.225  54.243  0.00  0.00     0.110 A 
ATOM      5  C   UNL d   1      53.118  33.717  54.051  0.00  0.00     0.041 A 
ENDROOT
BRANCH   3   6
ATOM      6  C   UNL d   1      51.916  33.519  53.255  0.00  0.00     0.018 A 
ATOM      7  C   UNL d   1      51.900  34.155  52.742  0.00  0.00     0.002 A 
ATOM      8  C   UNL d   1      52.603  34.539  52.546  0.00  0.00     0.000 C 
ATOM      9  C   UNL d   1      51.186  34.413  52.421  0.00  0.00     0.000 A 
ATOM     10  C   UNL d   1      50.487  34.036  52.613  0.00  0.00     0.000 A 
ATOM     11  C   UNL d   1      50.496  33.390  53.133  0.00  0.00     0.000 A 
ATOM     12  C   UNL d   1      51.211  33.132  53.454  0.00  0.00     0.002 A 
ENDBRANCH   3   6
BRANCH   1  13
ATOM     13  S   UNL d   1      52.642  31.915  53.036  0.00  0.00     0.266 S 
ATOM     14  O   UNL d   1      53.025  32.192  52.377  0.00  0.00    -0.203 OA
ATOM     15  O   UNL d   1      52.237  31.612  53.710  0.00  0.00    -0.203 OA
ATOM     16  C   UNL d   1      52.310  31.260  52.584  0.00  0.00     0.165 C 
ENDBRANCH   1  13
BRANCH   4  17
ATOM     17  C   UNL d   1      54.410  33.457  54.716  0.00  0.00     0.049 A 
ATOM     18  S   UNL d   1      54.393  33.454  55.531  0.00  0.00    -0.085 SA
ATOM     19  C   UNL d   1      55.130  33.723  55.791  0.00  0.00     0.035 A 
ATOM     20  C   UNL d   1      55.604  33.893  55.132  0.00  0.00     0.007 A 
ATOM     21  C   UNL d   1      55.159  33.729  54.482  0.00  0.00     0.009 A 
ENDBRANCH   4  17
TORSDOF 3
ENDMDL
MODEL 5
REMARK VINA RESULT:      -8.9      1.537      3.309
REMARK  3 active torsions:
REMARK  status: ('A' for Active; 'I' for Inactive)
REMARK    1  A    between atoms: S_3  and  N_1 
REMARK    2  A    between atoms: C_8  and  C_4 
REMARK    3  A    between atoms: C_7  and  C_5 
ROOT
ATOM      1  N   UNL d   1      53.301  32.799  53.641  0.00  0.00    -0.155 N 
ATOM      2  N   UNL d   1      52.861  33.473  53.419  0.00  0.00    -0.155 NA
ATOM      3  C   UNL d   1      52.846  32.146  53.496  0.00  0.00     0.096 A 
ATOM      4  C   UNL d   1      52.136  33.206  53.139  0.00  0.00     0.110 A 
ATOM      5  C   UNL d   1      52.120  32.364  53.185  0.00  0.00     0.041 A 
ENDROOT
BRANCH   3   6
ATOM      6  C   UNL d   1      53.077  31.367  53.639  0.00  0.00     0.018 A 
ATOM      7  C   UNL d   1      53.074  30.818  53.034  0.00  0.00     0.002 A 
ATOM      8  C   UNL d   1      52.838  31.045  52.278  0.00  0.00     0.000 C 
ATOM      9  C   UNL d   1      53.305  30.039  53.178  0.00  0.00     0.000 A 
ATOM     10  C   UNL d   1      53.539  29.809  53.926  0.00  0.00     0.000 A 
ATOM     11  C   UNL d   1      53.545  30.362  54.544  0.00  0.00     0.000 A 
ATOM     12  C   UNL d   1      53.313  31.141  54.401  0.00  0.00     0.002 A 
ENDBRANCH   3   6
BRANCH   1  13
ATOM     13  S   UNL d   1      54.049  32.820  53.945  0.00  0.00     0.266 S 
ATOM     14  O   UNL d   1      53.739  32.846  54.695  0.00  0.00    -0.203 OA
ATOM     15  O   UNL d   1      54.388  32.793  53.175  0.00  0.00    -0.203 OA
ATOM     16  C   UNL d   1      54.851  32.842  54.261  0.00  0.00     0.165 C 
ENDBRANCH   1  13
BRANCH   4  17
ATOM     17  C   UNL d   1      51.516  33.670  52.857  0.00  0.00     0.049 A 
ATOM     18  S   UNL d   1      50.831  33.816  53.275  0.00  0.00    -0.085 SA
ATOM     19  C   UNL d   1      50.356  34.300  52.803  0.00  0.00     0.035 A 
ATOM     20  C   UNL d   1      50.749  34.453  52.090  0.00  0.00     0.007 A 
ATOM     21  C   UNL d   1      51.454  34.067  52.130  0.00  0.00     0.009 A 
ENDBRANCH   4  17
TORSDOF 3
ENDMDL
