MODEL 1
REMARK VINA RESULT:      -6.8      0.000      0.000
REMARK  1 active torsions:
REMARK  status: ('A' for Active; 'I' for Inactive)
REMARK    1  A    between atoms: C_9  and  C_3 
ROOT
ATOM      1  N   UNL d   1     -47.765  12.818  23.050  0.00  0.00    -0.145 NA
ATOM      2  N   UNL d   1     -46.957  12.811  23.207  0.00  0.00    -0.106 NA
ATOM      3  C   UNL d   1     -48.225  12.150  23.217  0.00  0.00     0.103 A 
ATOM      4  C   UNL d   1     -46.605  12.139  23.531  0.00  0.00     0.297 A 
ATOM      5  C   UNL d   1     -47.879  11.475  23.541  0.00  0.00     0.026 A 
ATOM      6  C   UNL d   1     -47.064  11.472  23.698  0.00  0.00     0.066 A 
ATOM      7  O   UNL d   1     -45.797  12.132  23.688  0.00  0.00    -0.264 OA
ENDROOT
BRANCH   3   8
ATOM      8  C   UNL d   1     -49.034  12.157  23.060  0.00  0.00     0.022 A 
ATOM      9  C   UNL d   1     -49.305  12.217  22.278  0.00  0.00     0.022 A 
ATOM     10  C   UNL d   1     -50.114  12.224  22.120  0.00  0.00     0.099 A 
ATOM     11  N   UNL d   1     -50.656  12.172  22.740  0.00  0.00    -0.242 NA
ATOM     12  C   UNL d   1     -50.380  12.112  23.525  0.00  0.00     0.099 A 
ATOM     13  C   UNL d   1     -49.572  12.105  23.683  0.00  0.00     0.022 A 
ENDBRANCH   3   8
TORSDOF 1
ENDMDL
MODEL 2
REMARK VINA RESULT:      -6.8      1.667      3.153
REMARK  1 active torsions:
REMARK  status: ('A' for Active; 'I' for Inactive)
REMARK    1  A    between atoms: C_9  and  C_3 
ROOT
ATOM      1  N   UNL d   1     -48.648  11.455  22.825  0.00  0.00    -0.145 NA
ATOM      2  N   UNL d   1     -49.470  11.407  22.800  0.00  0.00    -0.106 NA
ATOM      3  C   UNL d   1     -48.282  12.049  23.271  0.00  0.00     0.103 A 
ATOM      4  C   UNL d   1     -49.929  11.950  23.220  0.00  0.00     0.297 A 
ATOM      5  C   UNL d   1     -48.735  12.594  23.693  0.00  0.00     0.026 A 
ATOM      6  C   UNL d   1     -49.563  12.542  23.665  0.00  0.00     0.066 A 
ATOM      7  O   UNL d   1     -50.750  11.900  23.194  0.00  0.00    -0.264 OA
ENDROOT
BRANCH   3   8
ATOM      8  C   UNL d   1     -47.460  12.097  23.296  0.00  0.00     0.022 A 
ATOM      9  C   UNL d   1     -47.071  12.742  22.948  0.00  0.00     0.022 A 
ATOM     10  C   UNL d   1     -46.249  12.791  22.973  0.00  0.00     0.099 A 
ATOM     11  N   UNL d   1     -45.811  12.198  23.344  0.00  0.00    -0.242 NA
ATOM     12  C   UNL d   1     -46.205  11.551  23.693  0.00  0.00     0.099 A 
ATOM     13  C   UNL d   1     -47.026  11.502  23.668  0.00  0.00     0.022 A 
ENDBRANCH   3   8
TORSDOF 1
ENDMDL
MODEL 3
REMARK VINA RESULT:      -6.7      2.075      2.332
REMARK  1 active torsions:
REMARK  status: ('A' for Active; 'I' for Inactive)
REMARK    1  A    between atoms: C_9  and  C_3 
ROOT
ATOM      1  N   UNL d   1     -47.916  13.167  23.144  0.00  0.00    -0.145 NA
ATOM      2  N   UNL d   1     -47.214  12.783  23.338  0.00  0.00    -0.106 NA
ATOM      3  C   UNL d   1     -47.898  13.942  22.856  0.00  0.00     0.103 A 
ATOM      4  C   UNL d   1     -46.492  13.171  23.247  0.00  0.00     0.297 A 
ATOM      5  C   UNL d   1     -47.179  14.337  22.763  0.00  0.00     0.026 A 
ATOM      6  C   UNL d   1     -46.474  13.946  22.960  0.00  0.00     0.066 A 
ATOM      7  O   UNL d   1     -45.790  12.787  23.442  0.00  0.00    -0.264 OA
ENDROOT
BRANCH   3   8
ATOM      8  C   UNL d   1     -48.600  14.326  22.661  0.00  0.00     0.022 A 
ATOM      9  C   UNL d   1     -48.850  14.985  23.101  0.00  0.00     0.022 A 
ATOM     10  C   UNL d   1     -49.552  15.369  22.906  0.00  0.00     0.099 A 
ATOM     11  N   UNL d   1     -50.009  15.100  22.274  0.00  0.00    -0.242 NA
ATOM     12  C   UNL d   1     -49.755  14.438  21.834  0.00  0.00     0.099 A 
ATOM     13  C   UNL d   1     -49.053  14.054  22.028  0.00  0.00     0.022 A 
ENDBRANCH   3   8
TORSDOF 1
ENDMDL
MODEL 4
REMARK VINA RESULT:      -6.7      1.944      3.362
REMARK  1 active torsions:
REMARK  status: ('A' for Active; 'I' for Inactive)
REMARK    1  A    between atoms: C_9  and  C_3 
ROOT
ATOM      1  N   UNL d   1     -49.034  13.201  22.916  0.00  0.00    -0.145 NA
ATOM      2  N   UNL d   1     -49.780  13.151  22.571  0.00  0.00    -0.106 NA
ATOM      3  C   UNL d   1     -48.357  13.092  22.452  0.00  0.00     0.103 A 
ATOM      4  C   UNL d   1     -49.854  12.991  21.765  0.00  0.00     0.297 A 
ATOM      5  C   UNL d   1     -48.423  12.932  21.646  0.00  0.00     0.026 A 
ATOM      6  C   UNL d   1     -49.178  12.883  21.303  0.00  0.00     0.066 A 
ATOM      7  O   UNL d   1     -50.601  12.941  21.421  0.00  0.00    -0.264 OA
ENDROOT
BRANCH   3   8
ATOM      8  C   UNL d   1     -47.610  13.142  22.797  0.00  0.00     0.022 A 
ATOM      9  C   UNL d   1     -47.281  12.481  23.176  0.00  0.00     0.022 A 
ATOM     10  C   UNL d   1     -46.535  12.531  23.520  0.00  0.00     0.099 A 
ATOM     11  N   UNL d   1     -46.112  13.239  23.489  0.00  0.00    -0.242 NA
ATOM     12  C   UNL d   1     -46.445  13.902  23.108  0.00  0.00     0.099 A 
ATOM     13  C   UNL d   1     -47.192  13.852  22.764  0.00  0.00     0.022 A 
ENDBRANCH   3   8
TORSDOF 1
ENDMDL
