MODEL 1
REMARK VINA RESULT:      -4.9      0.000      0.000
REMARK  2 active torsions:
REMARK  status: ('A' for Active; 'I' for Inactive)
REMARK    1  A    between atoms: C_2  and  C_1 
REMARK       I    between atoms: N_7  and  C_2 
REMARK    2  A    between atoms: C_9  and  N_7 
ROOT
ATOM      1  C   UNL d   1     -41.355-121.512 -51.842  0.00  0.00     0.280 C 
ATOM      2  N   UNL d   1     -41.642-121.340 -51.089  0.00  0.00    -0.208 NA
ATOM      3  O   UNL d   1     -41.123-120.893 -52.338  0.00  0.00    -0.265 OA
ENDROOT
BRANCH   1   4
ATOM      4  C   UNL d   1     -41.301-122.294 -52.096  0.00  0.00     0.065 A 
ATOM      5  C   UNL d   1     -41.418-122.560 -52.869  0.00  0.00     0.011 A 
ATOM      6  C   UNL d   1     -41.309-123.373 -52.867  0.00  0.00     0.030 A 
ATOM      7  C   UNL d   1     -41.606-122.169 -53.564  0.00  0.00     0.001 A 
ATOM      8  C   UNL d   1     -41.389-123.804 -53.570  0.00  0.00     0.006 A 
ATOM      9  S   UNL d   1     -41.126-123.610 -52.099  0.00  0.00    -0.086 SA
ATOM     10  C   UNL d   1     -41.575-123.422 -54.254  0.00  0.00     0.001 A 
ATOM     11  C   UNL d   1     -41.686-122.601 -54.263  0.00  0.00     0.000 A 
ATOM     12  C   UNL d   1     -41.123-122.932 -51.625  0.00  0.00     0.040 A 
ENDBRANCH   1   4
BRANCH   2  13
ATOM     13  C   UNL d   1     -41.877-121.962 -50.585  0.00  0.00     0.085 A 
ATOM     14  C   UNL d   1     -41.323-122.332 -50.105  0.00  0.00     0.019 A 
ATOM     15  C   UNL d   1     -41.558-122.951 -49.604  0.00  0.00     0.002 A 
ATOM     16  C   UNL d   1     -42.345-123.195 -49.587  0.00  0.00     0.000 A 
ATOM     17  C   UNL d   1     -42.900-122.815 -50.076  0.00  0.00     0.002 A 
ATOM     18  C   UNL d   1     -42.567-123.815 -49.081  0.00  0.00     0.000 C 
ATOM     19  C   UNL d   1     -42.666-122.200 -50.574  0.00  0.00     0.019 A 
ENDBRANCH   2  13
TORSDOF 2
ENDMDL
MODEL 2
REMARK VINA RESULT:      -2.4      2.037      4.177
REMARK  2 active torsions:
REMARK  status: ('A' for Active; 'I' for Inactive)
REMARK    1  A    between atoms: C_2  and  C_1 
REMARK       I    between atoms: N_7  and  C_2 
REMARK    2  A    between atoms: C_9  and  N_7 
ROOT
ATOM      1  C   UNL d   1     -43.334-123.426 -49.411  0.00  0.00     0.280 C 
ATOM      2  N   UNL d   1     -43.518-123.038 -50.114  0.00  0.00    -0.208 NA
ATOM      3  O   UNL d   1     -43.932-123.816 -48.994  0.00  0.00    -0.265 OA
ENDROOT
BRANCH   1   4
ATOM      4  C   UNL d   1     -42.560-123.425 -49.127  0.00  0.00     0.065 A 
ATOM      5  C   UNL d   1     -42.337-123.350 -48.335  0.00  0.00     0.011 A 
ATOM      6  C   UNL d   1     -41.517-123.378 -48.309  0.00  0.00     0.030 A 
ATOM      7  C   UNL d   1     -42.770-123.261 -47.646  0.00  0.00     0.001 A 
ATOM      8  C   UNL d   1     -41.123-123.316 -47.583  0.00  0.00     0.006 A 
ATOM      9  S   UNL d   1     -41.234-123.469 -49.079  0.00  0.00    -0.086 SA
ATOM     10  C   UNL d   1     -41.547-123.229 -46.904  0.00  0.00     0.001 A 
ATOM     11  C   UNL d   1     -42.374-123.200 -46.923  0.00  0.00     0.000 A 
ATOM     12  C   UNL d   1     -41.891-123.498 -49.582  0.00  0.00     0.040 A 
ENDBRANCH   1   4
BRANCH   2  13
ATOM     13  C   UNL d   1     -42.917-122.644 -50.536  0.00  0.00     0.085 A 
ATOM     14  C   UNL d   1     -42.499-123.042 -51.122  0.00  0.00     0.019 A 
ATOM     15  C   UNL d   1     -41.901-122.648 -51.542  0.00  0.00     0.002 A 
ATOM     16  C   UNL d   1     -41.725-121.861 -51.374  0.00  0.00     0.000 A 
ATOM     17  C   UNL d   1     -42.152-121.466 -50.781  0.00  0.00     0.002 A 
ATOM     18  C   UNL d   1     -41.124-121.479 -51.802  0.00  0.00     0.000 C 
ATOM     19  C   UNL d   1     -42.746-121.857 -50.363  0.00  0.00     0.019 A 
ENDBRANCH   2  13
TORSDOF 2
ENDMDL
