MODEL 1
REMARK VINA RESULT:      21.5      0.000      0.000
REMARK  4 active torsions:
REMARK  status: ('A' for Active; 'I' for Inactive)
REMARK    1  A    between atoms: C_3  and  C_1 
REMARK       I    between atoms: N_8  and  C_3 
REMARK    2  A    between atoms: C_10  and  C_7 
REMARK    3  A    between atoms: C_9  and  N_8 
REMARK    4  A    between atoms: O_14  and  C_10 
ROOT
ATOM      1  C   UNL d   1      46.266 -18.674  42.791  0.00  0.00     0.081 A 
ATOM      2  C   UNL d   1      46.241 -18.328  43.537  0.00  0.00     0.090 A 
ATOM      3  C   UNL d   1      46.462 -19.473  42.717  0.00  0.00     0.007 A 
ATOM      4  C   UNL d   1      46.412 -18.776  44.210  0.00  0.00     0.019 A 
ATOM      5  C   UNL d   1      46.634 -19.924  43.389  0.00  0.00     0.000 A 
ATOM      6  C   UNL d   1      46.607 -19.570  44.138  0.00  0.00     0.002 A 
ENDROOT
BRANCH   2   7
ATOM      7  N   UNL d   1      46.040 -17.533  43.545  0.00  0.00    -0.207 NA
ATOM      8  C   UNL d   1      46.043 -17.119  44.258  0.00  0.00     0.287 C 
ATOM      9  O   UNL d   1      46.247 -17.502  44.955  0.00  0.00    -0.265 OA
BRANCH   8  10
ATOM     10  C   UNL d   1      45.842 -16.319  44.275  0.00  0.00     0.108 A 
ATOM     11  C   UNL d   1      45.148 -15.997  44.587  0.00  0.00     0.094 A 
ATOM     12  N   UNL d   1      45.182 -15.179  44.486  0.00  0.00    -0.219 NA
ATOM     13  C   UNL d   1      44.535 -16.420  44.935  0.00  0.00     0.021 C 
ATOM     14  C   UNL d   1      45.891 -15.000  44.116  0.00  0.00     0.215 A 
ATOM     15  S   UNL d   1      46.300 -15.702  43.985  0.00  0.00    -0.041 SA
ATOM     16  N   UNL d   1      46.155 -14.245  43.908  0.00  0.00    -0.120 N 
ENDBRANCH   8  10
ENDBRANCH   2   7
BRANCH   1  17
ATOM     17  C   UNL d   1      46.096 -18.227  42.123  0.00  0.00     0.297 C 
ATOM     18  O   UNL d   1      45.376 -17.842  42.065  0.00  0.00    -0.259 OA
BRANCH  17  19
ATOM     19  O   UNL d   1      46.647 -18.171  41.521  0.00  0.00    -0.296 OA
ATOM     20  C   UNL d   1      46.395 -18.125  40.736  0.00  0.00     0.185 C 
ENDBRANCH  17  19
ENDBRANCH   1  17
TORSDOF 4
ENDMDL
