MODEL 1
REMARK VINA RESULT:      -0.5      0.000      0.000
REMARK  5 active torsions:
REMARK  status: ('A' for Active; 'I' for Inactive)
REMARK    1  A    between atoms: N_7  and  C_1 
REMARK    2  A    between atoms: C_14  and  N_4 
REMARK    3  A    between atoms: C_6  and  N_7 
REMARK    4  A    between atoms: C_13  and  N_8 
REMARK    5  A    between atoms: C_17  and  C_13 
ROOT
ATOM      1  C   UNL d   1     -41.588-122.319 -51.663  0.00  0.00     0.159 A 
ATOM      2  C   UNL d   1     -41.745-122.646 -52.401  0.00  0.00     0.298 A 
ATOM      3  N   UNL d   1     -41.459-121.367 -52.575  0.00  0.00    -0.238 N 
ATOM      4  N   UNL d   1     -41.665-122.055 -52.965  0.00  0.00    -0.209 N 
ATOM      5  C   UNL d   1     -41.411-121.525 -51.772  0.00  0.00     0.104 A 
ATOM      6  O   UNL d   1     -41.947-123.431 -52.548  0.00  0.00    -0.263 OA
ATOM      7  C   UNL d   1     -41.323-120.633 -52.927  0.00  0.00     0.120 C 
ATOM      8  C   UNL d   1     -41.220-120.988 -51.181  0.00  0.00     0.022 C 
ENDROOT
BRANCH   1   9
ATOM      9  N   UNL d   1     -41.606-122.719 -50.946  0.00  0.00    -0.216 NA
BRANCH   9  10
ATOM     10  C   UNL d   1     -42.317-122.802 -50.538  0.00  0.00     0.180 A 
ATOM     11  N   UNL d   1     -42.425-123.187 -49.820  0.00  0.00    -0.285 N 
ATOM     12  C   UNL d   1     -43.220-123.133 -49.622  0.00  0.00     0.072 A 
ATOM     13  C   UNL d   1     -43.569-123.447 -48.942  0.00  0.00     0.020 C 
ATOM     14  C   UNL d   1     -43.605-122.718 -50.211  0.00  0.00     0.056 A 
ATOM     15  S   UNL d   1     -43.051-122.509 -50.784  0.00  0.00    -0.048 SA
BRANCH  11  16
ATOM     16  C   UNL d   1     -41.844-123.560 -49.378  0.00  0.00     0.082 C 
BRANCH  16  17
ATOM     17  C   UNL d   1     -41.614-123.255 -48.638  0.00  0.00     0.018 A 
ATOM     18  C   UNL d   1     -41.334-122.491 -48.477  0.00  0.00     0.002 A 
ATOM     19  C   UNL d   1     -41.124-122.271 -47.694  0.00  0.00     0.000 A 
ATOM     20  C   UNL d   1     -41.199-122.828 -47.076  0.00  0.00     0.000 A 
ATOM     21  C   UNL d   1     -41.482-123.601 -47.237  0.00  0.00     0.000 A 
ATOM     22  C   UNL d   1     -41.690-123.816 -48.018  0.00  0.00     0.002 A 
ENDBRANCH  16  17
ENDBRANCH  11  16
ENDBRANCH   9  10
ENDBRANCH   1   9
BRANCH   4  23
ATOM     23  C   UNL d   1     -41.773-122.141 -53.777  0.00  0.00     0.085 A 
ATOM     24  C   UNL d   1     -42.523-122.078 -54.097  0.00  0.00     0.019 A 
ATOM     25  C   UNL d   1     -42.628-122.165 -54.907  0.00  0.00     0.002 A 
ATOM     26  C   UNL d   1     -41.988-122.314 -55.403  0.00  0.00     0.000 A 
ATOM     27  C   UNL d   1     -41.231-122.377 -55.077  0.00  0.00     0.002 A 
ATOM     28  C   UNL d   1     -41.123-122.291 -54.264  0.00  0.00     0.019 A 
ENDBRANCH   4  23
TORSDOF 5
ENDMDL
MODEL 2
REMARK VINA RESULT:       2.2      0.912      5.169
REMARK  5 active torsions:
REMARK  status: ('A' for Active; 'I' for Inactive)
REMARK    1  A    between atoms: N_7  and  C_1 
REMARK    2  A    between atoms: C_14  and  N_4 
REMARK    3  A    between atoms: C_6  and  N_7 
REMARK    4  A    between atoms: C_13  and  N_8 
REMARK    5  A    between atoms: C_17  and  C_13 
ROOT
ATOM      1  C   UNL d   1     -42.328-122.914 -50.601  0.00  0.00     0.159 A 
ATOM      2  C   UNL d   1     -41.889-123.178 -49.958  0.00  0.00     0.298 A 
ATOM      3  N   UNL d   1     -43.062-122.764 -49.509  0.00  0.00    -0.238 N 
ATOM      4  N   UNL d   1     -42.345-123.085 -49.281  0.00  0.00    -0.209 N 
ATOM      5  C   UNL d   1     -43.056-122.658 -50.322  0.00  0.00     0.104 A 
ATOM      6  O   UNL d   1     -41.124-123.483 -49.988  0.00  0.00    -0.263 OA
ATOM      7  C   UNL d   1     -43.690-122.578 -49.006  0.00  0.00     0.120 C 
ATOM      8  C   UNL d   1     -43.666-122.350 -50.776  0.00  0.00     0.022 C 
ENDROOT
BRANCH   1   9
ATOM      9  N   UNL d   1     -42.080-122.910 -51.384  0.00  0.00    -0.216 NA
BRANCH   9  10
ATOM     10  C   UNL d   1     -41.857-122.202 -51.742  0.00  0.00     0.180 A 
ATOM     11  N   UNL d   1     -41.567-122.112 -52.506  0.00  0.00    -0.285 N 
ATOM     12  C   UNL d   1     -41.420-121.313 -52.626  0.00  0.00     0.072 A 
ATOM     13  C   UNL d   1     -41.123-120.978 -53.322  0.00  0.00     0.020 C 
ATOM     14  C   UNL d   1     -41.616-120.908 -51.945  0.00  0.00     0.056 A 
ATOM     15  S   UNL d   1     -41.889-121.453 -51.391  0.00  0.00    -0.048 SA
BRANCH  11  16
ATOM     16  C   UNL d   1     -41.446-122.710 -53.051  0.00  0.00     0.082 C 
BRANCH  16  17
ATOM     17  C   UNL d   1     -41.835-122.699 -53.787  0.00  0.00     0.018 A 
ATOM     18  C   UNL d   1     -42.192-122.046 -54.153  0.00  0.00     0.002 A 
ATOM     19  C   UNL d   1     -42.565-122.129 -54.902  0.00  0.00     0.000 A 
ATOM     20  C   UNL d   1     -42.574-122.876 -55.277  0.00  0.00     0.000 A 
ATOM     21  C   UNL d   1     -42.213-123.537 -54.907  0.00  0.00     0.000 A 
ATOM     22  C   UNL d   1     -41.843-123.451 -54.162  0.00  0.00     0.002 A 
ENDBRANCH  16  17
ENDBRANCH  11  16
ENDBRANCH   9  10
ENDBRANCH   1   9
BRANCH   4  23
ATOM     23  C   UNL d   1     -42.119-123.279 -48.513  0.00  0.00     0.085 A 
ATOM     24  C   UNL d   1     -42.659-123.625 -48.005  0.00  0.00     0.019 A 
ATOM     25  C   UNL d   1     -42.433-123.817 -47.240  0.00  0.00     0.002 A 
ATOM     26  C   UNL d   1     -41.667-123.667 -46.976  0.00  0.00     0.000 A 
ATOM     27  C   UNL d   1     -41.123-123.318 -47.491  0.00  0.00     0.002 A 
ATOM     28  C   UNL d   1     -41.349-123.123 -48.260  0.00  0.00     0.019 A 
ENDBRANCH   4  23
TORSDOF 5
ENDMDL
