MODEL 1
REMARK VINA RESULT:      -4.1      0.000      0.000
REMARK  4 active torsions:
REMARK  status: ('A' for Active; 'I' for Inactive)
REMARK    1  A    between atoms: C_8  and  C_1 
REMARK    2  A    between atoms: C_6  and  O_10 
REMARK       I    between atoms: N_13  and  C_6 
REMARK    3  A    between atoms: C_11  and  C_8 
REMARK    4  A    between atoms: O_10  and  C_9 
ROOT
ATOM      1  C   UNL d   1      58.227  -0.786  29.675  0.00  0.00     0.141 A 
ATOM      2  C   UNL d   1      57.493  -0.697  30.798  0.00  0.00     0.105 A 
ATOM      3  O   UNL d   1      57.753  -1.217  30.207  0.00  0.00    -0.304 OA
ATOM      4  C   UNL d   1      57.801   0.057  30.638  0.00  0.00     0.064 A 
ATOM      5  C   UNL d   1      58.254   0.008  29.947  0.00  0.00     0.220 A 
ATOM      6  C   UNL d   1      57.016  -0.817  31.459  0.00  0.00     0.046 A 
ATOM      7  C   UNL d   1      56.844  -0.186  31.961  0.00  0.00     0.107 A 
ATOM      8  C   UNL d   1      57.628   0.682  31.141  0.00  0.00     0.007 A 
ATOM      9  O   UNL d   1      58.664   0.628  29.582  0.00  0.00    -0.284 OA
ATOM     10  C   UNL d   1      57.152   0.568  31.801  0.00  0.00     0.025 A 
ATOM     11  C   UNL d   1      56.707  -1.564  31.622  0.00  0.00     0.004 C 
ENDROOT
BRANCH   1  12
ATOM     12  C   UNL d   1      58.602  -1.082  29.002  0.00  0.00     0.053 C 
BRANCH  12  13
ATOM     13  C   UNL d   1      59.037  -1.781  29.046  0.00  0.00     0.102 A 
ATOM     14  O   UNL d   1      59.815  -1.851  29.324  0.00  0.00    -0.305 OA
ATOM     15  C   UNL d   1      60.034  -2.644  29.271  0.00  0.00     0.123 A 
ATOM     16  C   UNL d   1      59.389  -3.064  28.959  0.00  0.00     0.029 A 
ATOM     17  C   UNL d   1      58.778  -2.526  28.822  0.00  0.00     0.027 A 
ENDBRANCH  12  13
ENDBRANCH   1  12
BRANCH   7  18
ATOM     18  O   UNL d   1      56.369  -0.301  32.621  0.00  0.00    -0.259 OA
BRANCH  18  19
ATOM     19  C   UNL d   1      56.515   0.112  33.323  0.00  0.00     0.378 C 
ATOM     20  N   UNL d   1      55.898   0.240  33.861  0.00  0.00    -0.249 N 
ATOM     21  C   UNL d   1      56.042   0.654  34.566  0.00  0.00     0.104 C 
ATOM     22  C   UNL d   1      55.135  -0.044  33.699  0.00  0.00     0.104 C 
ATOM     23  O   UNL d   1      57.272   0.396  33.487  0.00  0.00    -0.237 OA
ENDBRANCH  18  19
ENDBRANCH   7  18
TORSDOF 4
ENDMDL
MODEL 2
REMARK VINA RESULT:      -2.2      2.047      4.766
REMARK  4 active torsions:
REMARK  status: ('A' for Active; 'I' for Inactive)
REMARK    1  A    between atoms: C_8  and  C_1 
REMARK    2  A    between atoms: C_6  and  O_10 
REMARK       I    between atoms: N_13  and  C_6 
REMARK    3  A    between atoms: C_11  and  C_8 
REMARK    4  A    between atoms: O_10  and  C_9 
ROOT
ATOM      1  C   UNL d   1      57.160   0.637  33.199  0.00  0.00     0.141 A 
ATOM      2  C   UNL d   1      57.617   0.638  31.935  0.00  0.00     0.105 A 
ATOM      3  O   UNL d   1      56.931   0.625  32.399  0.00  0.00    -0.304 OA
ATOM      4  C   UNL d   1      58.275   0.658  32.441  0.00  0.00     0.064 A 
ATOM      5  C   UNL d   1      58.000   0.658  33.221  0.00  0.00     0.220 A 
ATOM      6  C   UNL d   1      57.725   0.634  31.118  0.00  0.00     0.046 A 
ATOM      7  C   UNL d   1      58.487   0.650  30.804  0.00  0.00     0.107 A 
ATOM      8  C   UNL d   1      59.032   0.675  32.124  0.00  0.00     0.007 A 
ATOM      9  O   UNL d   1      58.463   0.675  33.907  0.00  0.00    -0.284 OA
ATOM     10  C   UNL d   1      59.145   0.670  31.309  0.00  0.00     0.025 A 
ATOM     11  C   UNL d   1      57.074   0.613  30.611  0.00  0.00     0.004 C 
ENDROOT
BRANCH   1  12
ATOM     12  C   UNL d   1      56.657   0.630  33.853  0.00  0.00     0.053 C 
BRANCH  12  13
ATOM     13  C   UNL d   1      55.914   0.277  33.799  0.00  0.00     0.102 A 
ATOM     14  O   UNL d   1      55.768  -0.525  33.641  0.00  0.00    -0.305 OA
ATOM     15  C   UNL d   1      54.952  -0.639  33.637  0.00  0.00     0.123 A 
ATOM     16  C   UNL d   1      54.593   0.095  33.793  0.00  0.00     0.029 A 
ATOM     17  C   UNL d   1      55.192   0.653  33.892  0.00  0.00     0.027 A 
ENDBRANCH  12  13
ENDBRANCH   1  12
BRANCH   7  18
ATOM     18  O   UNL d   1      58.598   0.646  29.990  0.00  0.00    -0.259 OA
BRANCH  18  19
ATOM     19  C   UNL d   1      59.336   0.460  29.666  0.00  0.00     0.378 C 
ATOM     20  N   UNL d   1      59.381   0.134  28.906  0.00  0.00    -0.249 N 
ATOM     21  C   UNL d   1      60.121  -0.054  28.579  0.00  0.00     0.104 C 
ATOM     22  C   UNL d   1      58.690  -0.007  28.469  0.00  0.00     0.104 C 
ATOM     23  O   UNL d   1      60.025   0.598  30.098  0.00  0.00    -0.237 OA
ENDBRANCH  18  19
ENDBRANCH   7  18
TORSDOF 4
ENDMDL
MODEL 3
REMARK VINA RESULT:      -2.0      8.329      9.224
REMARK  4 active torsions:
REMARK  status: ('A' for Active; 'I' for Inactive)
REMARK    1  A    between atoms: C_8  and  C_1 
REMARK    2  A    between atoms: C_6  and  O_10 
REMARK       I    between atoms: N_13  and  C_6 
REMARK    3  A    between atoms: C_11  and  C_8 
REMARK    4  A    between atoms: O_10  and  C_9 
ROOT
ATOM      1  C   UNL d   1      58.757  -9.814  29.834  0.00  0.00     0.141 A 
ATOM      2  C   UNL d   1      58.861  -9.815  31.174  0.00  0.00     0.105 A 
ATOM      3  O   UNL d   1      58.323  -9.815  30.544  0.00  0.00    -0.304 OA
ATOM      4  C   UNL d   1      59.630  -9.814  30.862  0.00  0.00     0.064 A 
ATOM      5  C   UNL d   1      59.573  -9.813  30.037  0.00  0.00     0.220 A 
ATOM      6  C   UNL d   1      58.746  -9.816  31.990  0.00  0.00     0.046 A 
ATOM      7  C   UNL d   1      59.398  -9.816  32.496  0.00  0.00     0.107 A 
ATOM      8  C   UNL d   1      60.275  -9.813  31.370  0.00  0.00     0.007 A 
ATOM      9  O   UNL d   1      60.202  -9.811  29.499  0.00  0.00    -0.284 OA
ATOM     10  C   UNL d   1      60.167  -9.815  32.184  0.00  0.00     0.025 A 
ATOM     11  C   UNL d   1      57.984  -9.818  32.305  0.00  0.00     0.004 C 
ENDROOT
BRANCH   1  12
ATOM     12  C   UNL d   1      58.447  -9.813  29.069  0.00  0.00     0.053 C 
BRANCH  12  13
ATOM     13  C   UNL d   1      57.791  -9.346  28.890  0.00  0.00     0.102 A 
ATOM     14  O   UNL d   1      57.790  -8.520  28.815  0.00  0.00    -0.305 OA
ATOM     15  C   UNL d   1      57.022  -8.282  28.633  0.00  0.00     0.123 A 
ATOM     16  C   UNL d   1      56.548  -8.964  28.596  0.00  0.00     0.029 A 
ATOM     17  C   UNL d   1      57.029  -9.615  28.755  0.00  0.00     0.027 A 
ENDBRANCH  12  13
ENDBRANCH   1  12
BRANCH   7  18
ATOM     18  O   UNL d   1      59.288  -9.817  33.311  0.00  0.00    -0.259 OA
BRANCH  18  19
ATOM     19  C   UNL d   1      59.602  -9.213  33.779  0.00  0.00     0.378 C 
ATOM     20  N   UNL d   1      59.401  -9.167  34.581  0.00  0.00    -0.249 N 
ATOM     21  C   UNL d   1      59.715  -8.561  35.054  0.00  0.00     0.104 C 
ATOM     22  C   UNL d   1      58.885  -9.724  34.916  0.00  0.00     0.104 C 
ATOM     23  O   UNL d   1      60.116  -8.657  33.450  0.00  0.00    -0.237 OA
ENDBRANCH  18  19
ENDBRANCH   7  18
TORSDOF 4
ENDMDL
MODEL 4
REMARK VINA RESULT:      -1.9      1.611      4.808
REMARK  4 active torsions:
REMARK  status: ('A' for Active; 'I' for Inactive)
REMARK    1  A    between atoms: C_8  and  C_1 
REMARK    2  A    between atoms: C_6  and  O_10 
REMARK       I    between atoms: N_13  and  C_6 
REMARK    3  A    between atoms: C_11  and  C_8 
REMARK    4  A    between atoms: O_10  and  C_9 
ROOT
ATOM      1  C   UNL d   1      56.295  -0.353  32.253  0.00  0.00     0.141 A 
ATOM      2  C   UNL d   1      57.224  -0.310  31.281  0.00  0.00     0.105 A 
ATOM      3  O   UNL d   1      56.778   0.155  31.803  0.00  0.00    -0.304 OA
ATOM      4  C   UNL d   1      57.022  -1.106  31.402  0.00  0.00     0.064 A 
ATOM      5  C   UNL d   1      56.451  -1.139  31.999  0.00  0.00     0.220 A 
ATOM      6  C   UNL d   1      57.785  -0.108  30.713  0.00  0.00     0.046 A 
ATOM      7  C   UNL d   1      58.148  -0.698  30.265  0.00  0.00     0.107 A 
ATOM      8  C   UNL d   1      57.385  -1.691  30.954  0.00  0.00     0.007 A 
ATOM      9  O   UNL d   1      56.091  -1.822  32.300  0.00  0.00    -0.284 OA
ATOM     10  C   UNL d   1      57.946  -1.494  30.386  0.00  0.00     0.025 A 
ATOM     11  C   UNL d   1      57.989   0.682  30.590  0.00  0.00     0.004 C 
ENDROOT
BRANCH   1  12
ATOM     12  C   UNL d   1      55.761  -0.129  32.840  0.00  0.00     0.053 C 
BRANCH  12  13
ATOM     13  C   UNL d   1      56.037   0.186  33.551  0.00  0.00     0.102 A 
ATOM     14  O   UNL d   1      56.824   0.389  33.718  0.00  0.00    -0.305 OA
ATOM     15  C   UNL d   1      56.852   0.682  34.488  0.00  0.00     0.123 A 
ATOM     16  C   UNL d   1      56.081   0.660  34.796  0.00  0.00     0.029 A 
ATOM     17  C   UNL d   1      55.584   0.354  34.213  0.00  0.00     0.027 A 
ENDBRANCH  12  13
ENDBRANCH   1  12
BRANCH   7  18
ATOM     18  O   UNL d   1      58.708  -0.501  29.698  0.00  0.00    -0.259 OA
BRANCH  18  19
ATOM     19  C   UNL d   1      59.090  -1.089  29.261  0.00  0.00     0.378 C 
ATOM     20  N   UNL d   1      59.842  -0.944  28.944  0.00  0.00    -0.249 N 
ATOM     21  C   UNL d   1      60.228  -1.533  28.505  0.00  0.00     0.104 C 
ATOM     22  C   UNL d   1      60.213  -0.212  29.065  0.00  0.00     0.104 C 
ATOM     23  O   UNL d   1      58.725  -1.819  29.138  0.00  0.00    -0.237 OA
ENDBRANCH  18  19
ENDBRANCH   7  18
TORSDOF 4
ENDMDL
