MODEL 1
REMARK VINA RESULT:      -8.7      0.000      0.000
REMARK  5 active torsions:
REMARK  status: ('A' for Active; 'I' for Inactive)
REMARK    1  A    between atoms: N_10  and  C_2 
REMARK    2  A    between atoms: C_13  and  C_3 
REMARK    3  A    between atoms: C_5  and  S_14 
REMARK       I    between atoms: C_12  and  N_10 
REMARK    4  A    between atoms: C_18  and  C_12 
REMARK    5  A    between atoms: S_14  and  C_18 
ROOT
ATOM      1  N   UNL d   1      53.591  32.432  54.424  0.00  0.00    -0.051 NA
ATOM      2  C   UNL d   1      54.087  33.088  54.368  0.00  0.00     0.760 A 
ATOM      3  C   UNL d   1      53.847  31.868  53.884  0.00  0.00     0.147 A 
ATOM      4  N   UNL d   1      54.648  32.937  53.799  0.00  0.00    -0.019 NA
ATOM      5  S   UNL d   1      54.507  32.179  53.491  0.00  0.00     0.052 SA
ENDROOT
BRANCH   2   6
ATOM      6  N   UNL d   1      54.020  33.777  54.816  0.00  0.00    -0.018 NA
ATOM      7  C   UNL d   1      53.469  34.355  54.612  0.00  0.00     0.302 C 
ATOM      8  O   UNL d   1      53.401  35.040  55.057  0.00  0.00    -0.264 OA
BRANCH   7   9
ATOM      9  C   UNL d   1      52.978  34.242  53.950  0.00  0.00     0.100 C 
BRANCH   9  10
ATOM     10  S   UNL d   1      52.399  34.795  53.772  0.00  0.00    -0.054 SA
BRANCH  10  11
ATOM     11  C   UNL d   1      51.836  34.634  53.198  0.00  0.00     0.164 A 
ATOM     12  S   UNL d   1      51.033  34.528  53.329  0.00  0.00    -0.039 SA
ATOM     13  C   UNL d   1      50.672  34.378  52.600  0.00  0.00     0.134 A 
ATOM     14  C   UNL d   1      49.864  34.240  52.485  0.00  0.00     0.030 C 
ATOM     15  N   UNL d   1      51.254  34.393  52.024  0.00  0.00    -0.140 NA
ATOM     16  N   UNL d   1      51.978  34.551  52.394  0.00  0.00    -0.134 NA
ENDBRANCH  10  11
ENDBRANCH   9  10
ENDBRANCH   7   9
ENDBRANCH   2   6
BRANCH   3  17
ATOM     17  C   UNL d   1      53.534  31.116  53.727  0.00  0.00     0.026 A 
ATOM     18  C   UNL d   1      53.721  30.485  54.221  0.00  0.00     0.002 A 
ATOM     19  C   UNL d   1      53.413  29.738  54.069  0.00  0.00     0.000 A 
ATOM     20  C   UNL d   1      52.917  29.621  53.420  0.00  0.00     0.000 A 
ATOM     21  C   UNL d   1      52.727  30.263  52.918  0.00  0.00     0.000 A 
ATOM     22  C   UNL d   1      52.607  28.873  53.265  0.00  0.00     0.000 C 
ATOM     23  C   UNL d   1      53.039  31.011  53.075  0.00  0.00     0.002 A 
ENDBRANCH   3  17
TORSDOF 5
ENDMDL
MODEL 2
REMARK VINA RESULT:      -7.9      1.228      4.047
REMARK  5 active torsions:
REMARK  status: ('A' for Active; 'I' for Inactive)
REMARK    1  A    between atoms: N_10  and  C_2 
REMARK    2  A    between atoms: C_13  and  C_3 
REMARK    3  A    between atoms: C_5  and  S_14 
REMARK       I    between atoms: C_12  and  N_10 
REMARK    4  A    between atoms: C_18  and  C_12 
REMARK    5  A    between atoms: S_14  and  C_18 
ROOT
ATOM      1  N   UNL d   1      52.227  33.977  53.979  0.00  0.00    -0.051 NA
ATOM      2  C   UNL d   1      53.022  34.133  54.135  0.00  0.00     0.760 A 
ATOM      3  C   UNL d   1      52.012  34.387  53.301  0.00  0.00     0.147 A 
ATOM      4  N   UNL d   1      53.302  34.635  53.560  0.00  0.00    -0.019 NA
ATOM      5  S   UNL d   1      52.680  34.799  53.035  0.00  0.00     0.052 SA
ENDROOT
BRANCH   2   6
ATOM      6  N   UNL d   1      53.453  33.828  54.768  0.00  0.00    -0.018 NA
ATOM      7  C   UNL d   1      53.733  33.053  54.747  0.00  0.00     0.302 C 
ATOM      8  O   UNL d   1      54.161  32.748  55.375  0.00  0.00    -0.264 OA
BRANCH   7   9
ATOM      9  C   UNL d   1      53.580  32.577  54.082  0.00  0.00     0.100 C 
BRANCH   9  10
ATOM     10  S   UNL d   1      53.911  31.828  54.031  0.00  0.00    -0.054 SA
BRANCH  10  11
ATOM     11  C   UNL d   1      53.558  31.250  53.568  0.00  0.00     0.164 A 
ATOM     12  S   UNL d   1      53.285  30.523  53.834  0.00  0.00    -0.039 SA
ATOM     13  C   UNL d   1      52.972  30.116  53.185  0.00  0.00     0.134 A 
ATOM     14  C   UNL d   1      52.637  29.359  53.211  0.00  0.00     0.030 C 
ATOM     15  N   UNL d   1      53.054  30.594  52.525  0.00  0.00    -0.140 NA
ATOM     16  N   UNL d   1      53.418  31.299  52.762  0.00  0.00    -0.134 NA
ENDBRANCH  10  11
ENDBRANCH   9  10
ENDBRANCH   7   9
ENDBRANCH   2   6
BRANCH   3  17
ATOM     17  C   UNL d   1      51.277  34.413  52.917  0.00  0.00     0.026 A 
ATOM     18  C   UNL d   1      50.610  34.660  53.329  0.00  0.00     0.002 A 
ATOM     19  C   UNL d   1      49.879  34.688  52.953  0.00  0.00     0.000 A 
ATOM     20  C   UNL d   1      49.815  34.466  52.161  0.00  0.00     0.000 A 
ATOM     21  C   UNL d   1      50.495  34.213  51.742  0.00  0.00     0.000 A 
ATOM     22  C   UNL d   1      49.085  34.492  51.781  0.00  0.00     0.000 C 
ATOM     23  C   UNL d   1      51.225  34.188  52.125  0.00  0.00     0.002 A 
ENDBRANCH   3  17
TORSDOF 5
ENDMDL
MODEL 3
REMARK VINA RESULT:      -6.7      1.760      4.615
REMARK  5 active torsions:
REMARK  status: ('A' for Active; 'I' for Inactive)
REMARK    1  A    between atoms: N_10  and  C_2 
REMARK    2  A    between atoms: C_13  and  C_3 
REMARK    3  A    between atoms: C_5  and  S_14 
REMARK       I    between atoms: C_12  and  N_10 
REMARK    4  A    between atoms: C_18  and  C_12 
REMARK    5  A    between atoms: S_14  and  C_18 
ROOT
ATOM      1  N   UNL d   1      51.156  33.007  52.717  0.00  0.00    -0.051 NA
ATOM      2  C   UNL d   1      51.919  32.790  52.494  0.00  0.00     0.760 A 
ATOM      3  C   UNL d   1      51.064  33.811  52.576  0.00  0.00     0.147 A 
ATOM      4  N   UNL d   1      52.302  33.451  52.215  0.00  0.00    -0.019 NA
ATOM      5  S   UNL d   1      51.778  34.093  52.263  0.00  0.00     0.052 SA
ENDROOT
BRANCH   2   6
ATOM      6  N   UNL d   1      52.233  32.030  52.546  0.00  0.00    -0.018 NA
ATOM      7  C   UNL d   1      52.827  31.860  53.093  0.00  0.00     0.302 C 
ATOM      8  O   UNL d   1      53.140  31.106  53.146  0.00  0.00    -0.264 OA
BRANCH   7   9
ATOM      9  C   UNL d   1      53.110  32.461  53.594  0.00  0.00     0.100 C 
BRANCH   9  10
ATOM     10  S   UNL d   1      53.664  32.284  54.172  0.00  0.00    -0.054 SA
BRANCH  10  11
ATOM     11  C   UNL d   1      54.010  32.883  54.612  0.00  0.00     0.164 A 
ATOM     12  S   UNL d   1      54.788  33.137  54.549  0.00  0.00    -0.039 SA
ATOM     13  C   UNL d   1      54.901  33.750  55.093  0.00  0.00     0.134 A 
ATOM     14  C   UNL d   1      55.610  34.162  55.210  0.00  0.00     0.030 C 
ATOM     15  N   UNL d   1      54.193  33.870  55.488  0.00  0.00    -0.140 NA
ATOM     16  N   UNL d   1      53.639  33.332  55.190  0.00  0.00    -0.134 NA
ENDBRANCH  10  11
ENDBRANCH   9  10
ENDBRANCH   7   9
ENDBRANCH   2   6
BRANCH   3  17
ATOM     17  C   UNL d   1      50.401  34.293  52.708  0.00  0.00     0.026 A 
ATOM     18  C   UNL d   1      50.310  34.674  53.430  0.00  0.00     0.002 A 
ATOM     19  C   UNL d   1      49.655  35.152  53.565  0.00  0.00     0.000 A 
ATOM     20  C   UNL d   1      49.088  35.249  52.973  0.00  0.00     0.000 A 
ATOM     21  C   UNL d   1      49.181  34.861  52.237  0.00  0.00     0.000 A 
ATOM     22  C   UNL d   1      48.430  35.727  53.105  0.00  0.00     0.000 C 
ATOM     23  C   UNL d   1      49.841  34.382  52.109  0.00  0.00     0.002 A 
ENDBRANCH   3  17
TORSDOF 5
ENDMDL
MODEL 4
REMARK VINA RESULT:      -6.4      1.447      2.702
REMARK  5 active torsions:
REMARK  status: ('A' for Active; 'I' for Inactive)
REMARK    1  A    between atoms: N_10  and  C_2 
REMARK    2  A    between atoms: C_13  and  C_3 
REMARK    3  A    between atoms: C_5  and  S_14 
REMARK       I    between atoms: C_12  and  N_10 
REMARK    4  A    between atoms: C_18  and  C_12 
REMARK    5  A    between atoms: S_14  and  C_18 
ROOT
ATOM      1  N   UNL d   1      52.077  31.734  53.431  0.00  0.00    -0.051 NA
ATOM      2  C   UNL d   1      52.063  32.320  52.851  0.00  0.00     0.760 A 
ATOM      3  C   UNL d   1      52.620  31.161  53.204  0.00  0.00     0.147 A 
ATOM      4  N   UNL d   1      52.591  32.116  52.268  0.00  0.00    -0.019 NA
ATOM      5  S   UNL d   1      52.943  31.395  52.478  0.00  0.00     0.052 SA
ENDROOT
BRANCH   2   6
ATOM      6  N   UNL d   1      51.591  32.996  52.867  0.00  0.00    -0.018 NA
ATOM      7  C   UNL d   1      51.852  33.679  53.248  0.00  0.00     0.302 C 
ATOM      8  O   UNL d   1      51.384  34.350  53.265  0.00  0.00    -0.264 OA
BRANCH   7   9
ATOM      9  C   UNL d   1      52.597  33.685  53.618  0.00  0.00     0.100 C 
BRANCH   9  10
ATOM     10  S   UNL d   1      52.878  34.376  53.958  0.00  0.00    -0.054 SA
BRANCH  10  11
ATOM     11  C   UNL d   1      53.467  34.348  54.528  0.00  0.00     0.164 A 
ATOM     12  S   UNL d   1      54.241  34.103  54.408  0.00  0.00    -0.039 SA
ATOM     13  C   UNL d   1      54.642  34.162  55.129  0.00  0.00     0.134 A 
ATOM     14  C   UNL d   1      55.439  33.969  55.250  0.00  0.00     0.030 C 
ATOM     15  N   UNL d   1      54.115  34.443  55.689  0.00  0.00    -0.140 NA
ATOM     16  N   UNL d   1      53.384  34.559  55.317  0.00  0.00    -0.134 NA
ENDBRANCH  10  11
ENDBRANCH   9  10
ENDBRANCH   7   9
ENDBRANCH   2   6
BRANCH   3  17
ATOM     17  C   UNL d   1      52.836  30.462  53.597  0.00  0.00     0.026 A 
ATOM     18  C   UNL d   1      53.274  30.502  54.292  0.00  0.00     0.002 A 
ATOM     19  C   UNL d   1      53.490  29.813  54.684  0.00  0.00     0.000 A 
ATOM     20  C   UNL d   1      53.267  29.079  54.379  0.00  0.00     0.000 A 
ATOM     21  C   UNL d   1      52.821  29.038  53.672  0.00  0.00     0.000 A 
ATOM     22  C   UNL d   1      53.482  28.386  54.770  0.00  0.00     0.000 C 
ATOM     23  C   UNL d   1      52.607  29.734  53.283  0.00  0.00     0.002 A 
ENDBRANCH   3  17
TORSDOF 5
ENDMDL
MODEL 5
REMARK VINA RESULT:      -6.4      1.435      4.662
REMARK  5 active torsions:
REMARK  status: ('A' for Active; 'I' for Inactive)
REMARK    1  A    between atoms: N_10  and  C_2 
REMARK    2  A    between atoms: C_13  and  C_3 
REMARK    3  A    between atoms: C_5  and  S_14 
REMARK       I    between atoms: C_12  and  N_10 
REMARK    4  A    between atoms: C_18  and  C_12 
REMARK    5  A    between atoms: S_14  and  C_18 
ROOT
ATOM      1  N   UNL d   1      51.318  34.601  52.635  0.00  0.00    -0.051 NA
ATOM      2  C   UNL d   1      51.757  34.253  53.239  0.00  0.00     0.760 A 
ATOM      3  C   UNL d   1      50.556  34.295  52.660  0.00  0.00     0.147 A 
ATOM      4  N   UNL d   1      51.277  33.734  53.639  0.00  0.00    -0.019 NA
ATOM      5  S   UNL d   1      50.525  33.753  53.286  0.00  0.00     0.052 SA
ENDROOT
BRANCH   2   6
ATOM      6  N   UNL d   1      52.550  34.409  53.403  0.00  0.00    -0.018 NA
ATOM      7  C   UNL d   1      53.097  33.794  53.446  0.00  0.00     0.302 C 
ATOM      8  O   UNL d   1      53.885  33.948  53.609  0.00  0.00    -0.264 OA
BRANCH   7   9
ATOM      9  C   UNL d   1      52.846  33.010  53.322  0.00  0.00     0.100 C 
BRANCH   9  10
ATOM     10  S   UNL d   1      53.356  32.388  53.482  0.00  0.00    -0.054 SA
BRANCH  10  11
ATOM     11  C   UNL d   1      53.173  31.628  53.235  0.00  0.00     0.164 A 
ATOM     12  S   UNL d   1      53.422  30.933  53.593  0.00  0.00    -0.039 SA
ATOM     13  C   UNL d   1      53.110  30.299  53.163  0.00  0.00     0.134 A 
ATOM     14  C   UNL d   1      53.228  29.498  53.338  0.00  0.00     0.030 C 
ATOM     15  N   UNL d   1      52.671  30.606  52.544  0.00  0.00    -0.140 NA
ATOM     16  N   UNL d   1      52.709  31.432  52.587  0.00  0.00    -0.134 NA
ENDBRANCH  10  11
ENDBRANCH   9  10
ENDBRANCH   7   9
ENDBRANCH   2   6
BRANCH   3  17
ATOM     17  C   UNL d   1      49.907  34.467  52.172  0.00  0.00     0.026 A 
ATOM     18  C   UNL d   1      49.854  34.124  51.427  0.00  0.00     0.002 A 
ATOM     19  C   UNL d   1      49.213  34.291  50.940  0.00  0.00     0.000 A 
ATOM     20  C   UNL d   1      48.622  34.805  51.201  0.00  0.00     0.000 A 
ATOM     21  C   UNL d   1      48.675  35.154  51.960  0.00  0.00     0.000 A 
ATOM     22  C   UNL d   1      47.978  34.974  50.716  0.00  0.00     0.000 C 
ATOM     23  C   UNL d   1      49.322  34.981  52.444  0.00  0.00     0.002 A 
ENDBRANCH   3  17
TORSDOF 5
ENDMDL
MODEL 6
REMARK VINA RESULT:      -6.0      2.906      4.425
REMARK  5 active torsions:
REMARK  status: ('A' for Active; 'I' for Inactive)
REMARK    1  A    between atoms: N_10  and  C_2 
REMARK    2  A    between atoms: C_13  and  C_3 
REMARK    3  A    between atoms: C_5  and  S_14 
REMARK       I    between atoms: C_12  and  N_10 
REMARK    4  A    between atoms: C_18  and  C_12 
REMARK    5  A    between atoms: S_14  and  C_18 
ROOT
ATOM      1  N   UNL d   1      51.068  34.331  52.382  0.00  0.00    -0.051 NA
ATOM      2  C   UNL d   1      50.292  34.090  52.242  0.00  0.00     0.760 A 
ATOM      3  C   UNL d   1      51.314  34.009  53.097  0.00  0.00     0.147 A 
ATOM      4  N   UNL d   1      50.054  33.622  52.863  0.00  0.00    -0.019 NA
ATOM      5  S   UNL d   1      50.684  33.565  53.401  0.00  0.00     0.052 SA
ENDROOT
BRANCH   2   6
ATOM      6  N   UNL d   1      49.841  34.293  51.583  0.00  0.00    -0.018 NA
ATOM      7  C   UNL d   1      49.188  34.790  51.662  0.00  0.00     0.302 C 
ATOM      8  O   UNL d   1      48.739  34.993  51.008  0.00  0.00    -0.264 OA
BRANCH   7   9
ATOM      9  C   UNL d   1      48.984  35.088  52.411  0.00  0.00     0.100 C 
BRANCH   9  10
ATOM     10  S   UNL d   1      48.322  35.564  52.495  0.00  0.00    -0.054 SA
BRANCH  10  11
ATOM     11  C   UNL d   1      48.181  35.957  53.201  0.00  0.00     0.164 A 
ATOM     12  S   UNL d   1      47.476  35.951  53.622  0.00  0.00    -0.039 SA
ATOM     13  C   UNL d   1      47.578  36.418  54.297  0.00  0.00     0.134 A 
ATOM     14  C   UNL d   1      47.000  36.560  54.873  0.00  0.00     0.030 C 
ATOM     15  N   UNL d   1      48.344  36.709  54.289  0.00  0.00    -0.140 NA
ATOM     16  N   UNL d   1      48.720  36.423  53.608  0.00  0.00    -0.134 NA
ENDBRANCH  10  11
ENDBRANCH   9  10
ENDBRANCH   7   9
ENDBRANCH   2   6
BRANCH   3  17
ATOM     17  C   UNL d   1      52.046  34.086  53.481  0.00  0.00     0.026 A 
ATOM     18  C   UNL d   1      52.324  34.833  53.683  0.00  0.00     0.002 A 
ATOM     19  C   UNL d   1      53.048  34.915  54.063  0.00  0.00     0.000 A 
ATOM     20  C   UNL d   1      53.497  34.245  54.242  0.00  0.00     0.000 A 
ATOM     21  C   UNL d   1      53.213  33.485  54.036  0.00  0.00     0.000 A 
ATOM     22  C   UNL d   1      54.223  34.324  54.623  0.00  0.00     0.000 C 
ATOM     23  C   UNL d   1      52.485  33.410  53.654  0.00  0.00     0.002 A 
ENDBRANCH   3  17
TORSDOF 5
ENDMDL
