MODEL 1
REMARK VINA RESULT:      64.7      0.000      0.000
REMARK  6 active torsions:
REMARK  status: ('A' for Active; 'I' for Inactive)
REMARK    1  A    between atoms: C_9  and  N_1 
REMARK    2  A    between atoms: S_11  and  C_6 
REMARK    3  A    between atoms: C_24  and  S_11 
REMARK    4  A    between atoms: C_13  and  C_24 
REMARK       I    between atoms: N_18  and  C_13 
REMARK    5  A    between atoms: C_26  and  N_18 
REMARK    6  A    between atoms: C_25  and  C_26 
ROOT
ATOM      1  N   UNL d   1      13.788  13.170  -3.023  0.00  0.00    -0.212 N 
ATOM      2  C   UNL d   1      14.009  13.949  -3.160  0.00  0.00     0.169 A 
ATOM      3  N   UNL d   1      13.437  12.875  -3.691  0.00  0.00    -0.162 NA
ATOM      4  C   UNL d   1      13.790  14.138  -3.932  0.00  0.00     0.081 A 
ATOM      5  C   UNL d   1      13.435  13.474  -4.263  0.00  0.00     0.126 A 
ATOM      6  C   UNL d   1      13.941  14.888  -4.232  0.00  0.00     0.117 A 
ATOM      7  N   UNL d   1      14.380  14.510  -2.687  0.00  0.00    -0.205 NA
ATOM      8  N   UNL d   1      14.313  15.453  -3.760  0.00  0.00    -0.217 NA
ATOM      9  C   UNL d   1      14.533  15.264  -2.987  0.00  0.00     0.201 A 
ENDROOT
BRANCH   6  10
ATOM     10  S   UNL d   1      13.721  15.077  -5.004  0.00  0.00    -0.062 SA
BRANCH  10  11
ATOM     11  C   UNL d   1      13.484  15.836  -5.187  0.00  0.00     0.099 C 
BRANCH  11  12
ATOM     12  C   UNL d   1      13.237  16.018  -5.953  0.00  0.00     0.286 C 
ATOM     13  N   UNL d   1      13.430  16.748  -6.287  0.00  0.00    -0.206 NA
ATOM     14  O   UNL d   1      12.795  15.470  -6.385  0.00  0.00    -0.265 OA
BRANCH  13  15
ATOM     15  C   UNL d   1      13.872  17.295  -5.855  0.00  0.00     0.102 C 
BRANCH  15  16
ATOM     16  C   UNL d   1      13.778  18.104  -5.995  0.00  0.00     0.021 A 
ATOM     17  C   UNL d   1      14.412  18.619  -5.881  0.00  0.00     0.028 A 
ATOM     18  C   UNL d   1      14.317  19.426  -6.021  0.00  0.00     0.119 A 
ATOM     19  O   UNL d   1      14.846  20.060  -5.954  0.00  0.00    -0.300 OA
ATOM     20  C   UNL d   1      13.589  19.719  -6.275  0.00  0.00     0.119 A 
ATOM     21  C   UNL d   1      14.442  20.737  -6.167  0.00  0.00     0.304 A 
ATOM     22  O   UNL d   1      13.674  20.537  -6.364  0.00  0.00    -0.300 OA
ATOM     23  C   UNL d   1      12.955  19.204  -6.389  0.00  0.00     0.026 A 
ATOM     24  C   UNL d   1      13.049  18.396  -6.249  0.00  0.00     0.004 A 
ENDBRANCH  15  16
ENDBRANCH  13  15
ENDBRANCH  11  12
ENDBRANCH  10  11
ENDBRANCH   6  10
BRANCH   1  25
ATOM     25  C   UNL d   1      13.938  12.819  -2.285  0.00  0.00     0.085 A 
ATOM     26  C   UNL d   1      13.545  12.130  -2.071  0.00  0.00     0.020 A 
ATOM     27  C   UNL d   1      13.691  11.783  -1.345  0.00  0.00     0.013 A 
ATOM     28  C   UNL d   1      14.240  12.128  -0.822  0.00  0.00     0.058 A 
ATOM     29  C   UNL d   1      14.628  12.821  -1.049  0.00  0.00     0.013 A 
ATOM     30 CL   UNL d   1      14.396  11.779  -0.076  0.00  0.00    -0.082 Cl
ATOM     31  C   UNL d   1      14.477  13.161  -1.774  0.00  0.00     0.020 A 
ENDBRANCH   1  25
TORSDOF 6
ENDMDL
MODEL 2
REMARK VINA RESULT:      66.8      2.948      6.482
REMARK  6 active torsions:
REMARK  status: ('A' for Active; 'I' for Inactive)
REMARK    1  A    between atoms: C_9  and  N_1 
REMARK    2  A    between atoms: S_11  and  C_6 
REMARK    3  A    between atoms: C_24  and  S_11 
REMARK    4  A    between atoms: C_13  and  C_24 
REMARK       I    between atoms: N_18  and  C_13 
REMARK    5  A    between atoms: C_26  and  N_18 
REMARK    6  A    between atoms: C_25  and  C_26 
ROOT
ATOM      1  N   UNL d   1      14.315  16.787  -4.769  0.00  0.00    -0.212 N 
ATOM      2  C   UNL d   1      13.865  16.173  -5.077  0.00  0.00     0.169 A 
ATOM      3  N   UNL d   1      14.708  16.521  -4.112  0.00  0.00    -0.162 NA
ATOM      4  C   UNL d   1      13.985  15.512  -4.599  0.00  0.00     0.081 A 
ATOM      5  C   UNL d   1      14.507  15.725  -4.000  0.00  0.00     0.126 A 
ATOM      6  C   UNL d   1      13.603  14.804  -4.770  0.00  0.00     0.117 A 
ATOM      7  N   UNL d   1      13.365  16.127  -5.728  0.00  0.00    -0.205 NA
ATOM      8  N   UNL d   1      13.101  14.755  -5.423  0.00  0.00    -0.217 NA
ATOM      9  C   UNL d   1      12.981  15.416  -5.902  0.00  0.00     0.201 A 
ENDROOT
BRANCH   6  10
ATOM     10  S   UNL d   1      13.723  14.143  -4.291  0.00  0.00    -0.062 SA
BRANCH  10  11
ATOM     11  C   UNL d   1      13.197  13.520  -4.317  0.00  0.00     0.099 C 
BRANCH  11  12
ATOM     12  C   UNL d   1      13.475  12.744  -4.291  0.00  0.00     0.286 C 
ATOM     13  N   UNL d   1      13.516  12.344  -3.570  0.00  0.00    -0.206 NA
ATOM     14  O   UNL d   1      13.713  12.367  -4.987  0.00  0.00    -0.265 OA
BRANCH  13  15
ATOM     15  C   UNL d   1      13.278  12.721  -2.875  0.00  0.00     0.102 C 
BRANCH  15  16
ATOM     16  C   UNL d   1      13.571  12.466  -2.147  0.00  0.00     0.021 A 
ATOM     17  C   UNL d   1      14.350  12.636  -1.934  0.00  0.00     0.028 A 
ATOM     18  C   UNL d   1      14.643  12.381  -1.205  0.00  0.00     0.119 A 
ATOM     19  O   UNL d   1      15.387  12.469  -0.852  0.00  0.00    -0.300 OA
ATOM     20  C   UNL d   1      14.157  11.957  -0.690  0.00  0.00     0.119 A 
ATOM     21  C   UNL d   1      15.355  12.101  -0.124  0.00  0.00     0.304 A 
ATOM     22  O   UNL d   1      14.608  11.785  -0.018  0.00  0.00    -0.300 OA
ATOM     23  C   UNL d   1      13.379  11.787  -0.903  0.00  0.00     0.026 A 
ATOM     24  C   UNL d   1      13.085  12.042  -1.632  0.00  0.00     0.004 A 
ENDBRANCH  15  16
ENDBRANCH  13  15
ENDBRANCH  11  12
ENDBRANCH  10  11
ENDBRANCH   6  10
BRANCH   1  25
ATOM     25  C   UNL d   1      14.309  17.532  -5.136  0.00  0.00     0.085 A 
ATOM     26  C   UNL d   1      14.652  18.177  -4.760  0.00  0.00     0.020 A 
ATOM     27  C   UNL d   1      14.647  18.912  -5.120  0.00  0.00     0.013 A 
ATOM     28  C   UNL d   1      14.293  19.006  -5.869  0.00  0.00     0.058 A 
ATOM     29  C   UNL d   1      13.952  18.349  -6.236  0.00  0.00     0.013 A 
ATOM     30 CL   UNL d   1      14.284  19.755  -6.245  0.00  0.00    -0.082 Cl
ATOM     31  C   UNL d   1      13.961  17.620  -5.871  0.00  0.00     0.020 A 
ENDBRANCH   1  25
TORSDOF 6
ENDMDL
