MODEL 1
REMARK VINA RESULT:      -2.8      0.000      0.000
REMARK  4 active torsions:
REMARK  status: ('A' for Active; 'I' for Inactive)
REMARK    1  A    between atoms: N_2  and  S_1 
REMARK    2  A    between atoms: C_4  and  S_1 
REMARK    3  A    between atoms: C_11  and  C_3 
REMARK    4  A    between atoms: O_17  and  C_9 
ROOT
ATOM      1  S   UNL d   1      31.131  16.328 -24.446  0.00  0.00     0.273 S 
ATOM      2  O   UNL d   1      31.155  15.820 -23.789  0.00  0.00    -0.200 OA
ATOM      3  O   UNL d   1      31.107  16.829 -25.097  0.00  0.00    -0.200 OA
ENDROOT
BRANCH   1   4
ATOM      4  N   UNL d   1      31.909  16.134 -24.625  0.00  0.00    -0.213 N 
ATOM      5  C   UNL d   1      32.576  16.578 -24.437  0.00  0.00     0.157 A 
ATOM      6  N   UNL d   1      33.241  16.180 -24.719  0.00  0.00    -0.224 NA
ATOM      7  C   UNL d   1      32.983  15.480 -25.086  0.00  0.00     0.120 A 
ATOM      8  C   UNL d   1      32.161  15.453 -25.028  0.00  0.00     0.114 A 
BRANCH   5   9
ATOM      9  C   UNL d   1      32.577  17.300 -24.034  0.00  0.00     0.035 A 
ATOM     10  C   UNL d   1      32.697  17.322 -23.223  0.00  0.00     0.003 A 
ATOM     11  C   UNL d   1      32.699  18.042 -22.815  0.00  0.00     0.000 A 
ATOM     12  C   UNL d   1      32.576  18.752 -23.238  0.00  0.00     0.000 A 
ATOM     13  C   UNL d   1      32.456  18.730 -24.049  0.00  0.00     0.000 A 
ATOM     14  C   UNL d   1      32.455  18.008 -24.452  0.00  0.00     0.003 A 
ENDBRANCH   5   9
ENDBRANCH   1   4
BRANCH   1  15
ATOM     15  C   UNL d   1      30.344  16.524 -24.266  0.00  0.00     0.106 A 
ATOM     16  C   UNL d   1      29.925  17.053 -24.750  0.00  0.00     0.039 A 
ATOM     17  C   UNL d   1      29.147  17.247 -24.572  0.00  0.00     0.122 A 
ATOM     18  C   UNL d   1      28.782  16.912 -23.908  0.00  0.00     0.162 A 
ATOM     19  C   UNL d   1      29.195  16.387 -23.427  0.00  0.00     0.032 A 
ATOM     20  F   UNL d   1      28.002  17.107 -23.729  0.00  0.00    -0.202 F 
ATOM     21  C   UNL d   1      29.973  16.195 -23.608  0.00  0.00     0.015 A 
BRANCH  17  22
ATOM     22  O   UNL d   1      28.733  17.773 -25.053  0.00  0.00    -0.326 OA
ATOM     23  C   UNL d   1      28.956  18.563 -25.085  0.00  0.00     0.181 C 
ENDBRANCH  17  22
ENDBRANCH   1  15
TORSDOF 4
ENDMDL
MODEL 2
REMARK VINA RESULT:      -2.1      1.991      3.560
REMARK  4 active torsions:
REMARK  status: ('A' for Active; 'I' for Inactive)
REMARK    1  A    between atoms: N_2  and  S_1 
REMARK    2  A    between atoms: C_4  and  S_1 
REMARK    3  A    between atoms: C_11  and  C_3 
REMARK    4  A    between atoms: O_17  and  C_9 
ROOT
ATOM      1  S   UNL d   1      32.738  17.579 -24.022  0.00  0.00     0.273 S 
ATOM      2  O   UNL d   1      32.935  17.666 -24.824  0.00  0.00    -0.200 OA
ATOM      3  O   UNL d   1      32.543  17.492 -23.228  0.00  0.00    -0.200 OA
ENDROOT
BRANCH   1   4
ATOM      4  N   UNL d   1      32.615  16.775 -24.140  0.00  0.00    -0.213 N 
ATOM      5  C   UNL d   1      31.891  16.409 -24.279  0.00  0.00     0.157 A 
ATOM      6  N   UNL d   1      32.022  15.599 -24.365  0.00  0.00    -0.224 NA
ATOM      7  C   UNL d   1      32.836  15.462 -24.278  0.00  0.00     0.120 A 
ATOM      8  C   UNL d   1      33.202  16.188 -24.139  0.00  0.00     0.114 A 
BRANCH   5   9
ATOM      9  C   UNL d   1      31.159  16.791 -24.324  0.00  0.00     0.035 A 
ATOM     10  C   UNL d   1      30.910  17.129 -25.029  0.00  0.00     0.003 A 
ATOM     11  C   UNL d   1      30.178  17.512 -25.079  0.00  0.00     0.000 A 
ATOM     12  C   UNL d   1      29.690  17.552 -24.403  0.00  0.00     0.000 A 
ATOM     13  C   UNL d   1      29.938  17.213 -23.698  0.00  0.00     0.000 A 
ATOM     14  C   UNL d   1      30.671  16.832 -23.652  0.00  0.00     0.003 A 
ENDBRANCH   5   9
ENDBRANCH   1   4
BRANCH   1  15
ATOM     15  C   UNL d   1      32.862  18.392 -23.902  0.00  0.00     0.106 A 
ATOM     16  C   UNL d   1      32.850  18.706 -23.133  0.00  0.00     0.039 A 
ATOM     17  C   UNL d   1      32.973  19.510 -23.015  0.00  0.00     0.122 A 
ATOM     18  C   UNL d   1      33.109  20.005 -23.666  0.00  0.00     0.162 A 
ATOM     19  C   UNL d   1      33.122  19.695 -24.429  0.00  0.00     0.032 A 
ATOM     20  F   UNL d   1      33.233  20.810 -23.547  0.00  0.00    -0.202 F 
ATOM     21  C   UNL d   1      32.999  18.890 -24.543  0.00  0.00     0.015 A 
BRANCH  17  22
ATOM     22  O   UNL d   1      32.961  19.820 -22.252  0.00  0.00    -0.326 OA
ATOM     23  C   UNL d   1      33.237  19.372 -21.622  0.00  0.00     0.181 C 
ENDBRANCH  17  22
ENDBRANCH   1  15
TORSDOF 4
ENDMDL
