MODEL 1
REMARK VINA RESULT:       3.5      0.000      0.000
REMARK  7 active torsions:
REMARK  status: ('A' for Active; 'I' for Inactive)
REMARK    1  A    between atoms: C_13  and  C_4 
REMARK    2  A    between atoms: N_16  and  C_6 
REMARK    3  A    between atoms: C_17  and  C_9 
REMARK    4  A    between atoms: N_11  and  C_19 
REMARK    5  A    between atoms: C_21  and  N_16 
REMARK    6  A    between atoms: C_19  and  C_20 
REMARK    7  A    between atoms: C_20  and  C_21 
ROOT
ATOM      1  C   UNL d   1     -41.656-122.194 -52.723  0.00  0.00     0.168 A 
ATOM      2  N   UNL d   1     -41.538-122.701 -52.078  0.00  0.00    -0.184 N 
ATOM      3  N   UNL d   1     -41.849-123.817 -52.900  0.00  0.00    -0.162 NA
ATOM      4  C   UNL d   1     -41.866-122.497 -53.439  0.00  0.00     0.055 A 
ATOM      5  N   UNL d   1     -41.557-121.389 -52.623  0.00  0.00    -0.227 NA
ATOM      6  C   UNL d   1     -41.326-122.385 -51.358  0.00  0.00     0.218 A 
ATOM      7  C   UNL d   1     -41.967-123.309 -53.545  0.00  0.00     0.104 A 
ATOM      8  C   UNL d   1     -41.226-121.553 -51.265  0.00  0.00     0.071 A 
ATOM      9  C   UNL d   1     -41.345-121.081 -51.904  0.00  0.00     0.087 A 
ATOM     10  C   UNL d   1     -42.176-123.610 -54.259  0.00  0.00     0.023 C 
ENDROOT
BRANCH   6  11
ATOM     11  N   UNL d   1     -41.204-122.903 -50.694  0.00  0.00    -0.380 NA
BRANCH  11  12
ATOM     12  C   UNL d   1     -41.124-123.374 -49.993  0.00  0.00     0.164 C 
BRANCH  12  13
ATOM     13  C   UNL d   1     -41.716-123.329 -49.398  0.00  0.00     0.054 C 
BRANCH  13  14
ATOM     14  C   UNL d   1     -41.501-123.426 -48.587  0.00  0.00     0.084 C 
BRANCH  14  15
ATOM     15  N   UNL d   1     -42.011-123.128 -47.973  0.00  0.00    -0.285 N 
ATOM     16  C   UNL d   1     -42.649-122.588 -48.073  0.00  0.00     0.183 A 
ATOM     17  N   UNL d   1     -43.002-122.447 -47.311  0.00  0.00    -0.222 NA
ATOM     18  C   UNL d   1     -42.574-122.906 -46.742  0.00  0.00     0.120 A 
ATOM     19  C   UNL d   1     -41.965-123.325 -47.147  0.00  0.00     0.102 A 
ENDBRANCH  14  15
ENDBRANCH  13  14
ENDBRANCH  12  13
ENDBRANCH  11  12
ENDBRANCH   6  11
BRANCH   9  20
ATOM     20  C   UNL d   1     -41.243-120.234 -51.804  0.00  0.00     0.018 C 
ATOM     21  C   UNL d   1     -41.124-119.739 -52.501  0.00  0.00     0.002 C 
ATOM     22  C   UNL d   1     -41.257-119.885 -51.022  0.00  0.00     0.002 C 
ENDBRANCH   9  20
BRANCH   4  23
ATOM     23  C   UNL d   1     -41.985-121.985 -54.090  0.00  0.00     0.004 A 
ATOM     24  C   UNL d   1     -41.365-121.819 -54.595  0.00  0.00     0.000 A 
ATOM     25  C   UNL d   1     -41.482-121.314 -55.236  0.00  0.00     0.000 A 
ATOM     26  C   UNL d   1     -42.217-120.986 -55.360  0.00  0.00     0.000 A 
ATOM     27  C   UNL d   1     -42.839-121.156 -54.848  0.00  0.00     0.000 A 
ATOM     28  C   UNL d   1     -42.715-121.654 -54.219  0.00  0.00     0.000 A 
ENDBRANCH   4  23
TORSDOF 7
ENDMDL
