MODEL 1
REMARK VINA RESULT:      -5.1      0.000      0.000
REMARK  3 active torsions:
REMARK  status: ('A' for Active; 'I' for Inactive)
REMARK    1  A    between atoms: N_2  and  C_1 
REMARK       I    between atoms: C_4  and  N_2 
REMARK    2  A    between atoms: C_8  and  C_4 
REMARK    3  A    between atoms: C_10  and  C_5 
ROOT
ATOM      1  C   UNL d   1      58.035   0.353  30.370  0.00  0.00     0.197 A 
ATOM      2  N   UNL d   1      58.736  -0.058  30.365  0.00  0.00    -0.221 NA
ATOM      3  C   UNL d   1      59.027   0.014  29.560  0.00  0.00     0.090 A 
ATOM      4  S   UNL d   1      57.867   0.677  29.625  0.00  0.00    -0.046 SA
ATOM      5  C   UNL d   1      58.472   0.472  29.127  0.00  0.00     0.058 A 
ENDROOT
BRANCH   1   6
ATOM      6  N   UNL d   1      57.538   0.439  31.051  0.00  0.00    -0.183 NA
ATOM      7  C   UNL d   1      57.120  -0.239  31.330  0.00  0.00     0.281 C 
ATOM      8  O   UNL d   1      57.196  -0.969  30.945  0.00  0.00    -0.265 OA
BRANCH   7   9
ATOM      9  C   UNL d   1      56.628  -0.191  31.990  0.00  0.00     0.058 A 
ATOM     10  C   UNL d   1      56.358  -0.886  32.323  0.00  0.00     0.005 A 
ATOM     11  C   UNL d   1      55.857  -0.848  32.994  0.00  0.00     0.000 A 
ATOM     12  C   UNL d   1      55.633  -0.130  33.322  0.00  0.00     0.000 A 
ATOM     13  C   UNL d   1      55.917   0.580  32.971  0.00  0.00     0.000 A 
ATOM     14  C   UNL d   1      55.181  -0.073  33.929  0.00  0.00     0.000 C 
ATOM     15  C   UNL d   1      56.415   0.542  32.303  0.00  0.00     0.005 A 
ENDBRANCH   7   9
ENDBRANCH   1   6
BRANCH   3  16
ATOM     16  C   UNL d   1      59.718  -0.298  29.250  0.00  0.00     0.018 A 
ATOM     17  C   UNL d   1      60.420   0.093  29.371  0.00  0.00     0.002 A 
ATOM     18  C   UNL d   1      61.134  -0.213  29.061  0.00  0.00     0.000 A 
ATOM     19  C   UNL d   1      61.133  -0.912  28.632  0.00  0.00     0.000 A 
ATOM     20  C   UNL d   1      60.418  -1.320  28.503  0.00  0.00     0.000 A 
ATOM     21  C   UNL d   1      59.713  -1.001  28.819  0.00  0.00     0.002 A 
ENDBRANCH   3  16
TORSDOF 3
ENDMDL
MODEL 2
REMARK VINA RESULT:      -2.8      9.646      9.960
REMARK  3 active torsions:
REMARK  status: ('A' for Active; 'I' for Inactive)
REMARK    1  A    between atoms: N_2  and  C_1 
REMARK       I    between atoms: C_4  and  N_2 
REMARK    2  A    between atoms: C_8  and  C_4 
REMARK    3  A    between atoms: C_10  and  C_5 
ROOT
ATOM      1  C   UNL d   1      58.554  -9.814  32.526  0.00  0.00     0.197 A 
ATOM      2  N   UNL d   1      58.799  -9.810  31.751  0.00  0.00    -0.221 NA
ATOM      3  C   UNL d   1      58.074  -9.811  31.291  0.00  0.00     0.090 A 
ATOM      4  S   UNL d   1      57.726  -9.817  32.583  0.00  0.00    -0.046 SA
ATOM      5  C   UNL d   1      57.429  -9.816  31.829  0.00  0.00     0.058 A 
ENDROOT
BRANCH   1   6
ATOM      6  N   UNL d   1      59.078  -9.815  33.192  0.00  0.00    -0.183 NA
ATOM      7  C   UNL d   1      59.168  -9.100  33.631  0.00  0.00     0.281 C 
ATOM      8  O   UNL d   1      58.752  -8.416  33.413  0.00  0.00    -0.265 OA
BRANCH   7   9
ATOM      9  C   UNL d   1      59.669  -9.064  34.285  0.00  0.00     0.058 A 
ATOM     10  C   UNL d   1      59.334  -8.995  35.027  0.00  0.00     0.005 A 
ATOM     11  C   UNL d   1      59.836  -8.958  35.697  0.00  0.00     0.000 A 
ATOM     12  C   UNL d   1      60.653  -8.989  35.624  0.00  0.00     0.000 A 
ATOM     13  C   UNL d   1      60.987  -9.059  34.856  0.00  0.00     0.000 A 
ATOM     14  C   UNL d   1      61.124  -8.957  36.218  0.00  0.00     0.000 C 
ATOM     15  C   UNL d   1      60.488  -9.096  34.188  0.00  0.00     0.005 A 
ENDBRANCH   7   9
ENDBRANCH   1   6
BRANCH   3  16
ATOM     16  C   UNL d   1      58.002  -9.807  30.475  0.00  0.00     0.018 A 
ATOM     17  C   UNL d   1      58.674  -9.817  30.017  0.00  0.00     0.002 A 
ATOM     18  C   UNL d   1      58.617  -9.814  29.183  0.00  0.00     0.000 A 
ATOM     19  C   UNL d   1      57.883  -9.802  28.817  0.00  0.00     0.000 A 
ATOM     20  C   UNL d   1      57.189  -9.792  29.279  0.00  0.00     0.000 A 
ATOM     21  C   UNL d   1      57.262  -9.795  30.111  0.00  0.00     0.002 A 
ENDBRANCH   3  16
TORSDOF 3
ENDMDL
