MODEL 1
REMARK VINA RESULT:      49.1      0.000      0.000
REMARK  4 active torsions:
REMARK  status: ('A' for Active; 'I' for Inactive)
REMARK    1  A    between atoms: C_2  and  S_1 
REMARK    2  A    between atoms: N_4  and  S_1 
REMARK    3  A    between atoms: C_16  and  N_4 
REMARK    4  A    between atoms: C_17  and  C_16 
ROOT
ATOM      1  S   UNL d   1      58.665  49.704  49.763  0.00  0.00     0.287 S 
ATOM      2  O   UNL d   1      58.759  49.705  48.943  0.00  0.00    -0.198 OA
ATOM      3  O   UNL d   1      58.579  49.703  50.585  0.00  0.00    -0.198 OA
ENDROOT
BRANCH   1   4
ATOM      4  C   UNL d   1      57.846  49.703  49.669  0.00  0.00     0.123 A 
ATOM      5  C   UNL d   1      57.346  49.704  50.331  0.00  0.00     0.094 A 
ATOM      6  N   UNL d   1      57.674  49.706  51.088  0.00  0.00    -0.243 NA
ATOM      7  C   UNL d   1      56.539  49.703  50.246  0.00  0.00     0.018 A 
ATOM      8  C   UNL d   1      57.194  49.707  51.738  0.00  0.00     0.099 A 
ATOM      9  C   UNL d   1      56.375  49.706  51.645  0.00  0.00     0.021 A 
ATOM     10  C   UNL d   1      56.033  49.704  50.905  0.00  0.00     0.003 A 
ATOM     11  C   UNL d   1      56.205  49.702  49.486  0.00  0.00     0.002 A 
ATOM     12  C   UNL d   1      56.691  49.701  48.839  0.00  0.00     0.001 A 
ATOM     13  C   UNL d   1      57.511  49.702  48.932  0.00  0.00     0.015 A 
ENDBRANCH   1   4
BRANCH   1  14
ATOM     14  N   UNL d   1      59.488  49.705  49.849  0.00  0.00    -0.157 NA
BRANCH  14  15
ATOM     15  C   UNL d   1      59.824  49.556  50.594  0.00  0.00     0.112 C 
BRANCH  15  16
ATOM     16  C   UNL d   1      60.453  49.047  50.669  0.00  0.00     0.022 A 
ATOM     17  C   UNL d   1      60.462  48.308  50.282  0.00  0.00     0.028 A 
ATOM     18  C   UNL d   1      61.096  47.813  50.367  0.00  0.00     0.119 A 
ATOM     19  O   UNL d   1      61.253  47.081  50.064  0.00  0.00    -0.300 OA
ATOM     20  C   UNL d   1      61.747  48.040  50.846  0.00  0.00     0.119 A 
ATOM     21  C   UNL d   1      62.000  46.837  50.346  0.00  0.00     0.304 A 
ATOM     22  O   UNL d   1      62.286  47.437  50.822  0.00  0.00    -0.300 OA
ATOM     23  C   UNL d   1      61.734  48.749  51.216  0.00  0.00     0.026 A 
ATOM     24  C   UNL d   1      61.079  49.266  51.130  0.00  0.00     0.004 A 
ENDBRANCH  15  16
ENDBRANCH  14  15
ENDBRANCH   1  14
TORSDOF 4
ENDMDL
