MODEL 1
REMARK VINA RESULT:      20.3      0.000      0.000
REMARK  5 active torsions:
REMARK  status: ('A' for Active; 'I' for Inactive)
REMARK    1  A    between atoms: C_3  and  N_1 
REMARK    2  A    between atoms: C_6  and  C_3 
REMARK    3  A    between atoms: C_9  and  C_3 
REMARK    4  A    between atoms: N_5  and  C_6 
REMARK    5  A    between atoms: O_18  and  C_14 
ROOT
ATOM      1  C   UNL d   1      14.358  12.482  -1.603  0.00  0.00     0.106 C 
ENDROOT
BRANCH   1   2
ATOM      2  N   UNL d   1      14.385  13.155  -1.109  0.00  0.00    -0.228 N 
ATOM      3  N   UNL d   1      14.732  13.894  -1.209  0.00  0.00    -0.165 NA
ATOM      4  C   UNL d   1      14.567  14.329  -0.520  0.00  0.00     0.103 A 
ATOM      5  C   UNL d   1      14.797  15.104  -0.354  0.00  0.00     0.022 C 
ATOM      6  C   UNL d   1      14.123  13.842  -0.016  0.00  0.00     0.040 A 
ATOM      7  C   UNL d   1      14.014  13.133  -0.374  0.00  0.00     0.085 A 
ATOM      8  C   UNL d   1      13.590  12.488  -0.040  0.00  0.00     0.021 C 
ENDBRANCH   1   2
BRANCH   1   9
ATOM      9  C   UNL d   1      14.732  11.779  -1.347  0.00  0.00     0.167 C 
BRANCH   9  10
ATOM     10  N   UNL d   1      15.485  11.802  -1.024  0.00  0.00    -0.111 N 
ATOM     11  O   UNL d   1      15.581  11.816  -0.205  0.00  0.00    -0.532 OA
ATOM     12  O   UNL d   1      16.138  11.809  -1.516  0.00  0.00    -0.532 OA
ENDBRANCH   9  10
ENDBRANCH   1   9
BRANCH   1  13
ATOM     13  C   UNL d   1      13.962  12.519  -2.337  0.00  0.00     0.019 A 
ATOM     14  C   UNL d   1      13.916  13.226  -2.772  0.00  0.00     0.004 A 
ATOM     15  C   UNL d   1      13.519  13.216  -3.484  0.00  0.00     0.024 A 
ATOM     16  C   UNL d   1      13.174  12.507  -3.755  0.00  0.00     0.094 A 
ATOM     17  C   UNL d   1      13.227  11.837  -3.326  0.00  0.00     0.024 A 
ATOM     18  C   UNL d   1      13.624  11.829  -2.605  0.00  0.00     0.004 A 
BRANCH  16  19
ATOM     19  O   UNL d   1      12.770  12.506  -4.486  0.00  0.00    -0.328 OA
ATOM     20  C   UNL d   1      13.015  12.000  -5.103  0.00  0.00     0.181 C 
ENDBRANCH  16  19
ENDBRANCH   1  13
TORSDOF 5
ENDMDL
MODEL 2
REMARK VINA RESULT:      20.8      1.375      3.168
REMARK  5 active torsions:
REMARK  status: ('A' for Active; 'I' for Inactive)
REMARK    1  A    between atoms: C_3  and  N_1 
REMARK    2  A    between atoms: C_6  and  C_3 
REMARK    3  A    between atoms: C_9  and  C_3 
REMARK    4  A    between atoms: N_5  and  C_6 
REMARK    5  A    between atoms: O_18  and  C_14 
ROOT
ATOM      1  C   UNL d   1      14.649  12.400  -1.168  0.00  0.00     0.106 C 
ENDROOT
BRANCH   1   2
ATOM      2  N   UNL d   1      14.135  12.212  -1.799  0.00  0.00    -0.228 N 
ATOM      3  N   UNL d   1      14.229  12.260  -2.615  0.00  0.00    -0.165 NA
ATOM      4  C   UNL d   1      13.519  11.992  -2.952  0.00  0.00     0.103 A 
ATOM      5  C   UNL d   1      13.340  11.936  -3.756  0.00  0.00     0.022 C 
ATOM      6  C   UNL d   1      13.008  11.786  -2.331  0.00  0.00     0.040 A 
ATOM      7  C   UNL d   1      13.383  11.920  -1.635  0.00  0.00     0.085 A 
ATOM      8  C   UNL d   1      13.049  11.780  -0.877  0.00  0.00     0.021 C 
ENDBRANCH   1   2
BRANCH   1   9
ATOM      9  C   UNL d   1      15.070  11.782  -0.793  0.00  0.00     0.167 C 
BRANCH   9  10
ATOM     10  N   UNL d   1      15.889  11.791  -0.767  0.00  0.00    -0.111 N 
ATOM     11  O   UNL d   1      16.323  11.795  -1.467  0.00  0.00    -0.532 OA
ATOM     12  O   UNL d   1      16.272  11.798  -0.044  0.00  0.00    -0.532 OA
ENDBRANCH   9  10
ENDBRANCH   1   9
BRANCH   1  13
ATOM     13  C   UNL d   1      14.735  13.193  -0.921  0.00  0.00     0.019 A 
ATOM     14  C   UNL d   1      15.246  13.719  -1.313  0.00  0.00     0.004 A 
ATOM     15  C   UNL d   1      15.298  14.484  -1.038  0.00  0.00     0.024 A 
ATOM     16  C   UNL d   1      14.844  14.719  -0.380  0.00  0.00     0.094 A 
ATOM     17  C   UNL d   1      14.357  14.203  -0.015  0.00  0.00     0.024 A 
ATOM     18  C   UNL d   1      14.292  13.426  -0.279  0.00  0.00     0.004 A 
BRANCH  16  19
ATOM     19  O   UNL d   1      14.903  15.505  -0.105  0.00  0.00    -0.328 OA
ATOM     20  C   UNL d   1      15.056  16.129  -0.638  0.00  0.00     0.181 C 
ENDBRANCH  16  19
ENDBRANCH   1  13
TORSDOF 5
ENDMDL
