MODEL 1
REMARK VINA RESULT:      36.3      0.000      0.000
REMARK  4 active torsions:
REMARK  status: ('A' for Active; 'I' for Inactive)
REMARK    1  A    between atoms: O_8  and  C_1 
REMARK    2  A    between atoms: C_9  and  C_5 
REMARK    3  A    between atoms: C_11  and  O_8 
REMARK    4  A    between atoms: N_12  and  C_9 
ROOT
ATOM      1  C   UNL d   1      45.452 -14.882  43.590  0.00  0.00     0.161 A 
ATOM      2  C   UNL d   1      45.942 -16.471  43.670  0.00  0.00     0.108 A 
ATOM      3  C   UNL d   1      45.465 -16.146  44.280  0.00  0.00     0.064 A 
ATOM      4  C   UNL d   1      45.223 -15.354  44.237  0.00  0.00     0.222 A 
ATOM      5  C   UNL d   1      46.182 -17.251  43.709  0.00  0.00     0.079 A 
ATOM      6  O   UNL d   1      46.169 -15.996  43.026  0.00  0.00    -0.305 OA
ATOM      7  C   UNL d   1      45.924 -15.202  42.986  0.00  0.00     0.126 A 
ATOM      8  C   UNL d   1      45.247 -16.627  44.912  0.00  0.00     0.009 A 
ATOM      9  C   UNL d   1      45.962 -17.725  44.342  0.00  0.00     0.199 A 
ATOM     10  O   UNL d   1      44.753 -15.035  44.838  0.00  0.00    -0.284 OA
ATOM     11  C   UNL d   1      45.492 -17.410  44.944  0.00  0.00     0.042 A 
ATOM     12  O   UNL d   1      46.207 -18.512  44.377  0.00  0.00    -0.286 OA
ATOM     13  C   UNL d   1      46.153 -14.734  42.342  0.00  0.00     0.029 C 
ENDROOT
BRANCH   1  14
ATOM     14  O   UNL d   1      45.207 -14.095  43.555  0.00  0.00    -0.301 OA
BRANCH  14  15
ATOM     15  C   UNL d   1      45.596 -13.512  43.993  0.00  0.00     0.106 A 
ATOM     16  C   UNL d   1      45.372 -12.728  43.918  0.00  0.00     0.057 A 
ATOM     17 BR   UNL d   1      44.759 -12.515  43.407  0.00  0.00    -0.047 Br
ATOM     18  C   UNL d   1      45.764 -12.147  44.358  0.00  0.00     0.009 A 
ATOM     19  C   UNL d   1      46.380 -12.357  44.872  0.00  0.00     0.001 A 
ATOM     20  C   UNL d   1      46.600 -13.153  44.942  0.00  0.00     0.002 A 
ATOM     21  C   UNL d   1      46.208 -13.727  44.503  0.00  0.00     0.025 A 
ENDBRANCH  14  15
ENDBRANCH   1  14
BRANCH   5  22
ATOM     22  C   UNL d   1      46.645 -17.561  43.115  0.00  0.00     0.085 C 
BRANCH  22  23
ATOM     23  N   UNL d   1      46.497 -18.243  42.693  0.00  0.00    -0.302 N 
ATOM     24  C   UNL d   1      46.305 -18.286  41.903  0.00  0.00     0.080 A 
ATOM     25  C   UNL d   1      46.206 -19.061  41.715  0.00  0.00     0.021 A 
ATOM     26  C   UNL d   1      46.333 -19.499  42.369  0.00  0.00     0.021 A 
ATOM     27  C   UNL d   1      46.516 -18.989  42.987  0.00  0.00     0.080 A 
ENDBRANCH  22  23
ENDBRANCH   5  22
TORSDOF 4
ENDMDL
