MODEL 1
REMARK VINA RESULT:      -3.2      0.000      0.000
REMARK  3 active torsions:
REMARK  status: ('A' for Active; 'I' for Inactive)
REMARK    1  A    between atoms: C_2  and  C_1 
REMARK       I    between atoms: N_5  and  C_2 
REMARK    2  A    between atoms: C_10  and  N_5 
REMARK    3  A    between atoms: O_16  and  C_11 
ROOT
ATOM      1  C   UNL d   1      32.974  20.520 -22.382  0.00  0.00     0.281 C 
ATOM      2  N   UNL d   1      32.667  20.423 -21.625  0.00  0.00    -0.208 NA
ATOM      3  O   UNL d   1      33.240  21.261 -22.628  0.00  0.00    -0.265 OA
ENDROOT
BRANCH   1   4
ATOM      4  C   UNL d   1      33.019  19.881 -22.903  0.00  0.00     0.083 A 
ATOM      5  C   UNL d   1      32.914  19.107 -22.628  0.00  0.00     0.009 A 
ATOM      6  C   UNL d   1      32.961  18.469 -23.162  0.00  0.00     0.023 A 
ATOM      7  C   UNL d   1      32.857  17.699 -22.891  0.00  0.00     0.002 A 
ATOM      8  C   UNL d   1      33.115  18.612 -23.973  0.00  0.00     0.100 A 
ATOM      9  C   UNL d   1      32.905  17.071 -23.427  0.00  0.00     0.000 A 
ATOM     10  C   UNL d   1      33.057  17.211 -24.226  0.00  0.00     0.002 A 
ATOM     11  C   UNL d   1      33.161  17.981 -24.496  0.00  0.00     0.025 A 
ATOM     12  O   UNL d   1      33.220  19.381 -24.243  0.00  0.00    -0.305 OA
ATOM     13  C   UNL d   1      33.173  20.024 -23.713  0.00  0.00     0.127 A 
ENDBRANCH   1   4
BRANCH   2  14
ATOM     14  C   UNL d   1      32.626  21.068 -21.109  0.00  0.00     0.085 A 
ATOM     15  C   UNL d   1      31.959  21.553 -21.112  0.00  0.00     0.021 A 
ATOM     16  C   UNL d   1      31.919  22.194 -20.598  0.00  0.00     0.026 A 
ATOM     17  C   UNL d   1      32.538  22.347 -20.088  0.00  0.00     0.094 A 
ATOM     18  C   UNL d   1      33.208  21.863 -20.081  0.00  0.00     0.026 A 
ATOM     19  C   UNL d   1      33.241  21.220 -20.601  0.00  0.00     0.021 A 
BRANCH  17  20
ATOM     20  O   UNL d   1      32.505  22.990 -19.568  0.00  0.00    -0.328 OA
ATOM     21  C   UNL d   1      33.103  23.545 -19.556  0.00  0.00     0.181 C 
ENDBRANCH  17  20
ENDBRANCH   2  14
TORSDOF 3
ENDMDL
MODEL 2
REMARK VINA RESULT:      -2.7      1.487      4.961
REMARK  3 active torsions:
REMARK  status: ('A' for Active; 'I' for Inactive)
REMARK    1  A    between atoms: C_2  and  C_1 
REMARK       I    between atoms: N_5  and  C_2 
REMARK    2  A    between atoms: C_10  and  N_5 
REMARK    3  A    between atoms: O_16  and  C_11 
ROOT
ATOM      1  C   UNL d   1      32.937  19.382 -22.562  0.00  0.00     0.281 C 
ATOM      2  N   UNL d   1      32.598  19.254 -23.300  0.00  0.00    -0.208 NA
ATOM      3  O   UNL d   1      33.241  18.747 -22.132  0.00  0.00    -0.265 OA
ENDROOT
BRANCH   1   4
ATOM      4  C   UNL d   1      32.977  20.142 -22.243  0.00  0.00     0.083 A 
ATOM      5  C   UNL d   1      33.070  20.801 -22.737  0.00  0.00     0.009 A 
ATOM      6  C   UNL d   1      33.110  21.564 -22.406  0.00  0.00     0.023 A 
ATOM      7  C   UNL d   1      33.202  22.219 -22.895  0.00  0.00     0.002 A 
ATOM      8  C   UNL d   1      33.056  21.664 -21.576  0.00  0.00     0.100 A 
ATOM      9  C   UNL d   1      33.241  22.973 -22.559  0.00  0.00     0.000 A 
ATOM     10  C   UNL d   1      33.188  23.072 -21.741  0.00  0.00     0.002 A 
ATOM     11  C   UNL d   1      33.095  22.417 -21.253  0.00  0.00     0.025 A 
ATOM     12  O   UNL d   1      32.963  21.008 -21.088  0.00  0.00    -0.305 OA
ATOM     13  C   UNL d   1      32.923  20.242 -21.414  0.00  0.00     0.127 A 
ENDBRANCH   1   4
BRANCH   2  14
ATOM     14  C   UNL d   1      32.561  18.489 -23.613  0.00  0.00     0.085 A 
ATOM     15  C   UNL d   1      33.205  18.185 -24.028  0.00  0.00     0.021 A 
ATOM     16  C   UNL d   1      33.166  17.424 -24.338  0.00  0.00     0.026 A 
ATOM     17  C   UNL d   1      32.493  16.974 -24.234  0.00  0.00     0.094 A 
ATOM     18  C   UNL d   1      31.845  17.276 -23.818  0.00  0.00     0.026 A 
ATOM     19  C   UNL d   1      31.892  18.042 -23.509  0.00  0.00     0.021 A 
BRANCH  17  20
ATOM     20  O   UNL d   1      32.447  16.208 -24.543  0.00  0.00    -0.328 OA
ATOM     21  C   UNL d   1      32.454  15.559 -24.048  0.00  0.00     0.181 C 
ENDBRANCH  17  20
ENDBRANCH   2  14
TORSDOF 3
ENDMDL
MODEL 3
REMARK VINA RESULT:      -1.7      1.374      2.373
REMARK  3 active torsions:
REMARK  status: ('A' for Active; 'I' for Inactive)
REMARK    1  A    between atoms: C_2  and  C_1 
REMARK       I    between atoms: N_5  and  C_2 
REMARK    2  A    between atoms: C_10  and  N_5 
REMARK    3  A    between atoms: O_16  and  C_11 
ROOT
ATOM      1  C   UNL d   1      33.101  21.493 -20.325  0.00  0.00     0.281 C 
ATOM      2  N   UNL d   1      32.951  22.294 -20.216  0.00  0.00    -0.208 NA
ATOM      3  O   UNL d   1      33.240  21.006 -19.673  0.00  0.00    -0.265 OA
ENDROOT
BRANCH   1   4
ATOM      4  C   UNL d   1      33.116  21.166 -21.083  0.00  0.00     0.083 A 
ATOM      5  C   UNL d   1      33.156  20.345 -21.186  0.00  0.00     0.009 A 
ATOM      6  C   UNL d   1      33.170  20.025 -21.955  0.00  0.00     0.023 A 
ATOM      7  C   UNL d   1      33.210  19.210 -22.059  0.00  0.00     0.002 A 
ATOM      8  C   UNL d   1      33.143  20.533 -22.620  0.00  0.00     0.100 A 
ATOM      9  C   UNL d   1      33.223  18.900 -22.826  0.00  0.00     0.000 A 
ATOM     10  C   UNL d   1      33.197  19.400 -23.481  0.00  0.00     0.002 A 
ATOM     11  C   UNL d   1      33.157  20.215 -23.377  0.00  0.00     0.025 A 
ATOM     12  O   UNL d   1      33.103  21.348 -22.515  0.00  0.00    -0.305 OA
ATOM     13  C   UNL d   1      33.089  21.674 -21.748  0.00  0.00     0.127 A 
ENDBRANCH   1   4
BRANCH   2  14
ATOM     14  C   UNL d   1      32.938  22.614 -19.453  0.00  0.00     0.085 A 
ATOM     15  C   UNL d   1      32.618  23.363 -19.328  0.00  0.00     0.021 A 
ATOM     16  C   UNL d   1      32.607  23.679 -18.569  0.00  0.00     0.026 A 
ATOM     17  C   UNL d   1      32.911  23.252 -17.944  0.00  0.00     0.094 A 
ATOM     18  C   UNL d   1      33.233  22.499 -18.065  0.00  0.00     0.026 A 
ATOM     19  C   UNL d   1      33.241  22.188 -18.832  0.00  0.00     0.021 A 
BRANCH  17  20
ATOM     20  O   UNL d   1      32.903  23.563 -17.177  0.00  0.00    -0.328 OA
ATOM     21  C   UNL d   1      32.866  23.069 -16.529  0.00  0.00     0.181 C 
ENDBRANCH  17  20
ENDBRANCH   2  14
TORSDOF 3
ENDMDL
MODEL 4
REMARK VINA RESULT:      -0.5      4.232      6.034
REMARK  3 active torsions:
REMARK  status: ('A' for Active; 'I' for Inactive)
REMARK    1  A    between atoms: C_2  and  C_1 
REMARK       I    between atoms: N_5  and  C_2 
REMARK    2  A    between atoms: C_10  and  N_5 
REMARK    3  A    between atoms: O_16  and  C_11 
ROOT
ATOM      1  C   UNL d   1      30.199  16.394 -23.875  0.00  0.00     0.281 C 
ATOM      2  N   UNL d   1      29.492  16.766 -24.070  0.00  0.00    -0.208 NA
ATOM      3  O   UNL d   1      30.193  15.724 -23.392  0.00  0.00    -0.265 OA
ENDROOT
BRANCH   1   4
ATOM      4  C   UNL d   1      30.919  16.682 -24.157  0.00  0.00     0.083 A 
ATOM      5  C   UNL d   1      31.056  17.498 -24.201  0.00  0.00     0.009 A 
ATOM      6  C   UNL d   1      31.786  17.779 -24.488  0.00  0.00     0.023 A 
ATOM      7  C   UNL d   1      31.924  18.589 -24.532  0.00  0.00     0.002 A 
ATOM      8  C   UNL d   1      32.377  17.239 -24.730  0.00  0.00     0.100 A 
ATOM      9  C   UNL d   1      32.652  18.861 -24.817  0.00  0.00     0.000 A 
ATOM     10  C   UNL d   1      33.234  18.328 -25.056  0.00  0.00     0.002 A 
ATOM     11  C   UNL d   1      33.096  17.519 -25.012  0.00  0.00     0.025 A 
ATOM     12  O   UNL d   1      32.239  16.429 -24.686  0.00  0.00    -0.305 OA
ATOM     13  C   UNL d   1      31.510  16.142 -24.400  0.00  0.00     0.127 A 
ENDBRANCH   1   4
BRANCH   2  14
ATOM     14  C   UNL d   1      28.775  16.471 -23.783  0.00  0.00     0.085 A 
ATOM     15  C   UNL d   1      28.486  15.752 -24.064  0.00  0.00     0.021 A 
ATOM     16  C   UNL d   1      27.772  15.460 -23.777  0.00  0.00     0.026 A 
ATOM     17  C   UNL d   1      27.354  15.881 -23.217  0.00  0.00     0.094 A 
ATOM     18  C   UNL d   1      27.640  16.603 -22.933  0.00  0.00     0.026 A 
ATOM     19  C   UNL d   1      28.359  16.890 -23.226  0.00  0.00     0.021 A 
BRANCH  17  20
ATOM     20  O   UNL d   1      26.636  15.594 -22.924  0.00  0.00    -0.328 OA
ATOM     21  C   UNL d   1      26.008  15.453 -23.426  0.00  0.00     0.181 C 
ENDBRANCH  17  20
ENDBRANCH   2  14
TORSDOF 3
ENDMDL
MODEL 5
REMARK VINA RESULT:      -0.3      3.015      5.670
REMARK  3 active torsions:
REMARK  status: ('A' for Active; 'I' for Inactive)
REMARK    1  A    between atoms: C_2  and  C_1 
REMARK       I    between atoms: N_5  and  C_2 
REMARK    2  A    between atoms: C_10  and  N_5 
REMARK    3  A    between atoms: O_16  and  C_11 
ROOT
ATOM      1  C   UNL d   1      32.232  23.219 -20.060  0.00  0.00     0.281 C 
ATOM      2  N   UNL d   1      32.894  22.929 -20.454  0.00  0.00    -0.208 NA
ATOM      3  O   UNL d   1      31.590  23.509 -20.489  0.00  0.00    -0.265 OA
ENDROOT
BRANCH   1   4
ATOM      4  C   UNL d   1      32.202  23.223 -19.235  0.00  0.00     0.083 A 
ATOM      5  C   UNL d   1      32.737  22.772 -18.792  0.00  0.00     0.009 A 
ATOM      6  C   UNL d   1      32.698  22.784 -17.961  0.00  0.00     0.023 A 
ATOM      7  C   UNL d   1      33.229  22.335 -17.519  0.00  0.00     0.002 A 
ATOM      8  C   UNL d   1      32.121  23.250 -17.574  0.00  0.00     0.100 A 
ATOM      9  C   UNL d   1      33.185  22.352 -16.694  0.00  0.00     0.000 A 
ATOM     10  C   UNL d   1      32.615  22.812 -16.313  0.00  0.00     0.002 A 
ATOM     11  C   UNL d   1      32.085  23.260 -16.755  0.00  0.00     0.025 A 
ATOM     12  O   UNL d   1      31.590  23.698 -18.016  0.00  0.00    -0.305 OA
ATOM     13  C   UNL d   1      31.624  23.690 -18.849  0.00  0.00     0.127 A 
ENDBRANCH   1   4
BRANCH   2  14
ATOM     14  C   UNL d   1      32.916  22.927 -21.281  0.00  0.00     0.085 A 
ATOM     15  C   UNL d   1      33.065  23.629 -21.688  0.00  0.00     0.021 A 
ATOM     16  C   UNL d   1      33.087  23.625 -22.510  0.00  0.00     0.026 A 
ATOM     17  C   UNL d   1      32.961  22.930 -22.919  0.00  0.00     0.094 A 
ATOM     18  C   UNL d   1      32.812  22.224 -22.514  0.00  0.00     0.026 A 
ATOM     19  C   UNL d   1      32.791  22.236 -21.688  0.00  0.00     0.021 A 
BRANCH  17  20
ATOM     20  O   UNL d   1      32.982  22.918 -23.746  0.00  0.00    -0.328 OA
ATOM     21  C   UNL d   1      33.044  23.613 -24.170  0.00  0.00     0.181 C 
ENDBRANCH  17  20
ENDBRANCH   2  14
TORSDOF 3
ENDMDL
