MODEL 1
REMARK VINA RESULT:      19.4      0.000      0.000
REMARK  2 active torsions:
REMARK  status: ('A' for Active; 'I' for Inactive)
REMARK       I    between atoms: C_3  and  N_1 
REMARK    1  A    between atoms: C_7  and  C_3 
REMARK    2  A    between atoms: O_15  and  C_11 
ROOT
ATOM      1  N   UNL d   1      57.253  49.698  50.776  0.00  0.00    -0.195 N 
ATOM      2  N   UNL d   1      57.325  49.694  49.946  0.00  0.00    -0.163 NA
ATOM      3  C   UNL d   1      57.857  49.701  51.334  0.00  0.00     0.280 C 
ATOM      4  C   UNL d   1      56.489  49.698  50.969  0.00  0.00     0.088 A 
ATOM      5  C   UNL d   1      56.034  49.694  50.272  0.00  0.00     0.040 A 
ATOM      6  C   UNL d   1      56.556  49.691  49.645  0.00  0.00     0.103 A 
ATOM      7  O   UNL d   1      57.667  49.705  52.126  0.00  0.00    -0.265 OA
ATOM      8  C   UNL d   1      56.181  49.702  51.762  0.00  0.00     0.021 C 
ATOM      9  C   UNL d   1      56.332  49.687  48.833  0.00  0.00     0.022 C 
ENDROOT
BRANCH   3  10
ATOM     10  C   UNL d   1      58.658  49.701  51.108  0.00  0.00     0.058 A 
ATOM     11  C   UNL d   1      58.856  49.707  50.308  0.00  0.00     0.007 A 
ATOM     12  C   UNL d   1      59.643  49.707  50.073  0.00  0.00     0.024 A 
ATOM     13  C   UNL d   1      60.237  49.700  50.638  0.00  0.00     0.094 A 
ATOM     14  C   UNL d   1      60.047  49.694  51.441  0.00  0.00     0.024 A 
ATOM     15  C   UNL d   1      59.265  49.694  51.686  0.00  0.00     0.007 A 
BRANCH  13  16
ATOM     16  O   UNL d   1      61.032  49.700  50.385  0.00  0.00    -0.328 OA
ATOM     17  C   UNL d   1      61.650  49.665  50.947  0.00  0.00     0.181 C 
ENDBRANCH  13  16
ENDBRANCH   3  10
TORSDOF 2
ENDMDL
MODEL 2
REMARK VINA RESULT:      21.4      1.353      3.488
REMARK  2 active torsions:
REMARK  status: ('A' for Active; 'I' for Inactive)
REMARK       I    between atoms: C_3  and  N_1 
REMARK    1  A    between atoms: C_7  and  C_3 
REMARK    2  A    between atoms: O_15  and  C_11 
ROOT
ATOM      1  N   UNL d   1      59.878  49.687  51.121  0.00  0.00    -0.195 N 
ATOM      2  N   UNL d   1      60.030  49.683  50.303  0.00  0.00    -0.163 NA
ATOM      3  C   UNL d   1      59.148  49.694  51.499  0.00  0.00     0.280 C 
ATOM      4  C   UNL d   1      60.564  49.685  51.511  0.00  0.00     0.088 A 
ATOM      5  C   UNL d   1      61.188  49.678  50.959  0.00  0.00     0.040 A 
ATOM      6  C   UNL d   1      60.851  49.677  50.216  0.00  0.00     0.103 A 
ATOM      7  O   UNL d   1      59.121  49.698  52.313  0.00  0.00    -0.265 OA
ATOM      8  C   UNL d   1      60.650  49.688  52.357  0.00  0.00     0.021 C 
ATOM      9  C   UNL d   1      61.282  49.670  49.493  0.00  0.00     0.022 C 
ENDROOT
BRANCH   3  10
ATOM     10  C   UNL d   1      58.436  49.697  51.069  0.00  0.00     0.058 A 
ATOM     11  C   UNL d   1      58.458  49.698  50.245  0.00  0.00     0.007 A 
ATOM     12  C   UNL d   1      57.761  49.701  49.809  0.00  0.00     0.024 A 
ATOM     13  C   UNL d   1      57.038  49.703  50.196  0.00  0.00     0.094 A 
ATOM     14  C   UNL d   1      57.008  49.701  51.020  0.00  0.00     0.024 A 
ATOM     15  C   UNL d   1      57.697  49.698  51.464  0.00  0.00     0.007 A 
BRANCH  13  16
ATOM     16  O   UNL d   1      56.339  49.705  49.741  0.00  0.00    -0.328 OA
ATOM     17  C   UNL d   1      56.383  49.707  48.905  0.00  0.00     0.181 C 
ENDBRANCH  13  16
ENDBRANCH   3  10
TORSDOF 2
ENDMDL
