MODEL 1
REMARK VINA RESULT:      -8.6      0.000      0.000
REMARK  1 active torsions:
REMARK  status: ('A' for Active; 'I' for Inactive)
REMARK       I    between atoms: N_2  and  C_1 
REMARK       I    between atoms: N_4  and  C_1 
REMARK    1  A    between atoms: C_5  and  N_3 
ROOT
ATOM      1  C   UNL d   1      53.411  32.776  53.891  0.00  0.00     0.339 C 
ATOM      2  N   UNL d   1      52.731  33.107  53.563  0.00  0.00    -0.254 N 
ATOM      3  N   UNL d   1      51.385  33.762  52.911  0.00  0.00    -0.301 N 
ATOM      4  N   UNL d   1      53.893  33.220  54.391  0.00  0.00    -0.258 N 
ATOM      5  O   UNL d   1      53.608  31.993  53.717  0.00  0.00    -0.245 OA
ATOM      6  C   UNL d   1      52.256  32.662  53.067  0.00  0.00     0.104 A 
ATOM      7  C   UNL d   1      52.533  33.898  53.739  0.00  0.00     0.104 A 
ATOM      8  C   UNL d   1      51.861  34.225  53.414  0.00  0.00     0.100 A 
ATOM      9  C   UNL d   1      51.584  32.989  52.742  0.00  0.00     0.100 A 
ATOM     10  C   UNL d   1      54.581  32.961  54.753  0.00  0.00     0.085 A 
ATOM     11  C   UNL d   1      53.765  34.003  54.611  0.00  0.00     0.085 A 
ATOM     12  C   UNL d   1      54.373  34.227  55.110  0.00  0.00     0.021 A 
ATOM     13  C   UNL d   1      54.881  33.587  55.201  0.00  0.00     0.021 A 
ENDROOT
BRANCH   3  14
ATOM     14  C   UNL d   1      50.696  34.097  52.578  0.00  0.00     0.064 A 
ATOM     15  C   UNL d   1      50.180  34.537  53.054  0.00  0.00     0.018 A 
ATOM     16  C   UNL d   1      49.491  34.874  52.726  0.00  0.00     0.001 A 
ATOM     17  C   UNL d   1      48.977  35.310  53.194  0.00  0.00     0.000 C 
ATOM     18  C   UNL d   1      49.319  34.765  51.908  0.00  0.00     0.000 A 
ATOM     19  C   UNL d   1      49.846  34.319  51.433  0.00  0.00     0.002 A 
ATOM     20  C   UNL d   1      48.641  35.095  51.580  0.00  0.00     0.000 C 
ATOM     21  C   UNL d   1      50.531  33.985  51.765  0.00  0.00     0.018 A 
ENDBRANCH   3  14
TORSDOF 1
ENDMDL
MODEL 2
REMARK VINA RESULT:      -8.4      2.301      3.692
REMARK  1 active torsions:
REMARK  status: ('A' for Active; 'I' for Inactive)
REMARK       I    between atoms: N_2  and  C_1 
REMARK       I    between atoms: N_4  and  C_1 
REMARK    1  A    between atoms: C_5  and  N_3 
ROOT
ATOM      1  C   UNL d   1      53.165  30.022  53.392  0.00  0.00     0.339 C 
ATOM      2  N   UNL d   1      53.166  30.834  53.529  0.00  0.00    -0.254 N 
ATOM      3  N   UNL d   1      53.169  32.445  53.801  0.00  0.00    -0.301 N 
ATOM      4  N   UNL d   1      53.279  29.492  54.014  0.00  0.00    -0.258 N 
ATOM      5  O   UNL d   1      53.049  29.739  52.625  0.00  0.00    -0.245 OA
ATOM      6  C   UNL d   1      53.053  31.356  52.910  0.00  0.00     0.104 A 
ATOM      7  C   UNL d   1      53.284  31.120  54.305  0.00  0.00     0.104 A 
ATOM      8  C   UNL d   1      53.285  31.924  54.441  0.00  0.00     0.100 A 
ATOM      9  C   UNL d   1      53.054  32.160  53.045  0.00  0.00     0.100 A 
ATOM     10  C   UNL d   1      53.290  28.675  53.955  0.00  0.00     0.085 A 
ATOM     11  C   UNL d   1      53.400  29.695  54.802  0.00  0.00     0.085 A 
ATOM     12  C   UNL d   1      53.487  29.004  55.229  0.00  0.00     0.021 A 
ATOM     13  C   UNL d   1      53.420  28.370  54.711  0.00  0.00     0.021 A 
ENDROOT
BRANCH   3  14
ATOM     14  C   UNL d   1      53.170  33.268  53.940  0.00  0.00     0.064 A 
ATOM     15  C   UNL d   1      52.578  33.743  53.607  0.00  0.00     0.018 A 
ATOM     16  C   UNL d   1      52.575  34.567  53.744  0.00  0.00     0.001 A 
ATOM     17  C   UNL d   1      51.991  35.041  53.416  0.00  0.00     0.000 C 
ATOM     18  C   UNL d   1      53.176  34.915  54.220  0.00  0.00     0.000 A 
ATOM     19  C   UNL d   1      53.771  34.428  54.553  0.00  0.00     0.002 A 
ATOM     20  C   UNL d   1      53.177  35.727  54.357  0.00  0.00     0.000 C 
ATOM     21  C   UNL d   1      53.770  33.609  54.415  0.00  0.00     0.018 A 
ENDBRANCH   3  14
TORSDOF 1
ENDMDL
MODEL 3
REMARK VINA RESULT:      -8.4      1.375      4.638
REMARK  1 active torsions:
REMARK  status: ('A' for Active; 'I' for Inactive)
REMARK       I    between atoms: N_2  and  C_1 
REMARK       I    between atoms: N_4  and  C_1 
REMARK    1  A    between atoms: C_5  and  N_3 
ROOT
ATOM      1  C   UNL d   1      49.922  34.518  52.004  0.00  0.00     0.339 C 
ATOM      2  N   UNL d   1      50.598  34.348  52.444  0.00  0.00    -0.254 N 
ATOM      3  N   UNL d   1      51.936  34.011  53.316  0.00  0.00    -0.301 N 
ATOM      4  N   UNL d   1      49.294  34.930  52.343  0.00  0.00    -0.258 N 
ATOM      5  O   UNL d   1      49.877  34.273  51.216  0.00  0.00    -0.245 OA
ATOM      6  C   UNL d   1      51.218  33.939  52.102  0.00  0.00     0.104 A 
ATOM      7  C   UNL d   1      50.643  34.596  53.240  0.00  0.00     0.104 A 
ATOM      8  C   UNL d   1      51.311  34.428  53.675  0.00  0.00     0.100 A 
ATOM      9  C   UNL d   1      51.886  33.771  52.537  0.00  0.00     0.100 A 
ATOM     10  C   UNL d   1      48.594  35.134  51.970  0.00  0.00     0.085 A 
ATOM     11  C   UNL d   1      49.264  35.206  53.118  0.00  0.00     0.085 A 
ATOM     12  C   UNL d   1      48.544  35.582  53.223  0.00  0.00     0.021 A 
ATOM     13  C   UNL d   1      48.126  35.540  52.517  0.00  0.00     0.021 A 
ENDROOT
BRANCH   3  14
ATOM     14  C   UNL d   1      52.621  33.838  53.761  0.00  0.00     0.064 A 
ATOM     15  C   UNL d   1      52.928  33.069  53.764  0.00  0.00     0.018 A 
ATOM     16  C   UNL d   1      53.612  32.891  54.209  0.00  0.00     0.001 A 
ATOM     17  C   UNL d   1      53.920  32.130  54.214  0.00  0.00     0.000 C 
ATOM     18  C   UNL d   1      53.991  33.497  54.655  0.00  0.00     0.000 A 
ATOM     19  C   UNL d   1      53.675  34.273  54.647  0.00  0.00     0.002 A 
ATOM     20  C   UNL d   1      54.666  33.327  55.094  0.00  0.00     0.000 C 
ATOM     21  C   UNL d   1      52.993  34.445  54.203  0.00  0.00     0.018 A 
ENDBRANCH   3  14
TORSDOF 1
ENDMDL
MODEL 4
REMARK VINA RESULT:      -8.4      2.468      4.149
REMARK  1 active torsions:
REMARK  status: ('A' for Active; 'I' for Inactive)
REMARK       I    between atoms: N_2  and  C_1 
REMARK       I    between atoms: N_4  and  C_1 
REMARK    1  A    between atoms: C_5  and  N_3 
ROOT
ATOM      1  C   UNL d   1      53.961  34.186  54.750  0.00  0.00     0.339 C 
ATOM      2  N   UNL d   1      53.786  33.423  54.492  0.00  0.00    -0.254 N 
ATOM      3  N   UNL d   1      53.440  31.912  53.980  0.00  0.00    -0.301 N 
ATOM      4  N   UNL d   1      53.450  34.811  54.586  0.00  0.00    -0.258 N 
ATOM      5  O   UNL d   1      54.656  34.322  55.177  0.00  0.00    -0.245 OA
ATOM      6  C   UNL d   1      54.297  32.806  54.657  0.00  0.00     0.104 A 
ATOM      7  C   UNL d   1      53.084  33.286  54.061  0.00  0.00     0.104 A 
ATOM      8  C   UNL d   1      52.911  32.532  53.805  0.00  0.00     0.100 A 
ATOM      9  C   UNL d   1      54.124  32.052  54.401  0.00  0.00     0.100 A 
ATOM     10  C   UNL d   1      53.556  35.592  54.809  0.00  0.00     0.085 A 
ATOM     11  C   UNL d   1      52.743  34.756  54.169  0.00  0.00     0.085 A 
ATOM     12  C   UNL d   1      52.412  35.504  54.135  0.00  0.00     0.021 A 
ATOM     13  C   UNL d   1      52.911  36.024  54.528  0.00  0.00     0.021 A 
ENDROOT
BRANCH   3  14
ATOM     14  C   UNL d   1      53.262  31.139  53.718  0.00  0.00     0.064 A 
ATOM     15  C   UNL d   1      53.394  30.493  54.220  0.00  0.00     0.018 A 
ATOM     16  C   UNL d   1      53.218  29.719  53.963  0.00  0.00     0.001 A 
ATOM     17  C   UNL d   1      53.347  29.076  54.458  0.00  0.00     0.000 C 
ATOM     18  C   UNL d   1      52.906  29.594  53.190  0.00  0.00     0.000 A 
ATOM     19  C   UNL d   1      52.776  30.252  52.688  0.00  0.00     0.002 A 
ATOM     20  C   UNL d   1      52.732  28.832  52.932  0.00  0.00     0.000 C 
ATOM     21  C   UNL d   1      52.952  31.021  52.949  0.00  0.00     0.018 A 
ENDBRANCH   3  14
TORSDOF 1
ENDMDL
MODEL 5
REMARK VINA RESULT:      -8.2      2.216      5.124
REMARK  1 active torsions:
REMARK  status: ('A' for Active; 'I' for Inactive)
REMARK       I    between atoms: N_2  and  C_1 
REMARK       I    between atoms: N_4  and  C_1 
REMARK    1  A    between atoms: C_5  and  N_3 
ROOT
ATOM      1  C   UNL d   1      48.066  35.199  51.628  0.00  0.00     0.339 C 
ATOM      2  N   UNL d   1      48.775  34.925  51.946  0.00  0.00    -0.254 N 
ATOM      3  N   UNL d   1      50.181  34.381  52.576  0.00  0.00    -0.301 N 
ATOM      4  N   UNL d   1      47.589  35.719  52.055  0.00  0.00    -0.258 N 
ATOM      5  O   UNL d   1      47.834  34.949  50.876  0.00  0.00    -0.245 OA
ATOM      6  C   UNL d   1      49.245  34.409  51.519  0.00  0.00     0.104 A 
ATOM      7  C   UNL d   1      49.010  35.178  52.706  0.00  0.00     0.104 A 
ATOM      8  C   UNL d   1      49.711  34.906  53.021  0.00  0.00     0.100 A 
ATOM      9  C   UNL d   1      49.946  34.138  51.833  0.00  0.00     0.100 A 
ATOM     10  C   UNL d   1      46.875  36.032  51.806  0.00  0.00     0.085 A 
ATOM     11  C   UNL d   1      47.752  36.012  52.806  0.00  0.00     0.085 A 
ATOM     12  C   UNL d   1      47.137  36.507  53.021  0.00  0.00     0.021 A 
ATOM     13  C   UNL d   1      46.592  36.523  52.407  0.00  0.00     0.021 A 
ENDROOT
BRANCH   3  14
ATOM     14  C   UNL d   1      50.899  34.103  52.898  0.00  0.00     0.064 A 
ATOM     15  C   UNL d   1      51.549  34.614  52.957  0.00  0.00     0.018 A 
ATOM     16  C   UNL d   1      52.269  34.341  53.278  0.00  0.00     0.001 A 
ATOM     17  C   UNL d   1      52.915  34.844  53.339  0.00  0.00     0.000 C 
ATOM     18  C   UNL d   1      52.336  33.544  53.542  0.00  0.00     0.000 A 
ATOM     19  C   UNL d   1      51.674  33.033  53.479  0.00  0.00     0.002 A 
ATOM     20  C   UNL d   1      53.044  33.270  53.860  0.00  0.00     0.000 C 
ATOM     21  C   UNL d   1      50.959  33.310  53.159  0.00  0.00     0.018 A 
ENDBRANCH   3  14
TORSDOF 1
ENDMDL
MODEL 6
REMARK VINA RESULT:      -7.5      2.263      4.189
REMARK  1 active torsions:
REMARK  status: ('A' for Active; 'I' for Inactive)
REMARK       I    between atoms: N_2  and  C_1 
REMARK       I    between atoms: N_4  and  C_1 
REMARK    1  A    between atoms: C_5  and  N_3 
ROOT
ATOM      1  C   UNL d   1      52.576  34.222  53.361  0.00  0.00     0.339 C 
ATOM      2  N   UNL d   1      52.694  33.408  53.418  0.00  0.00    -0.254 N 
ATOM      3  N   UNL d   1      52.927  31.796  53.531  0.00  0.00    -0.301 N 
ATOM      4  N   UNL d   1      52.876  34.730  53.937  0.00  0.00    -0.258 N 
ATOM      5  O   UNL d   1      52.154  34.528  52.721  0.00  0.00    -0.245 OA
ATOM      6  C   UNL d   1      52.394  32.909  52.845  0.00  0.00     0.104 A 
ATOM      7  C   UNL d   1      53.121  33.099  54.066  0.00  0.00     0.104 A 
ATOM      8  C   UNL d   1      53.238  32.295  54.122  0.00  0.00     0.100 A 
ATOM      9  C   UNL d   1      52.511  32.104  52.901  0.00  0.00     0.100 A 
ATOM     10  C   UNL d   1      52.800  35.545  53.948  0.00  0.00     0.085 A 
ATOM     11  C   UNL d   1      53.306  34.502  54.601  0.00  0.00     0.085 A 
ATOM     12  C   UNL d   1      53.494  35.178  55.022  0.00  0.00     0.021 A 
ATOM     13  C   UNL d   1      53.184  35.825  54.623  0.00  0.00     0.021 A 
ENDROOT
BRANCH   3  14
ATOM     14  C   UNL d   1      53.046  30.972  53.589  0.00  0.00     0.064 A 
ATOM     15  C   UNL d   1      53.103  30.615  54.335  0.00  0.00     0.018 A 
ATOM     16  C   UNL d   1      53.223  29.791  54.397  0.00  0.00     0.001 A 
ATOM     17  C   UNL d   1      53.280  29.433  55.134  0.00  0.00     0.000 C 
ATOM     18  C   UNL d   1      53.285  29.321  53.700  0.00  0.00     0.000 A 
ATOM     19  C   UNL d   1      53.226  29.690  52.950  0.00  0.00     0.002 A 
ATOM     20  C   UNL d   1      53.402  28.509  53.757  0.00  0.00     0.000 C 
ATOM     21  C   UNL d   1      53.107  30.510  52.892  0.00  0.00     0.018 A 
ENDBRANCH   3  14
TORSDOF 1
ENDMDL
MODEL 7
REMARK VINA RESULT:      -6.7      9.983     10.935
REMARK  1 active torsions:
REMARK  status: ('A' for Active; 'I' for Inactive)
REMARK       I    between atoms: N_2  and  C_1 
REMARK       I    between atoms: N_4  and  C_1 
REMARK    1  A    between atoms: C_5  and  N_3 
ROOT
ATOM      1  C   UNL d   1      44.996  28.934  57.623  0.00  0.00     0.339 C 
ATOM      2  N   UNL d   1      44.899  29.288  58.361  0.00  0.00    -0.254 N 
ATOM      3  N   UNL d   1      44.707  29.989  59.823  0.00  0.00    -0.301 N 
ATOM      4  N   UNL d   1      45.172  28.131  57.564  0.00  0.00    -0.258 N 
ATOM      5  O   UNL d   1      44.915  29.391  56.939  0.00  0.00    -0.245 OA
ATOM      6  C   UNL d   1      44.724  30.085  58.415  0.00  0.00     0.104 A 
ATOM      7  C   UNL d   1      44.981  28.826  59.052  0.00  0.00     0.104 A 
ATOM      8  C   UNL d   1      44.885  29.176  59.782  0.00  0.00     0.100 A 
ATOM      9  C   UNL d   1      44.628  30.435  59.145  0.00  0.00     0.100 A 
ATOM     10  C   UNL d   1      45.282  27.712  56.869  0.00  0.00     0.085 A 
ATOM     11  C   UNL d   1      45.268  27.613  58.196  0.00  0.00     0.085 A 
ATOM     12  C   UNL d   1      45.437  26.873  57.891  0.00  0.00     0.021 A 
ATOM     13  C   UNL d   1      45.447  26.928  57.071  0.00  0.00     0.021 A 
ENDROOT
BRANCH   3  14
ATOM     14  C   UNL d   1      44.609  30.348  60.571  0.00  0.00     0.064 A 
ATOM     15  C   UNL d   1      44.666  29.889  61.259  0.00  0.00     0.018 A 
ATOM     16  C   UNL d   1      44.568  30.243  62.009  0.00  0.00     0.001 A 
ATOM     17  C   UNL d   1      44.624  29.792  62.692  0.00  0.00     0.000 C 
ATOM     18  C   UNL d   1      44.411  31.069  62.065  0.00  0.00     0.000 A 
ATOM     19  C   UNL d   1      44.355  31.526  61.365  0.00  0.00     0.002 A 
ATOM     20  C   UNL d   1      44.315  31.423  62.802  0.00  0.00     0.000 C 
ATOM     21  C   UNL d   1      44.453  31.170  60.621  0.00  0.00     0.018 A 
ENDBRANCH   3  14
TORSDOF 1
ENDMDL
MODEL 8
REMARK VINA RESULT:      -6.6      9.856     10.628
REMARK  1 active torsions:
REMARK  status: ('A' for Active; 'I' for Inactive)
REMARK       I    between atoms: N_2  and  C_1 
REMARK       I    between atoms: N_4  and  C_1 
REMARK    1  A    between atoms: C_5  and  N_3 
ROOT
ATOM      1  C   UNL d   1      44.693  30.575  61.371  0.00  0.00     0.339 C 
ATOM      2  N   UNL d   1      44.688  30.442  60.558  0.00  0.00    -0.254 N 
ATOM      3  N   UNL d   1      44.680  30.178  58.946  0.00  0.00    -0.301 N 
ATOM      4  N   UNL d   1      44.619  29.946  61.899  0.00  0.00    -0.258 N 
ATOM      5  O   UNL d   1      44.771  31.346  61.657  0.00  0.00    -0.245 OA
ATOM      6  C   UNL d   1      44.762  31.069  60.038  0.00  0.00     0.104 A 
ATOM      7  C   UNL d   1      44.609  29.662  60.270  0.00  0.00     0.104 A 
ATOM      8  C   UNL d   1      44.604  29.530  59.465  0.00  0.00     0.100 A 
ATOM      9  C   UNL d   1      44.757  30.937  59.234  0.00  0.00     0.100 A 
ATOM     10  C   UNL d   1      44.615  30.000  62.716  0.00  0.00     0.085 A 
ATOM     11  C   UNL d   1      44.537  29.154  61.693  0.00  0.00     0.085 A 
ATOM     12  C   UNL d   1      44.482  28.719  62.384  0.00  0.00     0.021 A 
ATOM     13  C   UNL d   1      44.530  29.237  63.019  0.00  0.00     0.021 A 
ENDROOT
BRANCH   3  14
ATOM     14  C   UNL d   1      44.675  30.043  58.122  0.00  0.00     0.064 A 
ATOM     15  C   UNL d   1      44.888  29.299  57.826  0.00  0.00     0.018 A 
ATOM     16  C   UNL d   1      44.886  29.159  57.002  0.00  0.00     0.001 A 
ATOM     17  C   UNL d   1      45.096  28.424  56.704  0.00  0.00     0.000 C 
ATOM     18  C   UNL d   1      44.666  29.776  56.473  0.00  0.00     0.000 A 
ATOM     19  C   UNL d   1      44.451  30.526  56.781  0.00  0.00     0.002 A 
ATOM     20  C   UNL d   1      44.661  29.643  55.661  0.00  0.00     0.000 C 
ATOM     21  C   UNL d   1      44.456  30.660  57.601  0.00  0.00     0.018 A 
ENDBRANCH   3  14
TORSDOF 1
ENDMDL
MODEL 9
REMARK VINA RESULT:      -6.5     10.268     11.018
REMARK  1 active torsions:
REMARK  status: ('A' for Active; 'I' for Inactive)
REMARK       I    between atoms: N_2  and  C_1 
REMARK       I    between atoms: N_4  and  C_1 
REMARK    1  A    between atoms: C_5  and  N_3 
ROOT
ATOM      1  C   UNL d   1      44.593  30.868  61.149  0.00  0.00     0.339 C 
ATOM      2  N   UNL d   1      44.690  30.375  60.496  0.00  0.00    -0.254 N 
ATOM      3  N   UNL d   1      44.883  29.398  59.202  0.00  0.00    -0.301 N 
ATOM      4  N   UNL d   1      44.494  30.549  61.903  0.00  0.00    -0.258 N 
ATOM      5  O   UNL d   1      44.596  31.687  61.045  0.00  0.00    -0.245 OA
ATOM      6  C   UNL d   1      44.789  30.696  59.750  0.00  0.00     0.104 A 
ATOM      7  C   UNL d   1      44.687  29.547  60.602  0.00  0.00     0.104 A 
ATOM      8  C   UNL d   1      44.783  29.059  59.956  0.00  0.00     0.100 A 
ATOM      9  C   UNL d   1      44.885  30.208  59.104  0.00  0.00     0.100 A 
ATOM     10  C   UNL d   1      44.392  30.974  62.596  0.00  0.00     0.085 A 
ATOM     11  C   UNL d   1      44.479  29.748  62.087  0.00  0.00     0.085 A 
ATOM     12  C   UNL d   1      44.369  29.677  62.895  0.00  0.00     0.021 A 
ATOM     13  C   UNL d   1      44.314  30.432  63.214  0.00  0.00     0.021 A 
ENDROOT
BRANCH   3  14
ATOM     14  C   UNL d   1      44.981  28.899  58.540  0.00  0.00     0.064 A 
ATOM     15  C   UNL d   1      45.164  28.099  58.651  0.00  0.00     0.018 A 
ATOM     16  C   UNL d   1      45.263  27.595  57.992  0.00  0.00     0.001 A 
ATOM     17  C   UNL d   1      45.445  26.802  58.098  0.00  0.00     0.000 C 
ATOM     18  C   UNL d   1      45.177  27.903  57.213  0.00  0.00     0.000 A 
ATOM     19  C   UNL d   1      44.992  28.714  57.108  0.00  0.00     0.002 A 
ATOM     20  C   UNL d   1      45.274  27.411  56.560  0.00  0.00     0.000 C 
ATOM     21  C   UNL d   1      44.894  29.211  57.767  0.00  0.00     0.018 A 
ENDBRANCH   3  14
TORSDOF 1
ENDMDL
