MODEL 1
REMARK VINA RESULT:      -8.8      0.000      0.000
REMARK  4 active torsions:
REMARK  status: ('A' for Active; 'I' for Inactive)
REMARK    1  A    between atoms: N_5  and  C_2 
REMARK    2  A    between atoms: C_9  and  C_3 
REMARK       I    between atoms: C_7  and  N_5 
REMARK    3  A    between atoms: C_8  and  C_7 
REMARK    4  A    between atoms: O_16  and  C_13 
ROOT
ATOM      1  N   UNL d   1      52.279  33.552  53.733  0.00  0.00    -0.200 NA
ATOM      2  C   UNL d   1      51.687  33.224  53.270  0.00  0.00     0.216 A 
ATOM      3  C   UNL d   1      52.925  33.044  53.726  0.00  0.00     0.172 A 
ATOM      4  N   UNL d   1      52.731  32.396  53.254  0.00  0.00    -0.187 NA
ATOM      5  S   UNL d   1      51.966  32.511  52.975  0.00  0.00     0.054 SA
ENDROOT
BRANCH   2   6
ATOM      6  N   UNL d   1      50.943  33.552  53.127  0.00  0.00    -0.181 NA
ATOM      7  C   UNL d   1      50.861  34.131  52.555  0.00  0.00     0.281 C 
ATOM      8  O   UNL d   1      51.515  34.387  52.123  0.00  0.00    -0.265 OA
BRANCH   7   9
ATOM      9  C   UNL d   1      50.118  34.459  52.411  0.00  0.00     0.058 A 
ATOM     10  C   UNL d   1      49.735  34.888  53.002  0.00  0.00     0.007 A 
ATOM     11  C   UNL d   1      48.992  35.216  52.858  0.00  0.00     0.024 A 
ATOM     12  C   UNL d   1      48.631  35.115  52.124  0.00  0.00     0.094 A 
ATOM     13  C   UNL d   1      49.014  34.687  51.535  0.00  0.00     0.024 A 
ATOM     14  C   UNL d   1      49.757  34.359  51.678  0.00  0.00     0.007 A 
BRANCH  12  15
ATOM     15  O   UNL d   1      47.888  35.443  51.981  0.00  0.00    -0.328 OA
ATOM     16  C   UNL d   1      47.643  36.108  52.400  0.00  0.00     0.181 C 
ENDBRANCH  12  15
ENDBRANCH   7   9
ENDBRANCH   2   6
BRANCH   3  17
ATOM     17  C   UNL d   1      53.636  33.158  54.116  0.00  0.00     0.036 A 
ATOM     18  C   UNL d   1      53.639  33.307  54.927  0.00  0.00     0.003 A 
ATOM     19  C   UNL d   1      54.363  33.422  55.323  0.00  0.00     0.000 A 
ATOM     20  C   UNL d   1      55.079  33.387  54.903  0.00  0.00     0.000 A 
ATOM     21  C   UNL d   1      55.066  33.237  54.088  0.00  0.00     0.000 A 
ATOM     22  C   UNL d   1      54.351  33.123  53.696  0.00  0.00     0.003 A 
ENDBRANCH   3  17
TORSDOF 4
ENDMDL
MODEL 2
REMARK VINA RESULT:      -8.3      2.156      5.264
REMARK  4 active torsions:
REMARK  status: ('A' for Active; 'I' for Inactive)
REMARK    1  A    between atoms: N_5  and  C_2 
REMARK    2  A    between atoms: C_9  and  C_3 
REMARK       I    between atoms: C_7  and  N_5 
REMARK    3  A    between atoms: C_8  and  C_7 
REMARK    4  A    between atoms: O_16  and  C_13 
ROOT
ATOM      1  N   UNL d   1      50.866  33.378  53.052  0.00  0.00    -0.200 NA
ATOM      2  C   UNL d   1      51.661  33.255  53.212  0.00  0.00     0.216 A 
ATOM      3  C   UNL d   1      50.769  34.154  52.800  0.00  0.00     0.172 A 
ATOM      4  N   UNL d   1      51.511  34.515  52.805  0.00  0.00    -0.187 NA
ATOM      5  S   UNL d   1      52.058  33.957  53.060  0.00  0.00     0.054 SA
ENDROOT
BRANCH   2   6
ATOM      6  N   UNL d   1      52.001  32.552  53.479  0.00  0.00    -0.181 NA
ATOM      7  C   UNL d   1      52.444  32.096  52.964  0.00  0.00     0.281 C 
ATOM      8  O   UNL d   1      52.551  32.336  52.183  0.00  0.00    -0.265 OA
BRANCH   7   9
ATOM      9  C   UNL d   1      52.784  31.394  53.231  0.00  0.00     0.058 A 
ATOM     10  C   UNL d   1      52.481  30.669  52.982  0.00  0.00     0.007 A 
ATOM     11  C   UNL d   1      52.821  29.966  53.249  0.00  0.00     0.024 A 
ATOM     12  C   UNL d   1      53.463  29.988  53.765  0.00  0.00     0.094 A 
ATOM     13  C   UNL d   1      53.764  30.713  54.013  0.00  0.00     0.024 A 
ATOM     14  C   UNL d   1      53.425  31.416  53.746  0.00  0.00     0.007 A 
BRANCH  12  15
ATOM     15  O   UNL d   1      53.803  29.285  54.032  0.00  0.00    -0.328 OA
ATOM     16  C   UNL d   1      53.481  28.892  54.678  0.00  0.00     0.181 C 
ENDBRANCH  12  15
ENDBRANCH   7   9
ENDBRANCH   2   6
BRANCH   3  17
ATOM     17  C   UNL d   1      50.064  34.509  52.582  0.00  0.00     0.036 A 
ATOM     18  C   UNL d   1      49.650  34.967  53.129  0.00  0.00     0.003 A 
ATOM     19  C   UNL d   1      48.933  35.328  52.907  0.00  0.00     0.000 A 
ATOM     20  C   UNL d   1      48.636  35.228  52.138  0.00  0.00     0.000 A 
ATOM     21  C   UNL d   1      49.059  34.766  51.594  0.00  0.00     0.000 A 
ATOM     22  C   UNL d   1      49.768  34.409  51.813  0.00  0.00     0.003 A 
ENDBRANCH   3  17
TORSDOF 4
ENDMDL
MODEL 3
REMARK VINA RESULT:      -7.9      1.329      5.245
REMARK  4 active torsions:
REMARK  status: ('A' for Active; 'I' for Inactive)
REMARK    1  A    between atoms: N_5  and  C_2 
REMARK    2  A    between atoms: C_9  and  C_3 
REMARK       I    between atoms: C_7  and  N_5 
REMARK    3  A    between atoms: C_8  and  C_7 
REMARK    4  A    between atoms: O_16  and  C_13 
ROOT
ATOM      1  N   UNL d   1      49.982  34.652  53.114  0.00  0.00    -0.200 NA
ATOM      2  C   UNL d   1      50.602  34.173  52.873  0.00  0.00     0.216 A 
ATOM      3  C   UNL d   1      49.488  34.783  52.471  0.00  0.00     0.172 A 
ATOM      4  N   UNL d   1      49.806  34.380  51.825  0.00  0.00    -0.187 NA
ATOM      5  S   UNL d   1      50.493  34.005  52.077  0.00  0.00     0.054 SA
ENDROOT
BRANCH   2   6
ATOM      6  N   UNL d   1      51.225  33.907  53.345  0.00  0.00    -0.181 NA
ATOM      7  C   UNL d   1      51.982  34.187  53.210  0.00  0.00     0.281 C 
ATOM      8  O   UNL d   1      52.124  34.731  52.608  0.00  0.00    -0.265 OA
BRANCH   7   9
ATOM      9  C   UNL d   1      52.604  33.921  53.682  0.00  0.00     0.058 A 
ATOM     10  C   UNL d   1      52.899  34.399  54.284  0.00  0.00     0.007 A 
ATOM     11  C   UNL d   1      53.521  34.133  54.756  0.00  0.00     0.024 A 
ATOM     12  C   UNL d   1      53.849  33.388  54.626  0.00  0.00     0.094 A 
ATOM     13  C   UNL d   1      53.554  32.911  54.024  0.00  0.00     0.024 A 
ATOM     14  C   UNL d   1      52.931  33.177  53.552  0.00  0.00     0.007 A 
BRANCH  12  15
ATOM     15  O   UNL d   1      54.471  33.122  55.098  0.00  0.00    -0.328 OA
ATOM     16  C   UNL d   1      55.126  33.603  55.226  0.00  0.00     0.181 C 
ENDBRANCH  12  15
ENDBRANCH   7   9
ENDBRANCH   2   6
BRANCH   3  17
ATOM     17  C   UNL d   1      48.803  35.231  52.467  0.00  0.00     0.036 A 
ATOM     18  C   UNL d   1      48.608  35.686  53.127  0.00  0.00     0.003 A 
ATOM     19  C   UNL d   1      47.911  36.142  53.123  0.00  0.00     0.000 A 
ATOM     20  C   UNL d   1      47.414  36.138  52.457  0.00  0.00     0.000 A 
ATOM     21  C   UNL d   1      47.618  35.678  51.799  0.00  0.00     0.000 A 
ATOM     22  C   UNL d   1      48.307  35.227  51.802  0.00  0.00     0.003 A 
ENDBRANCH   3  17
TORSDOF 4
ENDMDL
