MODEL 1
REMARK VINA RESULT:      40.1      0.000      0.000
REMARK  4 active torsions:
REMARK  status: ('A' for Active; 'I' for Inactive)
REMARK    1  A    between atoms: C_7  and  C_5 
REMARK    2  A    between atoms: C_8  and  C_7 
REMARK    3  A    between atoms: C_10  and  C_8 
REMARK    4  A    between atoms: O_18  and  C_11 
ROOT
ATOM      1  C   UNL d   1     -51.797  24.041  33.345  0.00  0.00     0.303 A 
ATOM      2  N   UNL d   1     -52.619  25.475  33.309  0.00  0.00    -0.222 NA
ATOM      3  O   UNL d   1     -51.382  24.756  33.338  0.00  0.00    -0.255 OA
ATOM      4  C   UNL d   1     -52.624  24.044  33.335  0.00  0.00     0.081 A 
ATOM      5  C   UNL d   1     -51.790  25.468  33.320  0.00  0.00     0.186 A 
ATOM      6  C   UNL d   1     -53.032  24.756  33.317  0.00  0.00     0.089 A 
ATOM      7  O   UNL d   1     -51.384  23.322  33.363  0.00  0.00    -0.259 OA
ATOM      8  C   UNL d   1     -53.032  23.333  33.342  0.00  0.00     0.007 A 
ATOM      9  C   UNL d   1     -53.854  24.766  33.306  0.00  0.00     0.019 A 
ATOM     10  C   UNL d   1     -53.858  23.336  33.332  0.00  0.00     0.000 A 
ATOM     11  C   UNL d   1     -54.266  24.048  33.314  0.00  0.00     0.002 A 
ENDROOT
BRANCH   5  12
ATOM     12  C   UNL d   1     -51.375  26.206  33.312  0.00  0.00     0.045 C 
BRANCH  12  13
ATOM     13  C   UNL d   1     -50.553  26.208  33.377  0.00  0.00     0.004 C 
BRANCH  13  14
ATOM     14  C   UNL d   1     -50.159  26.875  33.661  0.00  0.00     0.000 A 
ATOM     15  C   UNL d   1     -50.321  27.616  33.346  0.00  0.00     0.002 A 
ATOM     16  C   UNL d   1     -49.927  28.283  33.630  0.00  0.00     0.024 A 
ATOM     17  C   UNL d   1     -49.365  28.203  34.234  0.00  0.00     0.094 A 
ATOM     18  C   UNL d   1     -49.203  27.458  34.550  0.00  0.00     0.024 A 
ATOM     19  C   UNL d   1     -49.597  26.796  34.265  0.00  0.00     0.002 A 
BRANCH  17  20
ATOM     20  O   UNL d   1     -48.967  28.885  34.519  0.00  0.00    -0.328 OA
ATOM     21  C   UNL d   1     -48.292  28.814  34.981  0.00  0.00     0.181 C 
ENDBRANCH  17  20
ENDBRANCH  13  14
ENDBRANCH  12  13
ENDBRANCH   5  12
TORSDOF 4
ENDMDL
