MODEL 1
REMARK VINA RESULT:       3.1      0.000      0.000
REMARK  1 active torsions:
REMARK  status: ('A' for Active; 'I' for Inactive)
REMARK    1  A    between atoms: C_6  and  C_2 
ROOT
ATOM      1  C   UNL d   1     -55.405-102.748 -38.006  0.00  0.00     0.019 A 
ATOM      2  C   UNL d   1     -54.712-102.649 -38.427  0.00  0.00     0.001 A 
ATOM      3  C   UNL d   1     -56.120-102.863 -38.382  0.00  0.00     0.001 A 
ATOM      4  C   UNL d   1     -56.150-102.880 -39.205  0.00  0.00     0.000 A 
ATOM      5  C   UNL d   1     -54.736-102.665 -39.255  0.00  0.00     0.000 A 
ATOM      6  C   UNL d   1     -55.452-102.780 -39.640  0.00  0.00     0.000 A 
ENDROOT
BRANCH   1   7
ATOM      7  C   UNL d   1     -55.379-102.731 -37.175  0.00  0.00     0.102 A 
ATOM      8  N   UNL d   1     -56.012-102.877 -36.669  0.00  0.00    -0.222 NA
ATOM      9  C   UNL d   1     -55.740-102.802 -35.892  0.00  0.00     0.199 A 
ATOM     10  N   UNL d   1     -54.941-102.610 -35.920  0.00  0.00    -0.221 NA
ATOM     11  C   UNL d   1     -54.712-102.565 -36.712  0.00  0.00     0.120 A 
ENDBRANCH   1   7
TORSDOF 1
ENDMDL
MODEL 2
REMARK VINA RESULT:       3.4      1.316      2.796
REMARK  1 active torsions:
REMARK  status: ('A' for Active; 'I' for Inactive)
REMARK    1  A    between atoms: C_6  and  C_2 
ROOT
ATOM      1  C   UNL d   1     -54.962-102.117 -37.037  0.00  0.00     0.019 A 
ATOM      2  C   UNL d   1     -55.002-102.732 -36.501  0.00  0.00     0.001 A 
ATOM      3  C   UNL d   1     -54.822-101.350 -36.796  0.00  0.00     0.001 A 
ATOM      4  C   UNL d   1     -54.719-101.186 -35.995  0.00  0.00     0.000 A 
ATOM      5  C   UNL d   1     -54.899-102.574 -35.695  0.00  0.00     0.000 A 
ATOM      6  C   UNL d   1     -54.758-101.805 -35.445  0.00  0.00     0.000 A 
ENDROOT
BRANCH   1   7
ATOM      7  C   UNL d   1     -55.067-102.277 -37.846  0.00  0.00     0.102 A 
ATOM      8  N   UNL d   1     -55.540-102.872 -38.163  0.00  0.00    -0.222 NA
ATOM      9  C   UNL d   1     -55.481-102.833 -38.987  0.00  0.00     0.199 A 
ATOM     10  N   UNL d   1     -54.972-102.215 -39.176  0.00  0.00    -0.221 NA
ATOM     11  C   UNL d   1     -54.713-101.868 -38.473  0.00  0.00     0.120 A 
ENDBRANCH   1   7
TORSDOF 1
ENDMDL
