MODEL 1
REMARK VINA RESULT:       9.7      0.000      0.000
REMARK  3 active torsions:
REMARK  status: ('A' for Active; 'I' for Inactive)
REMARK    1  A    between atoms: S_6  and  C_2 
REMARK    2  A    between atoms: C_8  and  S_6 
REMARK    3  A    between atoms: C_9  and  C_8 
ROOT
ATOM      1  S   UNL d   1      45.892 -16.801  44.663  0.00  0.00    -0.048 SA
ENDROOT
BRANCH   1   2
ATOM      2  C   UNL d   1      45.677 -15.999  44.717  0.00  0.00     0.203 A 
ATOM      3  N   UNL d   1      46.162 -15.356  44.543  0.00  0.00    -0.193 NA
ATOM      4  C   UNL d   1      45.725 -14.666  44.673  0.00  0.00     0.234 A 
ATOM      5  S   UNL d   1      44.973 -14.883  44.926  0.00  0.00     0.056 SA
ATOM      6  N   UNL d   1      46.000 -13.898  44.566  0.00  0.00    -0.118 N 
ATOM      7  N   UNL d   1      44.939 -15.708  44.955  0.00  0.00    -0.181 NA
ENDBRANCH   1   2
BRANCH   1   8
ATOM      8  C   UNL d   1      45.977 -17.152  43.920  0.00  0.00     0.038 C 
BRANCH   8   9
ATOM      9  C   UNL d   1      46.199 -17.941  43.859  0.00  0.00     0.007 A 
ATOM     10  C   UNL d   1      46.292 -18.275  43.105  0.00  0.00     0.001 A 
ATOM     11  C   UNL d   1      46.516 -19.071  43.039  0.00  0.00     0.000 A 
ATOM     12  C   UNL d   1      46.644 -19.521  43.719  0.00  0.00     0.000 A 
ATOM     13  C   UNL d   1      46.547 -19.175  44.471  0.00  0.00     0.000 A 
ATOM     14  C   UNL d   1      46.325 -18.386  44.532  0.00  0.00     0.001 A 
ENDBRANCH   8   9
ENDBRANCH   1   8
TORSDOF 3
ENDMDL
MODEL 2
REMARK VINA RESULT:      10.1      1.802      3.841
REMARK  3 active torsions:
REMARK  status: ('A' for Active; 'I' for Inactive)
REMARK    1  A    between atoms: S_6  and  C_2 
REMARK    2  A    between atoms: C_8  and  S_6 
REMARK    3  A    between atoms: C_9  and  C_8 
ROOT
ATOM      1  S   UNL d   1      45.894 -16.863  43.948  0.00  0.00    -0.048 SA
ENDROOT
BRANCH   1   2
ATOM      2  C   UNL d   1      46.163 -17.649  43.899  0.00  0.00     0.203 A 
ATOM      3  N   UNL d   1      46.213 -18.182  44.526  0.00  0.00    -0.193 NA
ATOM      4  C   UNL d   1      46.508 -18.895  44.230  0.00  0.00     0.234 A 
ATOM      5  S   UNL d   1      46.638 -18.802  43.423  0.00  0.00     0.056 SA
ATOM      6  N   UNL d   1      46.644 -19.576  44.670  0.00  0.00    -0.118 N 
ATOM      7  N   UNL d   1      46.426 -18.032  43.214  0.00  0.00    -0.181 NA
ENDBRANCH   1   2
BRANCH   1   8
ATOM      8  C   UNL d   1      45.917 -16.467  44.673  0.00  0.00     0.038 C 
BRANCH   8   9
ATOM      9  C   UNL d   1      45.671 -15.685  44.725  0.00  0.00     0.007 A 
ATOM     10  C   UNL d   1      46.224 -15.080  44.593  0.00  0.00     0.001 A 
ATOM     11  C   UNL d   1      45.980 -14.289  44.645  0.00  0.00     0.000 A 
ATOM     12  C   UNL d   1      45.195 -14.111  44.825  0.00  0.00     0.000 A 
ATOM     13  C   UNL d   1      44.648 -14.727  44.955  0.00  0.00     0.000 A 
ATOM     14  C   UNL d   1      44.894 -15.509  44.903  0.00  0.00     0.001 A 
ENDBRANCH   8   9
ENDBRANCH   1   8
TORSDOF 3
ENDMDL
MODEL 3
REMARK VINA RESULT:      10.1      7.817      8.330
REMARK  3 active torsions:
REMARK  status: ('A' for Active; 'I' for Inactive)
REMARK    1  A    between atoms: S_6  and  C_2 
REMARK    2  A    between atoms: C_8  and  S_6 
REMARK    3  A    between atoms: C_9  and  C_8 
ROOT
ATOM      1  S   UNL d   1      44.392 -15.440  37.040  0.00  0.00    -0.048 SA
ENDROOT
BRANCH   1   2
ATOM      2  C   UNL d   1      45.169 -15.141  37.039  0.00  0.00     0.203 A 
ATOM      3  N   UNL d   1      45.379 -14.345  37.062  0.00  0.00    -0.193 NA
ATOM      4  C   UNL d   1      46.205 -14.300  37.052  0.00  0.00     0.234 A 
ATOM      5  S   UNL d   1      46.502 -15.067  37.024  0.00  0.00     0.056 SA
ATOM      6  N   UNL d   1      46.647 -13.607  37.069  0.00  0.00    -0.118 N 
ATOM      7  N   UNL d   1      45.864 -15.591  37.015  0.00  0.00    -0.181 NA
ENDBRANCH   1   2
BRANCH   1   8
ATOM      8  C   UNL d   1      43.961 -15.462  36.336  0.00  0.00     0.038 C 
BRANCH   8   9
ATOM      9  C   UNL d   1      43.183 -15.725  36.335  0.00  0.00     0.007 A 
ATOM     10  C   UNL d   1      42.569 -15.167  36.336  0.00  0.00     0.001 A 
ATOM     11  C   UNL d   1      41.782 -15.429  36.335  0.00  0.00     0.000 A 
ATOM     12  C   UNL d   1      41.617 -16.237  36.333  0.00  0.00     0.000 A 
ATOM     13  C   UNL d   1      42.242 -16.789  36.331  0.00  0.00     0.000 A 
ATOM     14  C   UNL d   1      43.020 -16.526  36.332  0.00  0.00     0.001 A 
ENDBRANCH   8   9
ENDBRANCH   1   8
TORSDOF 3
ENDMDL
MODEL 4
REMARK VINA RESULT:      12.3      7.815      8.208
REMARK  3 active torsions:
REMARK  status: ('A' for Active; 'I' for Inactive)
REMARK    1  A    between atoms: S_6  and  C_2 
REMARK    2  A    between atoms: C_8  and  S_6 
REMARK    3  A    between atoms: C_9  and  C_8 
ROOT
ATOM      1  S   UNL d   1      43.989 -15.754  37.065  0.00  0.00    -0.048 SA
ENDROOT
BRANCH   1   2
ATOM      2  C   UNL d   1      43.166 -15.656  36.997  0.00  0.00     0.203 A 
ATOM      3  N   UNL d   1      42.675 -15.297  37.553  0.00  0.00    -0.193 NA
ATOM      4  C   UNL d   1      41.901 -15.321  37.262  0.00  0.00     0.234 A 
ATOM      5  S   UNL d   1      41.916 -15.693  36.529  0.00  0.00     0.056 SA
ATOM      6  N   UNL d   1      41.237 -15.022  37.644  0.00  0.00    -0.118 N 
ATOM      7  N   UNL d   1      42.697 -15.903  36.360  0.00  0.00    -0.181 NA
ENDBRANCH   1   2
BRANCH   1   8
ATOM      8  C   UNL d   1      44.486 -15.457  36.476  0.00  0.00     0.038 C 
BRANCH   8   9
ATOM      9  C   UNL d   1      45.207 -15.115  36.676  0.00  0.00     0.007 A 
ATOM     10  C   UNL d   1      45.216 -14.340  36.972  0.00  0.00     0.001 A 
ATOM     11  C   UNL d   1      45.941 -13.992  37.175  0.00  0.00     0.000 A 
ATOM     12  C   UNL d   1      46.642 -14.417  37.082  0.00  0.00     0.000 A 
ATOM     13  C   UNL d   1      46.621 -15.195  36.785  0.00  0.00     0.000 A 
ATOM     14  C   UNL d   1      45.901 -15.536  36.585  0.00  0.00     0.001 A 
ENDBRANCH   8   9
ENDBRANCH   1   8
TORSDOF 3
ENDMDL
