MODEL 1
REMARK VINA RESULT:      -7.0      0.000      0.000
REMARK  6 active torsions:
REMARK  status: ('A' for Active; 'I' for Inactive)
REMARK    1  A    between atoms: C_2  and  C_1 
REMARK       I    between atoms: N_5  and  C_1 
REMARK    2  A    between atoms: C_4  and  C_2 
REMARK    3  A    between atoms: O_13  and  C_3 
REMARK    4  A    between atoms: C_9  and  C_4 
REMARK    5  A    between atoms: C_11  and  N_5 
REMARK    6  A    between atoms: O_14  and  C_6 
ROOT
ATOM      1  C   UNL d   1      51.676  33.947  52.655  0.00  0.00     0.005 C 
ENDROOT
BRANCH   1   2
ATOM      2  C   UNL d   1      50.930  34.076  52.989  0.00  0.00     0.062 C 
BRANCH   2   3
ATOM      3  C   UNL d   1      50.324  34.403  52.534  0.00  0.00     0.279 C 
ATOM      4  N   UNL d   1      49.636  34.552  52.850  0.00  0.00    -0.208 NA
ATOM      5  O   UNL d   1      50.446  34.562  51.784  0.00  0.00    -0.265 OA
BRANCH   4   6
ATOM      6  C   UNL d   1      49.068  34.859  52.424  0.00  0.00     0.085 A 
ATOM      7  C   UNL d   1      48.687  35.480  52.708  0.00  0.00     0.019 A 
ATOM      8  C   UNL d   1      48.118  35.793  52.289  0.00  0.00     0.002 A 
ATOM      9  C   UNL d   1      47.926  35.482  51.579  0.00  0.00     0.000 A 
ATOM     10  C   UNL d   1      48.314  34.858  51.302  0.00  0.00     0.002 A 
ATOM     11  C   UNL d   1      48.888  34.541  51.723  0.00  0.00     0.019 A 
ENDBRANCH   4   6
ENDBRANCH   2   3
ENDBRANCH   1   2
BRANCH   1  12
ATOM     12  C   UNL d   1      52.285  33.628  53.112  0.00  0.00     0.002 A 
ATOM     13  C   UNL d   1      52.487  32.824  53.034  0.00  0.00     0.026 A 
ATOM     14  C   UNL d   1      53.096  32.505  53.491  0.00  0.00     0.116 A 
ATOM     15  C   UNL d   1      53.501  32.988  54.025  0.00  0.00     0.116 A 
ATOM     16  C   UNL d   1      53.301  33.788  54.104  0.00  0.00     0.026 A 
ATOM     17  C   UNL d   1      52.690  34.105  53.645  0.00  0.00     0.002 A 
BRANCH  14  18
ATOM     18  O   UNL d   1      53.294  31.719  53.414  0.00  0.00    -0.326 OA
ATOM     19  C   UNL d   1      52.832  31.223  52.941  0.00  0.00     0.181 C 
ENDBRANCH  14  18
BRANCH  15  20
ATOM     20  O   UNL d   1      54.114  32.673  54.486  0.00  0.00    -0.326 OA
ATOM     21  C   UNL d   1      54.473  33.133  55.073  0.00  0.00     0.181 C 
ENDBRANCH  15  20
ENDBRANCH   1  12
TORSDOF 6
ENDMDL
MODEL 2
REMARK VINA RESULT:      -6.8      1.372      4.982
REMARK  6 active torsions:
REMARK  status: ('A' for Active; 'I' for Inactive)
REMARK    1  A    between atoms: C_2  and  C_1 
REMARK       I    between atoms: N_5  and  C_1 
REMARK    2  A    between atoms: C_4  and  C_2 
REMARK    3  A    between atoms: O_13  and  C_3 
REMARK    4  A    between atoms: C_9  and  C_4 
REMARK    5  A    between atoms: C_11  and  N_5 
REMARK    6  A    between atoms: O_14  and  C_6 
ROOT
ATOM      1  C   UNL d   1      50.958  34.082  52.474  0.00  0.00     0.005 C 
ENDROOT
BRANCH   1   2
ATOM      2  C   UNL d   1      51.296  33.706  53.128  0.00  0.00     0.062 C 
BRANCH   2   3
ATOM      3  C   UNL d   1      51.933  33.190  53.026  0.00  0.00     0.279 C 
ATOM      4  N   UNL d   1      52.117  32.684  53.579  0.00  0.00    -0.208 NA
ATOM      5  O   UNL d   1      52.348  33.213  52.371  0.00  0.00    -0.265 OA
BRANCH   4   6
ATOM      6  C   UNL d   1      52.713  32.200  53.484  0.00  0.00     0.085 A 
ATOM      7  C   UNL d   1      53.410  32.413  53.766  0.00  0.00     0.019 A 
ATOM      8  C   UNL d   1      54.012  31.935  53.675  0.00  0.00     0.002 A 
ATOM      9  C   UNL d   1      53.916  31.239  53.298  0.00  0.00     0.000 A 
ATOM     10  C   UNL d   1      53.212  31.033  53.018  0.00  0.00     0.002 A 
ATOM     11  C   UNL d   1      52.605  31.512  53.108  0.00  0.00     0.019 A 
ENDBRANCH   4   6
ENDBRANCH   2   3
ENDBRANCH   1   2
BRANCH   1  12
ATOM     12  C   UNL d   1      50.243  34.486  52.552  0.00  0.00     0.002 A 
ATOM     13  C   UNL d   1      49.705  34.510  51.917  0.00  0.00     0.026 A 
ATOM     14  C   UNL d   1      48.990  34.915  51.996  0.00  0.00     0.116 A 
ATOM     15  C   UNL d   1      48.813  35.294  52.708  0.00  0.00     0.116 A 
ATOM     16  C   UNL d   1      49.347  35.271  53.341  0.00  0.00     0.026 A 
ATOM     17  C   UNL d   1      50.063  34.865  53.259  0.00  0.00     0.002 A 
BRANCH  14  18
ATOM     18  O   UNL d   1      48.465  34.938  51.374  0.00  0.00    -0.326 OA
ATOM     19  C   UNL d   1      48.637  34.534  50.674  0.00  0.00     0.181 C 
ENDBRANCH  14  18
BRANCH  15  20
ATOM     20  O   UNL d   1      48.096  35.702  52.793  0.00  0.00    -0.326 OA
ATOM     21  C   UNL d   1      47.934  36.121  53.487  0.00  0.00     0.181 C 
ENDBRANCH  15  20
ENDBRANCH   1  12
TORSDOF 6
ENDMDL
MODEL 3
REMARK VINA RESULT:      -6.4      2.254      4.919
REMARK  6 active torsions:
REMARK  status: ('A' for Active; 'I' for Inactive)
REMARK    1  A    between atoms: C_2  and  C_1 
REMARK       I    between atoms: N_5  and  C_1 
REMARK    2  A    between atoms: C_4  and  C_2 
REMARK    3  A    between atoms: O_13  and  C_3 
REMARK    4  A    between atoms: C_9  and  C_4 
REMARK    5  A    between atoms: C_11  and  N_5 
REMARK    6  A    between atoms: O_14  and  C_6 
ROOT
ATOM      1  C   UNL d   1      53.818  32.837  53.571  0.00  0.00     0.005 C 
ENDROOT
BRANCH   1   2
ATOM      2  C   UNL d   1      53.840  32.239  54.142  0.00  0.00     0.062 C 
BRANCH   2   3
ATOM      3  C   UNL d   1      53.768  31.448  53.917  0.00  0.00     0.279 C 
ATOM      4  N   UNL d   1      53.231  30.997  54.240  0.00  0.00    -0.208 NA
ATOM      5  O   UNL d   1      54.243  31.156  53.377  0.00  0.00    -0.265 OA
BRANCH   4   6
ATOM      6  C   UNL d   1      53.164  30.256  54.029  0.00  0.00     0.085 A 
ATOM      7  C   UNL d   1      53.435  29.708  54.515  0.00  0.00     0.019 A 
ATOM      8  C   UNL d   1      53.372  28.964  54.312  0.00  0.00     0.002 A 
ATOM      9  C   UNL d   1      53.035  28.767  53.617  0.00  0.00     0.000 A 
ATOM     10  C   UNL d   1      52.765  29.324  53.135  0.00  0.00     0.002 A 
ATOM     11  C   UNL d   1      52.827  30.074  53.337  0.00  0.00     0.019 A 
ENDBRANCH   4   6
ENDBRANCH   2   3
ENDBRANCH   1   2
BRANCH   1  12
ATOM     12  C   UNL d   1      53.514  33.580  53.762  0.00  0.00     0.002 A 
ATOM     13  C   UNL d   1      52.856  33.880  53.350  0.00  0.00     0.026 A 
ATOM     14  C   UNL d   1      52.552  34.623  53.540  0.00  0.00     0.116 A 
ATOM     15  C   UNL d   1      52.906  35.067  54.141  0.00  0.00     0.116 A 
ATOM     16  C   UNL d   1      53.562  34.770  54.552  0.00  0.00     0.026 A 
ATOM     17  C   UNL d   1      53.864  34.024  54.359  0.00  0.00     0.002 A 
BRANCH  14  18
ATOM     18  O   UNL d   1      51.908  34.916  53.137  0.00  0.00    -0.326 OA
ATOM     19  C   UNL d   1      51.448  34.410  52.673  0.00  0.00     0.181 C 
ENDBRANCH  14  18
BRANCH  15  20
ATOM     20  O   UNL d   1      52.606  35.814  54.337  0.00  0.00    -0.326 OA
ATOM     21  C   UNL d   1      52.995  36.288  54.892  0.00  0.00     0.181 C 
ENDBRANCH  15  20
ENDBRANCH   1  12
TORSDOF 6
ENDMDL
MODEL 4
REMARK VINA RESULT:      -5.5      2.865      4.025
REMARK  6 active torsions:
REMARK  status: ('A' for Active; 'I' for Inactive)
REMARK    1  A    between atoms: C_2  and  C_1 
REMARK       I    between atoms: N_5  and  C_1 
REMARK    2  A    between atoms: C_4  and  C_2 
REMARK    3  A    between atoms: O_13  and  C_3 
REMARK    4  A    between atoms: C_9  and  C_4 
REMARK    5  A    between atoms: C_11  and  N_5 
REMARK    6  A    between atoms: O_14  and  C_6 
ROOT
ATOM      1  C   UNL d   1      53.559  31.763  53.249  0.00  0.00     0.005 C 
ENDROOT
BRANCH   1   2
ATOM      2  C   UNL d   1      53.911  32.293  53.778  0.00  0.00     0.062 C 
BRANCH   2   3
ATOM      3  C   UNL d   1      53.733  33.098  53.739  0.00  0.00     0.279 C 
ATOM      4  N   UNL d   1      53.297  33.428  54.283  0.00  0.00    -0.208 NA
ATOM      5  O   UNL d   1      54.006  33.525  53.151  0.00  0.00    -0.265 OA
BRANCH   4   6
ATOM      6  C   UNL d   1      53.131  34.183  54.247  0.00  0.00     0.085 A 
ATOM      7  C   UNL d   1      53.493  34.666  54.743  0.00  0.00     0.019 A 
ATOM      8  C   UNL d   1      53.333  35.421  54.714  0.00  0.00     0.002 A 
ATOM      9  C   UNL d   1      52.805  35.698  54.183  0.00  0.00     0.000 A 
ATOM     10  C   UNL d   1      52.445  35.205  53.688  0.00  0.00     0.002 A 
ATOM     11  C   UNL d   1      52.606  34.444  53.716  0.00  0.00     0.019 A 
ENDBRANCH   4   6
ENDBRANCH   2   3
ENDBRANCH   1   2
BRANCH   1  12
ATOM     12  C   UNL d   1      53.435  30.978  53.470  0.00  0.00     0.002 A 
ATOM     13  C   UNL d   1      52.687  30.628  53.362  0.00  0.00     0.026 A 
ATOM     14  C   UNL d   1      52.563  29.842  53.583  0.00  0.00     0.116 A 
ATOM     15  C   UNL d   1      53.184  29.408  53.911  0.00  0.00     0.116 A 
ATOM     16  C   UNL d   1      53.929  29.755  54.019  0.00  0.00     0.026 A 
ATOM     17  C   UNL d   1      54.051  30.543  53.797  0.00  0.00     0.002 A 
BRANCH  14  18
ATOM     18  O   UNL d   1      51.832  29.500  53.477  0.00  0.00    -0.326 OA
ATOM     19  C   UNL d   1      51.149  29.965  53.522  0.00  0.00     0.181 C 
ENDBRANCH  14  18
BRANCH  15  20
ATOM     20  O   UNL d   1      53.066  28.618  54.135  0.00  0.00    -0.326 OA
ATOM     21  C   UNL d   1      53.518  28.284  54.742  0.00  0.00     0.181 C 
ENDBRANCH  15  20
ENDBRANCH   1  12
TORSDOF 6
ENDMDL
MODEL 5
REMARK VINA RESULT:      -5.3      9.834     10.723
REMARK  6 active torsions:
REMARK  status: ('A' for Active; 'I' for Inactive)
REMARK    1  A    between atoms: C_2  and  C_1 
REMARK       I    between atoms: N_5  and  C_1 
REMARK    2  A    between atoms: C_4  and  C_2 
REMARK    3  A    between atoms: O_13  and  C_3 
REMARK    4  A    between atoms: C_9  and  C_4 
REMARK    5  A    between atoms: C_11  and  N_5 
REMARK    6  A    between atoms: O_14  and  C_6 
ROOT
ATOM      1  C   UNL d   1      45.350  27.486  56.931  0.00  0.00     0.005 C 
ENDROOT
BRANCH   1   2
ATOM      2  C   UNL d   1      44.767  26.900  56.918  0.00  0.00     0.062 C 
BRANCH   2   3
ATOM      3  C   UNL d   1      44.893  26.198  56.503  0.00  0.00     0.279 C 
ATOM      4  N   UNL d   1      44.315  25.697  56.398  0.00  0.00    -0.208 NA
ATOM      5  O   UNL d   1      45.597  26.041  56.216  0.00  0.00    -0.265 OA
BRANCH   4   6
ATOM      6  C   UNL d   1      44.433  25.039  56.009  0.00  0.00     0.085 A 
ATOM      7  C   UNL d   1      44.665  24.409  56.410  0.00  0.00     0.019 A 
ATOM      8  C   UNL d   1      44.785  23.748  56.029  0.00  0.00     0.002 A 
ATOM      9  C   UNL d   1      44.674  23.714  55.240  0.00  0.00     0.000 A 
ATOM     10  C   UNL d   1      44.441  24.352  54.845  0.00  0.00     0.002 A 
ATOM     11  C   UNL d   1      44.319  25.020  55.227  0.00  0.00     0.019 A 
ENDBRANCH   4   6
ENDBRANCH   2   3
ENDBRANCH   1   2
BRANCH   1  12
ATOM     12  C   UNL d   1      45.209  28.204  57.311  0.00  0.00     0.002 A 
ATOM     13  C   UNL d   1      45.008  28.879  56.867  0.00  0.00     0.026 A 
ATOM     14  C   UNL d   1      44.866  29.598  57.248  0.00  0.00     0.116 A 
ATOM     15  C   UNL d   1      44.925  29.641  58.071  0.00  0.00     0.116 A 
ATOM     16  C   UNL d   1      45.125  28.971  58.515  0.00  0.00     0.026 A 
ATOM     17  C   UNL d   1      45.266  28.252  58.130  0.00  0.00     0.002 A 
BRANCH  14  18
ATOM     18  O   UNL d   1      44.670  30.257  56.813  0.00  0.00    -0.326 OA
ATOM     19  C   UNL d   1      44.523  30.187  56.003  0.00  0.00     0.181 C 
ENDBRANCH  14  18
BRANCH  15  20
ATOM     20  O   UNL d   1      44.784  30.360  58.459  0.00  0.00    -0.326 OA
ATOM     21  C   UNL d   1      44.985  30.451  59.256  0.00  0.00     0.181 C 
ENDBRANCH  15  20
ENDBRANCH   1  12
TORSDOF 6
ENDMDL
MODEL 6
REMARK VINA RESULT:      -4.9     10.618     11.486
REMARK  6 active torsions:
REMARK  status: ('A' for Active; 'I' for Inactive)
REMARK    1  A    between atoms: C_2  and  C_1 
REMARK       I    between atoms: N_5  and  C_1 
REMARK    2  A    between atoms: C_4  and  C_2 
REMARK    3  A    between atoms: O_13  and  C_3 
REMARK    4  A    between atoms: C_9  and  C_4 
REMARK    5  A    between atoms: C_11  and  N_5 
REMARK    6  A    between atoms: O_14  and  C_6 
ROOT
ATOM      1  C   UNL d   1      44.582  25.118  56.112  0.00  0.00     0.005 C 
ENDROOT
BRANCH   1   2
ATOM      2  C   UNL d   1      45.142  25.723  56.175  0.00  0.00     0.062 C 
BRANCH   2   3
ATOM      3  C   UNL d   1      44.985  26.387  56.639  0.00  0.00     0.279 C 
ATOM      4  N   UNL d   1      45.499  26.961  56.687  0.00  0.00    -0.208 NA
ATOM      5  O   UNL d   1      44.316  26.435  57.031  0.00  0.00    -0.265 OA
BRANCH   4   6
ATOM      6  C   UNL d   1      45.351  27.583  57.122  0.00  0.00     0.085 A 
ATOM      7  C   UNL d   1      45.083  28.226  56.768  0.00  0.00     0.019 A 
ATOM      8  C   UNL d   1      44.933  28.853  57.195  0.00  0.00     0.002 A 
ATOM      9  C   UNL d   1      45.052  28.837  57.984  0.00  0.00     0.000 A 
ATOM     10  C   UNL d   1      45.323  28.187  58.331  0.00  0.00     0.002 A 
ATOM     11  C   UNL d   1      45.475  27.554  57.902  0.00  0.00     0.019 A 
ENDBRANCH   4   6
ENDBRANCH   2   3
ENDBRANCH   1   2
BRANCH   1  12
ATOM     12  C   UNL d   1      44.737  24.457  55.643  0.00  0.00     0.002 A 
ATOM     13  C   UNL d   1      45.018  23.755  55.991  0.00  0.00     0.026 A 
ATOM     14  C   UNL d   1      45.172  23.094  55.522  0.00  0.00     0.116 A 
ATOM     15  C   UNL d   1      45.046  23.134  54.707  0.00  0.00     0.116 A 
ATOM     16  C   UNL d   1      44.766  23.832  54.358  0.00  0.00     0.026 A 
ATOM     17  C   UNL d   1      44.612  24.493  54.831  0.00  0.00     0.002 A 
BRANCH  14  18
ATOM     18  O   UNL d   1      45.447  22.408  55.863  0.00  0.00    -0.326 OA
ATOM     19  C   UNL d   1      45.456  22.331  56.687  0.00  0.00     0.181 C 
ENDBRANCH  14  18
BRANCH  15  20
ATOM     20  O   UNL d   1      45.200  22.473  54.230  0.00  0.00    -0.326 OA
ATOM     21  C   UNL d   1      45.112  22.521  53.409  0.00  0.00     0.181 C 
ENDBRANCH  15  20
ENDBRANCH   1  12
TORSDOF 6
ENDMDL
MODEL 7
REMARK VINA RESULT:      -4.7      9.881     10.455
REMARK  6 active torsions:
REMARK  status: ('A' for Active; 'I' for Inactive)
REMARK    1  A    between atoms: C_2  and  C_1 
REMARK       I    between atoms: N_5  and  C_1 
REMARK    2  A    between atoms: C_4  and  C_2 
REMARK    3  A    between atoms: O_13  and  C_3 
REMARK    4  A    between atoms: C_9  and  C_4 
REMARK    5  A    between atoms: C_11  and  N_5 
REMARK    6  A    between atoms: O_14  and  C_6 
ROOT
ATOM      1  C   UNL d   1      45.244  27.525  57.828  0.00  0.00     0.005 C 
ENDROOT
BRANCH   1   2
ATOM      2  C   UNL d   1      44.654  28.104  57.812  0.00  0.00     0.062 C 
BRANCH   2   3
ATOM      3  C   UNL d   1      44.854  28.896  57.694  0.00  0.00     0.279 C 
ATOM      4  N   UNL d   1      44.314  29.446  57.744  0.00  0.00    -0.208 NA
ATOM      5  O   UNL d   1      45.588  29.089  57.533  0.00  0.00    -0.265 OA
BRANCH   4   6
ATOM      6  C   UNL d   1      44.501  30.188  57.633  0.00  0.00     0.085 A 
ATOM      7  C   UNL d   1      44.458  30.476  56.908  0.00  0.00     0.019 A 
ATOM      8  C   UNL d   1      44.643  31.217  56.788  0.00  0.00     0.002 A 
ATOM      9  C   UNL d   1      44.873  31.676  57.399  0.00  0.00     0.000 A 
ATOM     10  C   UNL d   1      44.914  31.378  58.125  0.00  0.00     0.002 A 
ATOM     11  C   UNL d   1      44.728  30.632  58.248  0.00  0.00     0.019 A 
ENDBRANCH   4   6
ENDBRANCH   2   3
ENDBRANCH   1   2
BRANCH   1  12
ATOM     12  C   UNL d   1      45.041  26.726  57.868  0.00  0.00     0.002 A 
ATOM     13  C   UNL d   1      44.919  26.291  57.169  0.00  0.00     0.026 A 
ATOM     14  C   UNL d   1      44.715  25.492  57.210  0.00  0.00     0.116 A 
ATOM     15  C   UNL d   1      44.633  25.129  57.947  0.00  0.00     0.116 A 
ATOM     16  C   UNL d   1      44.754  25.561  58.644  0.00  0.00     0.026 A 
ATOM     17  C   UNL d   1      44.958  26.362  58.601  0.00  0.00     0.002 A 
BRANCH  14  18
ATOM     18  O   UNL d   1      44.596  25.067  56.526  0.00  0.00    -0.326 OA
ATOM     19  C   UNL d   1      44.482  25.463  55.809  0.00  0.00     0.181 C 
ENDBRANCH  14  18
BRANCH  15  20
ATOM     20  O   UNL d   1      44.429  24.327  57.994  0.00  0.00    -0.326 OA
ATOM     21  C   UNL d   1      44.460  23.930  58.720  0.00  0.00     0.181 C 
ENDBRANCH  15  20
ENDBRANCH   1  12
TORSDOF 6
ENDMDL
MODEL 8
REMARK VINA RESULT:      -4.6      9.774     10.791
REMARK  6 active torsions:
REMARK  status: ('A' for Active; 'I' for Inactive)
REMARK    1  A    between atoms: C_2  and  C_1 
REMARK       I    between atoms: N_5  and  C_1 
REMARK    2  A    between atoms: C_4  and  C_2 
REMARK    3  A    between atoms: O_13  and  C_3 
REMARK    4  A    between atoms: C_9  and  C_4 
REMARK    5  A    between atoms: C_11  and  N_5 
REMARK    6  A    between atoms: O_14  and  C_6 
ROOT
ATOM      1  C   UNL d   1      45.267  28.234  57.504  0.00  0.00     0.005 C 
ENDROOT
BRANCH   1   2
ATOM      2  C   UNL d   1      44.769  27.674  57.153  0.00  0.00     0.062 C 
BRANCH   2   3
ATOM      3  C   UNL d   1      44.895  26.869  57.282  0.00  0.00     0.279 C 
ATOM      4  N   UNL d   1      44.314  26.415  57.514  0.00  0.00    -0.208 NA
ATOM      5  O   UNL d   1      45.600  26.565  57.171  0.00  0.00    -0.265 OA
BRANCH   4   6
ATOM      6  C   UNL d   1      44.431  25.661  57.635  0.00  0.00     0.085 A 
ATOM      7  C   UNL d   1      44.423  25.182  57.018  0.00  0.00     0.019 A 
ATOM      8  C   UNL d   1      44.539  24.426  57.130  0.00  0.00     0.002 A 
ATOM      9  C   UNL d   1      44.666  24.145  57.866  0.00  0.00     0.000 A 
ATOM     10  C   UNL d   1      44.672  24.634  58.480  0.00  0.00     0.002 A 
ATOM     11  C   UNL d   1      44.555  25.396  58.370  0.00  0.00     0.019 A 
ENDBRANCH   4   6
ENDBRANCH   2   3
ENDBRANCH   1   2
BRANCH   1  12
ATOM     12  C   UNL d   1      45.068  29.035  57.486  0.00  0.00     0.002 A 
ATOM     13  C   UNL d   1      45.095  29.486  58.185  0.00  0.00     0.026 A 
ATOM     14  C   UNL d   1      44.896  30.287  58.168  0.00  0.00     0.116 A 
ATOM     15  C   UNL d   1      44.670  30.635  57.454  0.00  0.00     0.116 A 
ATOM     16  C   UNL d   1      44.642  30.187  56.757  0.00  0.00     0.026 A 
ATOM     17  C   UNL d   1      44.843  29.385  56.778  0.00  0.00     0.002 A 
BRANCH  14  18
ATOM     18  O   UNL d   1      44.923  30.728  58.851  0.00  0.00    -0.326 OA
ATOM     19  C   UNL d   1      45.027  30.353  59.580  0.00  0.00     0.181 C 
ENDBRANCH  14  18
BRANCH  15  20
ATOM     20  O   UNL d   1      44.469  31.440  57.430  0.00  0.00    -0.326 OA
ATOM     21  C   UNL d   1      44.586  31.878  56.739  0.00  0.00     0.181 C 
ENDBRANCH  15  20
ENDBRANCH   1  12
TORSDOF 6
ENDMDL
MODEL 9
REMARK VINA RESULT:      -4.4     10.916     11.465
REMARK  6 active torsions:
REMARK  status: ('A' for Active; 'I' for Inactive)
REMARK    1  A    between atoms: C_2  and  C_1 
REMARK       I    between atoms: N_5  and  C_1 
REMARK    2  A    between atoms: C_4  and  C_2 
REMARK    3  A    between atoms: O_13  and  C_3 
REMARK    4  A    between atoms: C_9  and  C_4 
REMARK    5  A    between atoms: C_11  and  N_5 
REMARK    6  A    between atoms: O_14  and  C_6 
ROOT
ATOM      1  C   UNL d   1      44.315  28.842  59.987  0.00  0.00     0.005 C 
ENDROOT
BRANCH   1   2
ATOM      2  C   UNL d   1      44.926  28.787  59.432  0.00  0.00     0.062 C 
BRANCH   2   3
ATOM      3  C   UNL d   1      44.843  28.299  58.772  0.00  0.00     0.279 C 
ATOM      4  N   UNL d   1      45.288  27.673  58.690  0.00  0.00    -0.208 NA
ATOM      5  O   UNL d   1      44.316  28.471  58.229  0.00  0.00    -0.265 OA
BRANCH   4   6
ATOM      6  C   UNL d   1      45.211  27.216  58.071  0.00  0.00     0.085 A 
ATOM      7  C   UNL d   1      44.880  26.515  58.169  0.00  0.00     0.019 A 
ATOM      8  C   UNL d   1      44.798  26.052  57.556  0.00  0.00     0.002 A 
ATOM      9  C   UNL d   1      45.050  26.291  56.838  0.00  0.00     0.000 A 
ATOM     10  C   UNL d   1      45.382  26.997  56.748  0.00  0.00     0.002 A 
ATOM     11  C   UNL d   1      45.464  27.466  57.365  0.00  0.00     0.019 A 
ENDBRANCH   4   6
ENDBRANCH   2   3
ENDBRANCH   1   2
BRANCH   1  12
ATOM     12  C   UNL d   1      44.381  29.360  60.626  0.00  0.00     0.002 A 
ATOM     13  C   UNL d   1      44.411  29.063  61.403  0.00  0.00     0.026 A 
ATOM     14  C   UNL d   1      44.476  29.581  62.042  0.00  0.00     0.116 A 
ATOM     15  C   UNL d   1      44.512  30.395  61.904  0.00  0.00     0.116 A 
ATOM     16  C   UNL d   1      44.482  30.693  61.131  0.00  0.00     0.026 A 
ATOM     17  C   UNL d   1      44.416  30.171  60.493  0.00  0.00     0.002 A 
BRANCH  14  18
ATOM     18  O   UNL d   1      44.506  29.290  62.801  0.00  0.00    -0.326 OA
ATOM     19  C   UNL d   1      44.683  28.493  62.930  0.00  0.00     0.181 C 
ENDBRANCH  14  18
BRANCH  15  20
ATOM     20  O   UNL d   1      44.578  30.921  62.542  0.00  0.00    -0.326 OA
ATOM     21  C   UNL d   1      44.437  31.729  62.433  0.00  0.00     0.181 C 
ENDBRANCH  15  20
ENDBRANCH   1  12
TORSDOF 6
ENDMDL
