MODEL 1
REMARK VINA RESULT:      42.1      0.000      0.000
REMARK  3 active torsions:
REMARK  status: ('A' for Active; 'I' for Inactive)
REMARK    1  A    between atoms: C_8  and  C_1 
REMARK    2  A    between atoms: N_4  and  C_2 
REMARK       I    between atoms: C_6  and  N_4 
REMARK    3  A    between atoms: C_9  and  C_6 
ROOT
ATOM      1  C   UNL d   1     -49.808  24.560  33.571  0.00  0.00     0.177 A 
ATOM      2  C   UNL d   1     -50.513  24.968  33.440  0.00  0.00     0.114 A 
ATOM      3  O   UNL d   1     -49.190  25.117  33.632  0.00  0.00    -0.301 OA
ATOM      4  C   UNL d   1     -50.344  25.774  33.418  0.00  0.00     0.043 A 
ATOM      5  C   UNL d   1     -49.511  25.865  33.539  0.00  0.00     0.102 A 
ATOM      6  C   UNL d   1     -50.818  26.434  33.306  0.00  0.00     0.004 A 
ATOM      7  C   UNL d   1     -49.187  26.617  33.543  0.00  0.00     0.025 A 
ATOM      8  C   UNL d   1     -50.491  27.196  33.311  0.00  0.00     0.000 A 
ATOM      9  C   UNL d   1     -49.687  27.293  33.427  0.00  0.00     0.002 A 
ENDROOT
BRANCH   2  10
ATOM     10  N   UNL d   1     -51.270  24.598  33.346  0.00  0.00    -0.206 NA
ATOM     11  C   UNL d   1     -51.802  24.593  33.978  0.00  0.00     0.279 C 
ATOM     12  O   UNL d   1     -51.611  24.949  34.719  0.00  0.00    -0.265 OA
BRANCH  11  13
ATOM     13  C   UNL d   1     -52.547  24.232  33.895  0.00  0.00     0.058 A 
ATOM     14  C   UNL d   1     -52.737  23.534  34.275  0.00  0.00     0.007 A 
ATOM     15  C   UNL d   1     -53.487  23.190  34.179  0.00  0.00     0.030 A 
ATOM     16  C   UNL d   1     -54.047  23.555  33.695  0.00  0.00     0.140 A 
ATOM     17  C   UNL d   1     -53.869  24.251  33.311  0.00  0.00     0.030 A 
ATOM     18  F   UNL d   1     -54.794  23.223  33.592  0.00  0.00    -0.204 F 
ATOM     19  C   UNL d   1     -53.120  24.599  33.404  0.00  0.00     0.007 A 
ENDBRANCH  11  13
ENDBRANCH   2  10
BRANCH   1  20
ATOM     20  C   UNL d   1     -49.757  23.741  33.628  0.00  0.00     0.321 C 
ATOM     21  O   UNL d   1     -49.038  23.382  33.870  0.00  0.00    -0.261 OA
ATOM     22  N   UNL d   1     -50.418  23.261  33.446  0.00  0.00    -0.101 N 
ENDBRANCH   1  20
TORSDOF 3
ENDMDL
