MODEL 1
REMARK VINA RESULT:      -5.5      0.000      0.000
REMARK  5 active torsions:
REMARK  status: ('A' for Active; 'I' for Inactive)
REMARK    1  A    between atoms: S_2  and  C_1 
REMARK    2  A    between atoms: N_11  and  S_2 
REMARK    3  A    between atoms: C_14  and  N_11 
REMARK    4  A    between atoms: C_16  and  C_14 
REMARK    5  A    between atoms: C_15  and  C_16 
ROOT
ATOM      1  S   UNL d   1      58.309  -0.079  29.972  0.00  0.00     0.287 S 
ATOM      2  O   UNL d   1      57.776   0.039  29.312  0.00  0.00    -0.198 OA
ATOM      3  O   UNL d   1      58.815  -0.186  30.619  0.00  0.00    -0.198 OA
ENDROOT
BRANCH   1   4
ATOM      4  C   UNL d   1      58.831  -0.497  29.476  0.00  0.00     0.125 A 
ATOM      5  C   UNL d   1      59.514  -0.120  29.168  0.00  0.00     0.121 A 
ATOM      6  N   UNL d   1      59.815   0.655  29.257  0.00  0.00    -0.190 NA
ATOM      7  C   UNL d   1      60.021  -0.548  28.678  0.00  0.00     0.110 A 
ATOM      8  S   UNL d   1      60.508   0.681  28.812  0.00  0.00     0.117 SA
ATOM      9  N   UNL d   1      60.636  -0.056  28.456  0.00  0.00    -0.190 NA
ATOM     10  C   UNL d   1      59.847  -1.354  28.494  0.00  0.00     0.021 A 
ATOM     11  C   UNL d   1      59.172  -1.709  28.806  0.00  0.00     0.002 A 
ATOM     12  C   UNL d   1      58.660  -1.292  29.295  0.00  0.00     0.015 A 
ENDBRANCH   1   4
BRANCH   1  13
ATOM     13  N   UNL d   1      57.776   0.344  30.464  0.00  0.00    -0.157 NA
BRANCH  13  14
ATOM     14  C   UNL d   1      57.376  -0.036  31.093  0.00  0.00     0.112 C 
BRANCH  14  15
ATOM     15  C   UNL d   1      56.904   0.397  31.616  0.00  0.00     0.021 C 
BRANCH  15  16
ATOM     16  C   UNL d   1      56.435  -0.024  32.179  0.00  0.00     0.002 A 
ATOM     17  C   UNL d   1      55.941   0.398  32.696  0.00  0.00     0.000 A 
ATOM     18  C   UNL d   1      55.491  -0.013  33.237  0.00  0.00     0.000 A 
ATOM     19  C   UNL d   1      55.531  -0.829  33.266  0.00  0.00     0.000 A 
ATOM     20  C   UNL d   1      56.010  -1.241  32.765  0.00  0.00     0.000 A 
ATOM     21  C   UNL d   1      56.466  -0.834  32.218  0.00  0.00     0.000 A 
ENDBRANCH  15  16
ENDBRANCH  14  15
ENDBRANCH  13  14
ENDBRANCH   1  13
TORSDOF 5
ENDMDL
MODEL 2
REMARK VINA RESULT:      -4.7      0.962      1.241
REMARK  5 active torsions:
REMARK  status: ('A' for Active; 'I' for Inactive)
REMARK    1  A    between atoms: S_2  and  C_1 
REMARK    2  A    between atoms: N_11  and  S_2 
REMARK    3  A    between atoms: C_14  and  N_11 
REMARK    4  A    between atoms: C_16  and  C_14 
REMARK    5  A    between atoms: C_15  and  C_16 
ROOT
ATOM      1  S   UNL d   1      58.227   0.271  29.993  0.00  0.00     0.287 S 
ATOM      2  O   UNL d   1      57.792   0.305  29.255  0.00  0.00    -0.198 OA
ATOM      3  O   UNL d   1      58.635   0.242  30.713  0.00  0.00    -0.198 OA
ENDROOT
BRANCH   1   4
ATOM      4  C   UNL d   1      58.920   0.079  29.575  0.00  0.00     0.125 A 
ATOM      5  C   UNL d   1      59.054  -0.708  29.316  0.00  0.00     0.121 A 
ATOM      6  N   UNL d   1      58.601  -1.407  29.392  0.00  0.00    -0.190 NA
ATOM      7  C   UNL d   1      59.746  -0.881  28.903  0.00  0.00     0.110 A 
ATOM      8  S   UNL d   1      59.035  -1.999  29.018  0.00  0.00     0.117 SA
ATOM      9  N   UNL d   1      59.738  -1.679  28.717  0.00  0.00    -0.190 NA
ATOM     10  C   UNL d   1      60.308  -0.271  28.747  0.00  0.00     0.021 A 
ATOM     11  C   UNL d   1      60.161   0.497  29.009  0.00  0.00     0.002 A 
ATOM     12  C   UNL d   1      59.474   0.682  29.422  0.00  0.00     0.015 A 
ENDBRANCH   1   4
BRANCH   1  13
ATOM     13  N   UNL d   1      57.521   0.466  30.405  0.00  0.00    -0.157 NA
BRANCH  13  14
ATOM     14  C   UNL d   1      57.357   0.138  31.158  0.00  0.00     0.112 C 
BRANCH  14  15
ATOM     15  C   UNL d   1      56.794   0.483  31.655  0.00  0.00     0.021 C 
BRANCH  15  16
ATOM     16  C   UNL d   1      56.388  -0.010  32.208  0.00  0.00     0.002 A 
ATOM     17  C   UNL d   1      55.877   0.334  32.763  0.00  0.00     0.000 A 
ATOM     18  C   UNL d   1      55.488  -0.147  33.295  0.00  0.00     0.000 A 
ATOM     19  C   UNL d   1      55.604  -0.956  33.276  0.00  0.00     0.000 A 
ATOM     20  C   UNL d   1      56.101  -1.292  32.737  0.00  0.00     0.000 A 
ATOM     21  C   UNL d   1      56.496  -0.815  32.199  0.00  0.00     0.000 A 
ENDBRANCH  15  16
ENDBRANCH  14  15
ENDBRANCH  13  14
ENDBRANCH   1  13
TORSDOF 5
ENDMDL
