MODEL 1
REMARK VINA RESULT:      -7.2      0.000      0.000
REMARK  7 active torsions:
REMARK  status: ('A' for Active; 'I' for Inactive)
REMARK    1  A    between atoms: N_2  and  S_1 
REMARK    2  A    between atoms: C_3  and  S_1 
REMARK       I    between atoms: C_4  and  N_9 
REMARK    3  A    between atoms: C_10  and  C_4 
REMARK    4  A    between atoms: C_12  and  C_6 
REMARK    5  A    between atoms: N_9  and  C_12 
REMARK    6  A    between atoms: O_22  and  C_19 
REMARK    7  A    between atoms: C_25  and  O_22 
ROOT
ATOM      1  N   UNL d   1     -49.849  13.380  22.210  0.00  0.00    -0.229 N 
ATOM      2  C   UNL d   1     -49.100  13.036  22.150  0.00  0.00     0.094 A 
ATOM      3  C   UNL d   1     -50.383  12.913  21.773  0.00  0.00     0.092 A 
ATOM      4  C   UNL d   1     -49.178  12.362  21.676  0.00  0.00     0.021 A 
ATOM      5  C   UNL d   1     -49.965  12.290  21.448  0.00  0.00     0.021 A 
ENDROOT
BRANCH   2   6
ATOM      6  C   UNL d   1     -48.454  13.381  22.530  0.00  0.00     0.120 C 
BRANCH   6   7
ATOM      7  N   UNL d   1     -47.694  13.143  22.340  0.00  0.00    -0.205 NA
ATOM      8  C   UNL d   1     -47.073  13.376  22.812  0.00  0.00     0.279 C 
ATOM      9  O   UNL d   1     -47.192  13.849  23.479  0.00  0.00    -0.265 OA
BRANCH   8  10
ATOM     10  C   UNL d   1     -46.292  13.134  22.621  0.00  0.00     0.058 A 
ATOM     11  C   UNL d   1     -45.981  12.447  22.957  0.00  0.00     0.007 A 
ATOM     12  C   UNL d   1     -45.222  12.206  22.775  0.00  0.00     0.025 A 
ATOM     13  C   UNL d   1     -44.761  12.654  22.250  0.00  0.00     0.100 A 
ATOM     14  C   UNL d   1     -45.072  13.340  21.914  0.00  0.00     0.025 A 
ATOM     15  C   UNL d   1     -45.841  13.574  22.106  0.00  0.00     0.007 A 
BRANCH  13  16
ATOM     16  O   UNL d   1     -43.992  12.406  22.070  0.00  0.00    -0.305 OA
BRANCH  16  17
ATOM     17  C   UNL d   1     -43.577  12.743  21.441  0.00  0.00     0.123 C 
ATOM     18  C   UNL d   1     -42.758  12.660  21.397  0.00  0.00     0.029 C 
ENDBRANCH  16  17
ENDBRANCH  13  16
ENDBRANCH   8  10
ENDBRANCH   6   7
ENDBRANCH   2   6
BRANCH   1  19
ATOM     19  S   UNL d   1     -50.032  14.065  22.631  0.00  0.00     0.277 S 
ATOM     20  O   UNL d   1     -49.961  14.510  21.938  0.00  0.00    -0.199 OA
ATOM     21  O   UNL d   1     -50.102  13.616  23.325  0.00  0.00    -0.199 OA
BRANCH  19  22
ATOM     22  C   UNL d   1     -50.216  14.759  23.054  0.00  0.00     0.133 A 
ATOM     23  S   UNL d   1     -49.744  15.395  23.299  0.00  0.00    -0.074 SA
ATOM     24  C   UNL d   1     -50.229  15.922  23.698  0.00  0.00     0.036 A 
ATOM     25  C   UNL d   1     -50.991  15.612  23.697  0.00  0.00     0.008 A 
ATOM     26  C   UNL d   1     -50.981  14.900  23.304  0.00  0.00     0.020 A 
ENDBRANCH  19  22
ENDBRANCH   1  19
TORSDOF 7
ENDMDL
MODEL 2
REMARK VINA RESULT:      -6.7      1.021      1.808
REMARK  7 active torsions:
REMARK  status: ('A' for Active; 'I' for Inactive)
REMARK    1  A    between atoms: N_2  and  S_1 
REMARK    2  A    between atoms: C_3  and  S_1 
REMARK       I    between atoms: C_4  and  N_9 
REMARK    3  A    between atoms: C_10  and  C_4 
REMARK    4  A    between atoms: C_12  and  C_6 
REMARK    5  A    between atoms: N_9  and  C_12 
REMARK    6  A    between atoms: O_22  and  C_19 
REMARK    7  A    between atoms: C_25  and  O_22 
ROOT
ATOM      1  N   UNL d   1     -49.261  14.502  22.715  0.00  0.00    -0.229 N 
ATOM      2  C   UNL d   1     -48.437  14.530  22.777  0.00  0.00     0.094 A 
ATOM      3  C   UNL d   1     -49.527  15.254  22.474  0.00  0.00     0.092 A 
ATOM      4  C   UNL d   1     -48.203  15.297  22.575  0.00  0.00     0.021 A 
ATOM      5  C   UNL d   1     -48.873  15.738  22.390  0.00  0.00     0.021 A 
ENDROOT
BRANCH   2   6
ATOM      6  C   UNL d   1     -48.016  13.859  23.008  0.00  0.00     0.120 C 
BRANCH   6   7
ATOM      7  N   UNL d   1     -47.279  13.709  22.685  0.00  0.00    -0.205 NA
ATOM      8  C   UNL d   1     -46.799  13.149  23.028  0.00  0.00     0.279 C 
ATOM      9  O   UNL d   1     -47.040  12.726  23.697  0.00  0.00    -0.265 OA
BRANCH   8  10
ATOM     10  C   UNL d   1     -46.042  12.991  22.700  0.00  0.00     0.058 A 
ATOM     11  C   UNL d   1     -45.597  12.356  22.980  0.00  0.00     0.007 A 
ATOM     12  C   UNL d   1     -44.860  12.197  22.665  0.00  0.00     0.025 A 
ATOM     13  C   UNL d   1     -44.558  12.679  22.060  0.00  0.00     0.100 A 
ATOM     14  C   UNL d   1     -45.003  13.314  21.780  0.00  0.00     0.025 A 
ATOM     15  C   UNL d   1     -45.747  13.464  22.107  0.00  0.00     0.007 A 
BRANCH  13  16
ATOM     16  O   UNL d   1     -43.810  12.514  21.744  0.00  0.00    -0.305 OA
BRANCH  16  17
ATOM     17  C   UNL d   1     -43.329  13.122  21.462  0.00  0.00     0.123 C 
ATOM     18  C   UNL d   1     -42.545  12.967  21.260  0.00  0.00     0.029 C 
ENDBRANCH  16  17
ENDBRANCH  13  16
ENDBRANCH   8  10
ENDBRANCH   6   7
ENDBRANCH   2   6
BRANCH   1  19
ATOM     19  S   UNL d   1     -49.733  13.842  22.865  0.00  0.00     0.277 S 
ATOM     20  O   UNL d   1     -49.733  13.659  22.059  0.00  0.00    -0.199 OA
ATOM     21  O   UNL d   1     -49.730  14.030  23.674  0.00  0.00    -0.199 OA
BRANCH  19  22
ATOM     22  C   UNL d   1     -50.209  13.176  23.015  0.00  0.00     0.133 A 
ATOM     23  S   UNL d   1     -50.610  12.929  23.697  0.00  0.00    -0.074 SA
ATOM     24  C   UNL d   1     -50.992  12.226  23.517  0.00  0.00     0.036 A 
ATOM     25  C   UNL d   1     -50.826  12.044  22.731  0.00  0.00     0.008 A 
ATOM     26  C   UNL d   1     -50.347  12.626  22.427  0.00  0.00     0.020 A 
ENDBRANCH  19  22
ENDBRANCH   1  19
TORSDOF 7
ENDMDL
MODEL 3
REMARK VINA RESULT:      -6.5      1.217      1.535
REMARK  7 active torsions:
REMARK  status: ('A' for Active; 'I' for Inactive)
REMARK    1  A    between atoms: N_2  and  S_1 
REMARK    2  A    between atoms: C_3  and  S_1 
REMARK       I    between atoms: C_4  and  N_9 
REMARK    3  A    between atoms: C_10  and  C_4 
REMARK    4  A    between atoms: C_12  and  C_6 
REMARK    5  A    between atoms: N_9  and  C_12 
REMARK    6  A    between atoms: O_22  and  C_19 
REMARK    7  A    between atoms: C_25  and  O_22 
ROOT
ATOM      1  N   UNL d   1     -50.012  13.262  22.300  0.00  0.00    -0.229 N 
ATOM      2  C   UNL d   1     -49.341  12.780  22.312  0.00  0.00     0.094 A 
ATOM      3  C   UNL d   1     -50.596  12.880  21.845  0.00  0.00     0.092 A 
ATOM      4  C   UNL d   1     -49.516  12.106  21.866  0.00  0.00     0.021 A 
ATOM      5  C   UNL d   1     -50.286  12.171  21.582  0.00  0.00     0.021 A 
ENDROOT
BRANCH   2   6
ATOM      6  C   UNL d   1     -48.667  13.018  22.725  0.00  0.00     0.120 C 
BRANCH   6   7
ATOM      7  N   UNL d   1     -48.091  12.468  22.917  0.00  0.00    -0.205 NA
ATOM      8  C   UNL d   1     -47.309  12.694  22.924  0.00  0.00     0.279 C 
ATOM      9  O   UNL d   1     -47.083  13.468  22.740  0.00  0.00    -0.265 OA
BRANCH   8  10
ATOM     10  C   UNL d   1     -46.716  12.134  23.120  0.00  0.00     0.058 A 
ATOM     11  C   UNL d   1     -45.928  12.284  22.926  0.00  0.00     0.007 A 
ATOM     12  C   UNL d   1     -45.346  11.743  23.115  0.00  0.00     0.025 A 
ATOM     13  C   UNL d   1     -45.548  11.038  23.504  0.00  0.00     0.100 A 
ATOM     14  C   UNL d   1     -46.335  10.888  23.698  0.00  0.00     0.025 A 
ATOM     15  C   UNL d   1     -46.915  11.443  23.502  0.00  0.00     0.007 A 
BRANCH  13  16
ATOM     16  O   UNL d   1     -44.954  10.493  23.693  0.00  0.00    -0.305 OA
BRANCH  16  17
ATOM     17  C   UNL d   1     -44.162  10.660  23.533  0.00  0.00     0.123 C 
ATOM     18  C   UNL d   1     -43.633  10.045  23.387  0.00  0.00     0.029 C 
ENDBRANCH  16  17
ENDBRANCH  13  16
ENDBRANCH   8  10
ENDBRANCH   6   7
ENDBRANCH   2   6
BRANCH   1  19
ATOM     19  S   UNL d   1     -50.085  13.994  22.675  0.00  0.00     0.277 S 
ATOM     20  O   UNL d   1     -49.894  14.375  21.966  0.00  0.00    -0.199 OA
ATOM     21  O   UNL d   1     -50.277  13.608  23.383  0.00  0.00    -0.199 OA
BRANCH  19  22
ATOM     22  C   UNL d   1     -50.159  14.734  23.050  0.00  0.00     0.133 A 
ATOM     23  S   UNL d   1     -50.799  15.093  23.433  0.00  0.00    -0.074 SA
ATOM     24  C   UNL d   1     -50.547  15.828  23.698  0.00  0.00     0.036 A 
ATOM     25  C   UNL d   1     -49.759  15.916  23.478  0.00  0.00     0.008 A 
ATOM     26  C   UNL d   1     -49.524  15.246  23.082  0.00  0.00     0.020 A 
ENDBRANCH  19  22
ENDBRANCH   1  19
TORSDOF 7
ENDMDL
MODEL 4
REMARK VINA RESULT:      -5.5      7.986      9.992
REMARK  7 active torsions:
REMARK  status: ('A' for Active; 'I' for Inactive)
REMARK    1  A    between atoms: N_2  and  S_1 
REMARK    2  A    between atoms: C_3  and  S_1 
REMARK       I    between atoms: C_4  and  N_9 
REMARK    3  A    between atoms: C_10  and  C_4 
REMARK    4  A    between atoms: C_12  and  C_6 
REMARK    5  A    between atoms: N_9  and  C_12 
REMARK    6  A    between atoms: O_22  and  C_19 
REMARK    7  A    between atoms: C_25  and  O_22 
ROOT
ATOM      1  N   UNL d   1     -40.232  14.865  20.744  0.00  0.00    -0.229 N 
ATOM      2  C   UNL d   1     -40.100  14.844  19.929  0.00  0.00     0.094 A 
ATOM      3  C   UNL d   1     -40.989  15.187  20.875  0.00  0.00     0.092 A 
ATOM      4  C   UNL d   1     -40.776  15.152  19.564  0.00  0.00     0.021 A 
ATOM      5  C   UNL d   1     -41.318  15.361  20.148  0.00  0.00     0.021 A 
ENDROOT
BRANCH   2   6
ATOM      6  C   UNL d   1     -39.389  14.550  19.631  0.00  0.00     0.120 C 
BRANCH   6   7
ATOM      7  N   UNL d   1     -39.280  14.487  18.822  0.00  0.00    -0.205 NA
ATOM      8  C   UNL d   1     -38.585  14.177  18.535  0.00  0.00     0.279 C 
ATOM      9  O   UNL d   1     -37.985  13.922  19.044  0.00  0.00    -0.265 OA
BRANCH   8  10
ATOM     10  C   UNL d   1     -38.469  14.111  17.706  0.00  0.00     0.058 A 
ATOM     11  C   UNL d   1     -38.402  14.792  17.245  0.00  0.00     0.007 A 
ATOM     12  C   UNL d   1     -38.290  14.734  16.438  0.00  0.00     0.025 A 
ATOM     13  C   UNL d   1     -38.242  13.987  16.080  0.00  0.00     0.100 A 
ATOM     14  C   UNL d   1     -38.309  13.306  16.541  0.00  0.00     0.025 A 
ATOM     15  C   UNL d   1     -38.423  13.377  17.356  0.00  0.00     0.007 A 
BRANCH  13  16
ATOM     16  O   UNL d   1     -38.128  13.934  15.261  0.00  0.00    -0.305 OA
BRANCH  16  17
ATOM     17  C   UNL d   1     -38.013  13.202  14.898  0.00  0.00     0.123 C 
ATOM     18  C   UNL d   1     -37.952  13.154  14.078  0.00  0.00     0.029 C 
ENDBRANCH  16  17
ENDBRANCH  13  16
ENDBRANCH   8  10
ENDBRANCH   6   7
ENDBRANCH   2   6
BRANCH   1  19
ATOM     19  S   UNL d   1     -39.702  14.611  21.324  0.00  0.00     0.277 S 
ATOM     20  O   UNL d   1     -40.088  13.880  21.355  0.00  0.00    -0.199 OA
ATOM     21  O   UNL d   1     -39.318  15.345  21.290  0.00  0.00    -0.199 OA
BRANCH  19  22
ATOM     22  C   UNL d   1     -39.169  14.352  21.909  0.00  0.00     0.133 A 
ATOM     23  S   UNL d   1     -38.609  14.762  22.362  0.00  0.00    -0.074 SA
ATOM     24  C   UNL d   1     -38.242  14.216  22.852  0.00  0.00     0.036 A 
ATOM     25  C   UNL d   1     -38.575  13.478  22.700  0.00  0.00     0.008 A 
ATOM     26  C   UNL d   1     -39.141  13.564  22.123  0.00  0.00     0.020 A 
ENDBRANCH  19  22
ENDBRANCH   1  19
TORSDOF 7
ENDMDL
MODEL 5
REMARK VINA RESULT:      -4.7      1.729      2.900
REMARK  7 active torsions:
REMARK  status: ('A' for Active; 'I' for Inactive)
REMARK    1  A    between atoms: N_2  and  S_1 
REMARK    2  A    between atoms: C_3  and  S_1 
REMARK       I    between atoms: C_4  and  N_9 
REMARK    3  A    between atoms: C_10  and  C_4 
REMARK    4  A    between atoms: C_12  and  C_6 
REMARK    5  A    between atoms: N_9  and  C_12 
REMARK    6  A    between atoms: O_22  and  C_19 
REMARK    7  A    between atoms: C_25  and  O_22 
ROOT
ATOM      1  N   UNL d   1     -47.691  13.791  22.782  0.00  0.00    -0.229 N 
ATOM      2  C   UNL d   1     -46.883  13.901  22.651  0.00  0.00     0.094 A 
ATOM      3  C   UNL d   1     -48.053  14.542  22.801  0.00  0.00     0.092 A 
ATOM      4  C   UNL d   1     -46.752  14.715  22.591  0.00  0.00     0.021 A 
ATOM      5  C   UNL d   1     -47.472  15.104  22.684  0.00  0.00     0.021 A 
ENDROOT
BRANCH   2   6
ATOM      6  C   UNL d   1     -46.379  13.249  22.605  0.00  0.00     0.120 C 
BRANCH   6   7
ATOM      7  N   UNL d   1     -45.638  13.330  22.266  0.00  0.00    -0.205 NA
ATOM      8  C   UNL d   1     -45.086  12.739  22.365  0.00  0.00     0.279 C 
ATOM      9  O   UNL d   1     -45.259  12.058  22.801  0.00  0.00    -0.265 OA
BRANCH   8  10
ATOM     10  C   UNL d   1     -44.325  12.818  22.020  0.00  0.00     0.058 A 
ATOM     11  C   UNL d   1     -44.132  13.503  21.603  0.00  0.00     0.007 A 
ATOM     12  C   UNL d   1     -43.393  13.586  21.264  0.00  0.00     0.025 A 
ATOM     13  C   UNL d   1     -42.834  12.978  21.340  0.00  0.00     0.100 A 
ATOM     14  C   UNL d   1     -43.027  12.292  21.757  0.00  0.00     0.025 A 
ATOM     15  C   UNL d   1     -43.778  12.221  22.095  0.00  0.00     0.007 A 
BRANCH  13  16
ATOM     16  O   UNL d   1     -42.086  13.066  20.995  0.00  0.00    -0.305 OA
BRANCH  16  17
ATOM     17  C   UNL d   1     -41.676  13.780  21.055  0.00  0.00     0.123 C 
ATOM     18  C   UNL d   1     -40.906  13.838  20.769  0.00  0.00     0.029 C 
ENDBRANCH  16  17
ENDBRANCH  13  16
ENDBRANCH   8  10
ENDBRANCH   6   7
ENDBRANCH   2   6
BRANCH   1  19
ATOM     19  S   UNL d   1     -48.070  13.064  22.876  0.00  0.00     0.277 S 
ATOM     20  O   UNL d   1     -48.162  13.006  22.056  0.00  0.00    -0.199 OA
ATOM     21  O   UNL d   1     -47.976  13.126  23.698  0.00  0.00    -0.199 OA
BRANCH  19  22
ATOM     22  C   UNL d   1     -48.452  12.330  22.968  0.00  0.00     0.133 A 
ATOM     23  S   UNL d   1     -48.557  11.845  23.631  0.00  0.00    -0.074 SA
ATOM     24  C   UNL d   1     -48.980  11.186  23.389  0.00  0.00     0.036 A 
ATOM     25  C   UNL d   1     -49.133  11.266  22.585  0.00  0.00     0.008 A 
ATOM     26  C   UNL d   1     -48.809  11.967  22.329  0.00  0.00     0.020 A 
ENDBRANCH  19  22
ENDBRANCH   1  19
TORSDOF 7
ENDMDL
MODEL 6
REMARK VINA RESULT:      -4.5      4.518      7.881
REMARK  7 active torsions:
REMARK  status: ('A' for Active; 'I' for Inactive)
REMARK    1  A    between atoms: N_2  and  S_1 
REMARK    2  A    between atoms: C_3  and  S_1 
REMARK       I    between atoms: C_4  and  N_9 
REMARK    3  A    between atoms: C_10  and  C_4 
REMARK    4  A    between atoms: C_12  and  C_6 
REMARK    5  A    between atoms: N_9  and  C_12 
REMARK    6  A    between atoms: O_22  and  C_19 
REMARK    7  A    between atoms: C_25  and  O_22 
ROOT
ATOM      1  N   UNL d   1     -40.273  14.528  20.486  0.00  0.00    -0.229 N 
ATOM      2  C   UNL d   1     -40.799  14.125  20.978  0.00  0.00     0.094 A 
ATOM      3  C   UNL d   1     -39.632  14.789  20.951  0.00  0.00     0.092 A 
ATOM      4  C   UNL d   1     -40.481  14.141  21.742  0.00  0.00     0.021 A 
ATOM      5  C   UNL d   1     -39.766  14.548  21.720  0.00  0.00     0.021 A 
ENDROOT
BRANCH   2   6
ATOM      6  C   UNL d   1     -41.492  13.802  20.667  0.00  0.00     0.120 C 
BRANCH   6   7
ATOM      7  N   UNL d   1     -42.103  13.588  21.169  0.00  0.00    -0.205 NA
ATOM      8  C   UNL d   1     -42.691  13.095  20.896  0.00  0.00     0.279 C 
ATOM      9  O   UNL d   1     -42.684  12.805  20.122  0.00  0.00    -0.265 OA
BRANCH   8  10
ATOM     10  C   UNL d   1     -43.319  12.874  21.407  0.00  0.00     0.058 A 
ATOM     11  C   UNL d   1     -43.233  12.222  21.905  0.00  0.00     0.007 A 
ATOM     12  C   UNL d   1     -43.841  12.001  22.405  0.00  0.00     0.025 A 
ATOM     13  C   UNL d   1     -44.548  12.435  22.411  0.00  0.00     0.100 A 
ATOM     14  C   UNL d   1     -44.634  13.087  21.913  0.00  0.00     0.025 A 
ATOM     15  C   UNL d   1     -44.012  13.300  21.412  0.00  0.00     0.007 A 
BRANCH  13  16
ATOM     16  O   UNL d   1     -45.161  12.207  22.919  0.00  0.00    -0.305 OA
BRANCH  16  17
ATOM     17  C   UNL d   1     -45.880  12.612  22.920  0.00  0.00     0.123 C 
ATOM     18  C   UNL d   1     -46.505  12.341  23.384  0.00  0.00     0.029 C 
ENDBRANCH  16  17
ENDBRANCH  13  16
ENDBRANCH   8  10
ENDBRANCH   6   7
ENDBRANCH   2   6
BRANCH   1  19
ATOM     19  S   UNL d   1     -40.368  14.648  19.675  0.00  0.00     0.277 S 
ATOM     20  O   UNL d   1     -40.799  15.337  19.828  0.00  0.00    -0.199 OA
ATOM     21  O   UNL d   1     -39.935  13.957  19.525  0.00  0.00    -0.199 OA
BRANCH  19  22
ATOM     22  C   UNL d   1     -40.465  14.772  18.857  0.00  0.00     0.133 A 
ATOM     23  S   UNL d   1     -40.787  15.407  18.432  0.00  0.00    -0.074 SA
ATOM     24  C   UNL d   1     -40.736  15.220  17.635  0.00  0.00     0.036 A 
ATOM     25  C   UNL d   1     -40.386  14.478  17.573  0.00  0.00     0.008 A 
ATOM     26  C   UNL d   1     -40.222  14.206  18.321  0.00  0.00     0.020 A 
ENDBRANCH  19  22
ENDBRANCH   1  19
TORSDOF 7
ENDMDL
