MODEL 1
REMARK VINA RESULT:       1.5      0.000      0.000
REMARK  3 active torsions:
REMARK  status: ('A' for Active; 'I' for Inactive)
REMARK    1  A    between atoms: N_10  and  C_3 
REMARK    2  A    between atoms: C_11  and  C_5 
REMARK    3  A    between atoms: C_12  and  C_9 
ROOT
ATOM      1  N   UNL d   1      58.221  -0.782  30.523  0.00  0.00    -0.196 N 
ATOM      2  C   UNL d   1      58.944  -1.004  30.167  0.00  0.00     0.167 A 
ATOM      3  C   UNL d   1      58.214  -0.164  31.065  0.00  0.00     0.152 A 
ATOM      4  N   UNL d   1      57.543  -1.803  29.780  0.00  0.00    -0.163 NA
ATOM      5  C   UNL d   1      58.960  -1.614  29.629  0.00  0.00     0.055 A 
ATOM      6  N   UNL d   1      59.634  -0.600  30.367  0.00  0.00    -0.227 NA
ATOM      7  C   UNL d   1      58.931   0.247  31.265  0.00  0.00     0.057 A 
ATOM      8  C   UNL d   1      58.266  -2.025  29.424  0.00  0.00     0.104 A 
ATOM      9  C   UNL d   1      59.620   0.013  30.907  0.00  0.00     0.086 A 
ATOM     10  C   UNL d   1      58.284  -2.632  28.888  0.00  0.00     0.023 C 
ENDROOT
BRANCH   5  11
ATOM     11  C   UNL d   1      59.692  -1.838  29.269  0.00  0.00     0.004 A 
ATOM     12  C   UNL d   1      59.989  -2.598  29.383  0.00  0.00     0.000 A 
ATOM     13  C   UNL d   1      60.709  -2.819  29.029  0.00  0.00     0.000 A 
ATOM     14  C   UNL d   1      61.117  -2.275  28.569  0.00  0.00     0.000 A 
ATOM     15  C   UNL d   1      60.813  -1.509  28.456  0.00  0.00     0.000 A 
ATOM     16  C   UNL d   1      60.104  -1.300  28.808  0.00  0.00     0.000 A 
ENDBRANCH   5  11
BRANCH   3  17
ATOM     17  N   UNL d   1      57.474   0.067  31.433  0.00  0.00    -0.289 N 
ATOM     18  C   UNL d   1      56.984   0.482  31.042  0.00  0.00     0.082 A 
ATOM     19  C   UNL d   1      56.333   0.682  31.374  0.00  0.00     0.021 A 
ATOM     20  C   UNL d   1      56.680   0.057  32.453  0.00  0.00     0.021 A 
ATOM     21  C   UNL d   1      57.331  -0.143  32.121  0.00  0.00     0.082 A 
ENDBRANCH   3  17
BRANCH   9  22
ATOM     22  C   UNL d   1      60.351   0.436  31.114  0.00  0.00     0.018 C 
ATOM     23  C   UNL d   1      60.520   0.608  31.951  0.00  0.00     0.002 C 
ATOM     24  C   UNL d   1      60.902   0.681  30.495  0.00  0.00     0.002 C 
ENDBRANCH   9  22
TORSDOF 3
ENDMDL
MODEL 2
REMARK VINA RESULT:       2.0      1.211      1.544
REMARK  3 active torsions:
REMARK  status: ('A' for Active; 'I' for Inactive)
REMARK    1  A    between atoms: N_10  and  C_3 
REMARK    2  A    between atoms: C_11  and  C_5 
REMARK    3  A    between atoms: C_12  and  C_9 
ROOT
ATOM      1  N   UNL d   1      58.020   0.153  30.896  0.00  0.00    -0.196 N 
ATOM      2  C   UNL d   1      58.750   0.120  30.490  0.00  0.00     0.167 A 
ATOM      3  C   UNL d   1      58.015   0.335  31.698  0.00  0.00     0.152 A 
ATOM      4  N   UNL d   1      57.330  -0.176  29.684  0.00  0.00    -0.163 NA
ATOM      5  C   UNL d   1      58.764  -0.059  29.696  0.00  0.00     0.055 A 
ATOM      6  N   UNL d   1      59.449   0.268  30.900  0.00  0.00    -0.227 NA
ATOM      7  C   UNL d   1      58.742   0.487  32.113  0.00  0.00     0.057 A 
ATOM      8  C   UNL d   1      58.060  -0.210  29.278  0.00  0.00     0.104 A 
ATOM      9  C   UNL d   1      59.437   0.448  31.698  0.00  0.00     0.086 A 
ATOM     10  C   UNL d   1      58.076  -0.388  28.487  0.00  0.00     0.023 C 
ENDROOT
BRANCH   5  11
ATOM     11  C   UNL d   1      59.501  -0.093  29.285  0.00  0.00     0.004 A 
ATOM     12  C   UNL d   1      59.784   0.573  28.893  0.00  0.00     0.000 A 
ATOM     13  C   UNL d   1      60.510   0.540  28.489  0.00  0.00     0.000 A 
ATOM     14  C   UNL d   1      60.939  -0.160  28.485  0.00  0.00     0.000 A 
ATOM     15  C   UNL d   1      60.651  -0.831  28.883  0.00  0.00     0.000 A 
ATOM     16  C   UNL d   1      59.935  -0.789  29.278  0.00  0.00     0.000 A 
ENDBRANCH   5  11
BRANCH   3  17
ATOM     17  N   UNL d   1      57.268   0.371  32.119  0.00  0.00    -0.289 N 
ATOM     18  C   UNL d   1      56.654   0.607  31.756  0.00  0.00     0.082 A 
ATOM     19  C   UNL d   1      55.998   0.635  32.135  0.00  0.00     0.021 A 
ATOM     20  C   UNL d   1      56.585   0.200  33.203  0.00  0.00     0.021 A 
ATOM     21  C   UNL d   1      57.241   0.171  32.823  0.00  0.00     0.082 A 
ENDBRANCH   3  17
BRANCH   9  22
ATOM     22  C   UNL d   1      60.177   0.604  32.126  0.00  0.00     0.018 C 
ATOM     23  C   UNL d   1      60.158   0.682  32.993  0.00  0.00     0.002 C 
ATOM     24  C   UNL d   1      60.922   0.681  31.693  0.00  0.00     0.002 C 
ENDBRANCH   9  22
TORSDOF 3
ENDMDL
MODEL 3
REMARK VINA RESULT:       4.4      1.473      4.234
REMARK  3 active torsions:
REMARK  status: ('A' for Active; 'I' for Inactive)
REMARK    1  A    between atoms: N_10  and  C_3 
REMARK    2  A    between atoms: C_11  and  C_5 
REMARK    3  A    between atoms: C_12  and  C_9 
ROOT
ATOM      1  N   UNL d   1      58.843   0.118  31.383  0.00  0.00    -0.196 N 
ATOM      2  C   UNL d   1      58.063  -0.154  31.511  0.00  0.00     0.167 A 
ATOM      3  C   UNL d   1      59.207  -0.034  30.661  0.00  0.00     0.152 A 
ATOM      4  N   UNL d   1      58.863   0.682  32.700  0.00  0.00    -0.163 NA
ATOM      5  C   UNL d   1      57.695  -0.007  32.222  0.00  0.00     0.055 A 
ATOM      6  N   UNL d   1      57.675  -0.568  30.913  0.00  0.00    -0.227 NA
ATOM      7  C   UNL d   1      58.798  -0.463  30.050  0.00  0.00     0.057 A 
ATOM      8  C   UNL d   1      58.083   0.410  32.828  0.00  0.00     0.104 A 
ATOM      9  C   UNL d   1      58.043  -0.716  30.198  0.00  0.00     0.086 A 
ATOM     10  C   UNL d   1      57.715   0.555  33.535  0.00  0.00     0.023 C 
ENDROOT
BRANCH   5  11
ATOM     11  C   UNL d   1      56.906  -0.282  32.351  0.00  0.00     0.004 A 
ATOM     12  C   UNL d   1      56.763  -1.086  32.453  0.00  0.00     0.000 A 
ATOM     13  C   UNL d   1      55.987  -1.356  32.580  0.00  0.00     0.000 A 
ATOM     14  C   UNL d   1      55.369  -0.817  32.603  0.00  0.00     0.000 A 
ATOM     15  C   UNL d   1      55.517  -0.005  32.501  0.00  0.00     0.000 A 
ATOM     16  C   UNL d   1      56.285   0.253  32.376  0.00  0.00     0.000 A 
ENDBRANCH   5  11
BRANCH   3  17
ATOM     17  N   UNL d   1      60.008   0.242  30.525  0.00  0.00    -0.289 N 
ATOM     18  C   UNL d   1      60.267   0.281  29.821  0.00  0.00     0.082 A 
ATOM     19  C   UNL d   1      60.976   0.526  29.709  0.00  0.00     0.021 A 
ATOM     20  C   UNL d   1      61.133   0.682  30.984  0.00  0.00     0.021 A 
ATOM     21  C   UNL d   1      60.425   0.436  31.096  0.00  0.00     0.082 A 
ENDBRANCH   3  17
BRANCH   9  22
ATOM     22  C   UNL d   1      57.629  -1.153  29.571  0.00  0.00     0.018 C 
ATOM     23  C   UNL d   1      57.353  -0.724  28.865  0.00  0.00     0.002 C 
ATOM     24  C   UNL d   1      57.494  -2.003  29.650  0.00  0.00     0.002 C 
ENDBRANCH   9  22
TORSDOF 3
ENDMDL
