MODEL 1
REMARK VINA RESULT:      15.4      0.000      0.000
REMARK  1 active torsions:
REMARK  status: ('A' for Active; 'I' for Inactive)
REMARK    1  A    between atoms: C_6  and  C_1 
ROOT
ATOM      1  C   UNL d   1      58.790  49.704  50.690  0.00  0.00     0.111 A 
ATOM      2  N   UNL d   1      58.147  49.707  51.207  0.00  0.00    -0.239 NA
ATOM      3  S   UNL d   1      58.505  49.698  49.907  0.00  0.00    -0.066 SA
ATOM      4  C   UNL d   1      57.464  49.704  50.748  0.00  0.00     0.088 A 
ATOM      5  C   UNL d   1      57.684  49.698  49.953  0.00  0.00     0.049 A 
ATOM      6  C   UNL d   1      56.657  49.705  50.953  0.00  0.00     0.020 A 
ATOM      7  C   UNL d   1      57.094  49.694  49.367  0.00  0.00     0.008 A 
ATOM      8  C   UNL d   1      56.288  49.696  49.568  0.00  0.00     0.001 A 
ATOM      9  C   UNL d   1      56.069  49.701  50.363  0.00  0.00     0.002 A 
ENDROOT
BRANCH   1  10
ATOM     10  C   UNL d   1      59.581  49.705  50.851  0.00  0.00     0.025 A 
ATOM     11  C   UNL d   1      59.882  49.705  51.642  0.00  0.00     0.023 A 
ATOM     12  C   UNL d   1      60.673  49.706  51.793  0.00  0.00     0.103 A 
ATOM     13  N   UNL d   1      60.919  49.706  52.582  0.00  0.00    -0.148 N 
ATOM     14  C   UNL d   1      61.218  49.707  51.135  0.00  0.00     0.021 A 
ATOM     15  C   UNL d   1      60.940  49.707  50.367  0.00  0.00     0.002 A 
ATOM     16  C   UNL d   1      60.130  49.706  50.239  0.00  0.00     0.002 A 
ENDBRANCH   1  10
TORSDOF 1
ENDMDL
MODEL 2
REMARK VINA RESULT:      15.7      0.963      3.802
REMARK  1 active torsions:
REMARK  status: ('A' for Active; 'I' for Inactive)
REMARK    1  A    between atoms: C_6  and  C_1 
ROOT
ATOM      1  C   UNL d   1      58.489  49.680  50.768  0.00  0.00     0.111 A 
ATOM      2  N   UNL d   1      59.137  49.659  50.259  0.00  0.00    -0.239 NA
ATOM      3  S   UNL d   1      58.765  49.700  51.553  0.00  0.00    -0.066 SA
ATOM      4  C   UNL d   1      59.815  49.665  50.725  0.00  0.00     0.088 A 
ATOM      5  C   UNL d   1      59.587  49.690  51.517  0.00  0.00     0.049 A 
ATOM      6  C   UNL d   1      60.625  49.651  50.529  0.00  0.00     0.020 A 
ATOM      7  C   UNL d   1      60.170  49.701  52.109  0.00  0.00     0.008 A 
ATOM      8  C   UNL d   1      60.979  49.687  51.917  0.00  0.00     0.001 A 
ATOM      9  C   UNL d   1      61.207  49.661  51.125  0.00  0.00     0.002 A 
ENDROOT
BRANCH   1  10
ATOM     10  C   UNL d   1      57.700  49.684  50.598  0.00  0.00     0.025 A 
ATOM     11  C   UNL d   1      57.408  49.690  49.803  0.00  0.00     0.023 A 
ATOM     12  C   UNL d   1      56.618  49.693  49.643  0.00  0.00     0.103 A 
ATOM     13  N   UNL d   1      56.381  49.699  48.852  0.00  0.00    -0.148 N 
ATOM     14  C   UNL d   1      56.066  49.691  50.295  0.00  0.00     0.021 A 
ATOM     15  C   UNL d   1      56.336  49.685  51.067  0.00  0.00     0.002 A 
ATOM     16  C   UNL d   1      57.144  49.681  51.204  0.00  0.00     0.002 A 
ENDBRANCH   1  10
TORSDOF 1
ENDMDL
MODEL 3
REMARK VINA RESULT:      18.2      0.693      3.551
REMARK  1 active torsions:
REMARK  status: ('A' for Active; 'I' for Inactive)
REMARK    1  A    between atoms: C_6  and  C_1 
ROOT
ATOM      1  C   UNL d   1      58.733  49.695  50.704  0.00  0.00     0.111 A 
ATOM      2  N   UNL d   1      59.123  49.684  51.431  0.00  0.00    -0.239 NA
ATOM      3  S   UNL d   1      59.302  49.704  50.095  0.00  0.00    -0.066 SA
ATOM      4  C   UNL d   1      59.931  49.685  51.276  0.00  0.00     0.088 A 
ATOM      5  C   UNL d   1      60.040  49.697  50.458  0.00  0.00     0.049 A 
ATOM      6  C   UNL d   1      60.594  49.677  51.780  0.00  0.00     0.020 A 
ATOM      7  C   UNL d   1      60.812  49.701  50.149  0.00  0.00     0.008 A 
ATOM      8  C   UNL d   1      61.475  49.693  50.650  0.00  0.00     0.001 A 
ATOM      9  C   UNL d   1      61.366  49.680  51.467  0.00  0.00     0.002 A 
ENDROOT
BRANCH   1  10
ATOM     10  C   UNL d   1      57.942  49.699  50.543  0.00  0.00     0.025 A 
ATOM     11  C   UNL d   1      57.356  49.699  51.154  0.00  0.00     0.023 A 
ATOM     12  C   UNL d   1      56.569  49.703  50.984  0.00  0.00     0.103 A 
ATOM     13  N   UNL d   1      56.034  49.703  51.613  0.00  0.00    -0.148 N 
ATOM     14  C   UNL d   1      56.325  49.706  50.166  0.00  0.00     0.021 A 
ATOM     15  C   UNL d   1      56.881  49.706  49.567  0.00  0.00     0.002 A 
ATOM     16  C   UNL d   1      57.677  49.702  49.766  0.00  0.00     0.002 A 
ENDBRANCH   1  10
TORSDOF 1
ENDMDL
