MODEL 1
REMARK VINA RESULT:      -9.4      0.000      0.000
REMARK  6 active torsions:
REMARK  status: ('A' for Active; 'I' for Inactive)
REMARK    1  A    between atoms: O_4  and  C_1 
REMARK    2  A    between atoms: C_9  and  C_2 
REMARK    3  A    between atoms: C_5  and  O_4 
REMARK    4  A    between atoms: C_11  and  C_5 
REMARK    5  A    between atoms: N_10  and  C_9 
REMARK    6  A    between atoms: O_19  and  C_17 
ROOT
ATOM      1  C   UNL d   1      53.237  33.071  53.927  0.00  0.00     0.122 A 
ATOM      2  C   UNL d   1      52.802  33.551  53.416  0.00  0.00     0.043 A 
ATOM      3  C   UNL d   1      53.706  33.413  54.513  0.00  0.00     0.105 A 
ATOM      4  C   UNL d   1      53.740  34.233  54.589  0.00  0.00     0.030 A 
ATOM      5  C   UNL d   1      53.304  34.703  54.077  0.00  0.00     0.059 A 
ATOM      6  C   UNL d   1      52.836  34.371  53.492  0.00  0.00     0.015 A 
ATOM      7  N   UNL d   1      54.137  32.934  55.017  0.00  0.00    -0.242 NA
ATOM      8 CL   UNL d   1      53.354  35.531  54.173  0.00  0.00    -0.082 Cl
ATOM      9  C   UNL d   1      54.203  34.565  55.168  0.00  0.00     0.004 A 
ATOM     10  C   UNL d   1      54.606  33.275  55.603  0.00  0.00     0.099 A 
ATOM     11  C   UNL d   1      54.639  34.095  55.679  0.00  0.00     0.021 A 
ENDROOT
BRANCH   1  12
ATOM     12  O   UNL d   1      53.214  32.327  53.866  0.00  0.00    -0.271 OA
BRANCH  12  13
ATOM     13  C   UNL d   1      53.658  31.598  53.418  0.00  0.00     0.300 C 
ATOM     14  O   UNL d   1      54.471  31.872  52.896  0.00  0.00    -0.259 OA
BRANCH  13  15
ATOM     15  C   UNL d   1      53.377  30.826  53.472  0.00  0.00     0.066 A 
ATOM     16  C   UNL d   1      53.479  30.397  54.177  0.00  0.00     0.029 A 
ATOM     17  C   UNL d   1      53.193  29.615  54.228  0.00  0.00     0.094 A 
ATOM     18  C   UNL d   1      52.805  29.262  53.578  0.00  0.00     0.024 A 
ATOM     19  C   UNL d   1      52.704  29.694  52.877  0.00  0.00     0.002 A 
ATOM     20  C   UNL d   1      52.991  30.475  52.826  0.00  0.00     0.005 A 
BRANCH  17  21
ATOM     21  O   UNL d   1      53.339  29.259  54.972  0.00  0.00    -0.328 OA
ATOM     22  C   UNL d   1      53.396  28.448  54.737  0.00  0.00     0.181 C 
ENDBRANCH  17  21
ENDBRANCH  13  15
ENDBRANCH  12  13
ENDBRANCH   1  12
BRANCH   2  23
ATOM     23  C   UNL d   1      52.241  33.362  52.725  0.00  0.00     0.082 C 
BRANCH  23  24
ATOM     24  N   UNL d   1      51.471  33.645  52.741  0.00  0.00    -0.299 N 
ATOM     25  C   UNL d   1      50.945  33.377  53.301  0.00  0.00     0.107 A 
ATOM     26  C   UNL d   1      50.175  33.657  53.319  0.00  0.00     0.142 A 
ATOM     27  O   UNL d   1      49.934  34.220  52.760  0.00  0.00    -0.300 OA
ATOM     28  C   UNL d   1      50.457  34.492  52.196  0.00  0.00     0.142 A 
ATOM     29  C   UNL d   1      51.231  34.199  52.192  0.00  0.00     0.107 A 
ENDBRANCH  23  24
ENDBRANCH   2  23
TORSDOF 6
ENDMDL
MODEL 2
REMARK VINA RESULT:      -8.6      1.027      2.912
REMARK  6 active torsions:
REMARK  status: ('A' for Active; 'I' for Inactive)
REMARK    1  A    between atoms: O_4  and  C_1 
REMARK    2  A    between atoms: C_9  and  C_2 
REMARK    3  A    between atoms: C_5  and  O_4 
REMARK    4  A    between atoms: C_11  and  C_5 
REMARK    5  A    between atoms: N_10  and  C_9 
REMARK    6  A    between atoms: O_19  and  C_17 
ROOT
ATOM      1  C   UNL d   1      52.679  32.812  53.451  0.00  0.00     0.122 A 
ATOM      2  C   UNL d   1      53.377  33.234  53.573  0.00  0.00     0.043 A 
ATOM      3  C   UNL d   1      51.979  33.214  53.281  0.00  0.00     0.105 A 
ATOM      4  C   UNL d   1      51.977  34.037  53.233  0.00  0.00     0.030 A 
ATOM      5  C   UNL d   1      52.675  34.449  53.356  0.00  0.00     0.059 A 
ATOM      6  C   UNL d   1      53.375  34.057  53.525  0.00  0.00     0.015 A 
ATOM      7  N   UNL d   1      51.289  32.792  53.160  0.00  0.00    -0.242 NA
ATOM      8 CL   UNL d   1      52.649  35.282  53.303  0.00  0.00    -0.082 Cl
ATOM      9  C   UNL d   1      51.285  34.429  53.066  0.00  0.00     0.004 A 
ATOM     10  C   UNL d   1      50.589  33.194  52.990  0.00  0.00     0.099 A 
ATOM     11  C   UNL d   1      50.587  34.017  52.943  0.00  0.00     0.021 A 
ENDROOT
BRANCH   1  12
ATOM     12  O   UNL d   1      52.670  32.066  53.491  0.00  0.00    -0.271 OA
BRANCH  12  13
ATOM     13  C   UNL d   1      52.869  31.285  52.962  0.00  0.00     0.300 C 
ATOM     14  O   UNL d   1      53.168  31.490  52.026  0.00  0.00    -0.259 OA
BRANCH  13  15
ATOM     15  C   UNL d   1      52.794  30.526  53.273  0.00  0.00     0.066 A 
ATOM     16  C   UNL d   1      53.325  30.262  53.856  0.00  0.00     0.029 A 
ATOM     17  C   UNL d   1      53.245  29.493  54.168  0.00  0.00     0.094 A 
ATOM     18  C   UNL d   1      52.637  28.988  53.899  0.00  0.00     0.024 A 
ATOM     19  C   UNL d   1      52.109  29.255  53.317  0.00  0.00     0.002 A 
ATOM     20  C   UNL d   1      52.189  30.024  53.006  0.00  0.00     0.005 A 
BRANCH  17  21
ATOM     21  O   UNL d   1      53.822  29.312  54.749  0.00  0.00    -0.328 OA
ATOM     22  C   UNL d   1      53.498  28.594  55.056  0.00  0.00     0.181 C 
ENDBRANCH  17  21
ENDBRANCH  13  15
ENDBRANCH  12  13
ENDBRANCH   1  12
BRANCH   2  23
ATOM     23  C   UNL d   1      54.227  32.973  53.766  0.00  0.00     0.082 C 
BRANCH  23  24
ATOM     24  N   UNL d   1      54.596  33.266  54.438  0.00  0.00    -0.299 N 
ATOM     25  C   UNL d   1      54.312  33.084  55.178  0.00  0.00     0.107 A 
ATOM     26  C   UNL d   1      54.679  33.375  55.850  0.00  0.00     0.142 A 
ATOM     27  O   UNL d   1      55.347  33.860  55.770  0.00  0.00    -0.300 OA
ATOM     28  C   UNL d   1      55.637  34.045  55.031  0.00  0.00     0.142 A 
ATOM     29  C   UNL d   1      55.255  33.743  54.363  0.00  0.00     0.107 A 
ENDBRANCH  23  24
ENDBRANCH   2  23
TORSDOF 6
ENDMDL
MODEL 3
REMARK VINA RESULT:      -8.5      1.442      4.080
REMARK  6 active torsions:
REMARK  status: ('A' for Active; 'I' for Inactive)
REMARK    1  A    between atoms: O_4  and  C_1 
REMARK    2  A    between atoms: C_9  and  C_2 
REMARK    3  A    between atoms: C_5  and  O_4 
REMARK    4  A    between atoms: C_11  and  C_5 
REMARK    5  A    between atoms: N_10  and  C_9 
REMARK    6  A    between atoms: O_19  and  C_17 
ROOT
ATOM      1  C   UNL d   1      52.692  33.386  53.543  0.00  0.00     0.122 A 
ATOM      2  C   UNL d   1      53.019  32.669  53.300  0.00  0.00     0.043 A 
ATOM      3  C   UNL d   1      53.077  33.840  54.114  0.00  0.00     0.105 A 
ATOM      4  C   UNL d   1      53.786  33.577  54.442  0.00  0.00     0.030 A 
ATOM      5  C   UNL d   1      54.103  32.863  54.195  0.00  0.00     0.059 A 
ATOM      6  C   UNL d   1      53.728  32.406  53.627  0.00  0.00     0.015 A 
ATOM      7  N   UNL d   1      52.750  34.551  54.353  0.00  0.00    -0.242 NA
ATOM      8 CL   UNL d   1      54.823  32.617  54.541  0.00  0.00    -0.082 Cl
ATOM      9  C   UNL d   1      54.161  34.028  55.005  0.00  0.00     0.004 A 
ATOM     10  C   UNL d   1      53.134  35.005  54.925  0.00  0.00     0.099 A 
ATOM     11  C   UNL d   1      53.843  34.742  55.252  0.00  0.00     0.021 A 
ENDROOT
BRANCH   1  12
ATOM     12  O   UNL d   1      52.050  33.633  53.252  0.00  0.00    -0.271 OA
BRANCH  12  13
ATOM     13  C   UNL d   1      51.716  34.178  52.530  0.00  0.00     0.300 C 
ATOM     14  O   UNL d   1      52.433  34.569  51.946  0.00  0.00    -0.259 OA
BRANCH  13  15
ATOM     15  C   UNL d   1      50.909  34.297  52.422  0.00  0.00     0.066 A 
ATOM     16  C   UNL d   1      50.577  34.222  51.663  0.00  0.00     0.029 A 
ATOM     17  C   UNL d   1      49.759  34.344  51.556  0.00  0.00     0.094 A 
ATOM     18  C   UNL d   1      49.272  34.540  52.206  0.00  0.00     0.024 A 
ATOM     19  C   UNL d   1      49.606  34.614  52.961  0.00  0.00     0.002 A 
ATOM     20  C   UNL d   1      50.424  34.492  53.067  0.00  0.00     0.005 A 
BRANCH  17  21
ATOM     21  O   UNL d   1      49.512  34.248  50.761  0.00  0.00    -0.328 OA
ATOM     22  C   UNL d   1      48.746  34.602  50.803  0.00  0.00     0.181 C 
ENDBRANCH  17  21
ENDBRANCH  13  15
ENDBRANCH  12  13
ENDBRANCH   1  12
BRANCH   2  23
ATOM     23  C   UNL d   1      52.748  32.044  52.696  0.00  0.00     0.082 C 
BRANCH  23  24
ATOM     24  N   UNL d   1      52.618  31.273  52.944  0.00  0.00    -0.299 N 
ATOM     25  C   UNL d   1      51.940  31.078  53.349  0.00  0.00     0.107 A 
ATOM     26  C   UNL d   1      51.808  30.308  53.597  0.00  0.00     0.142 A 
ATOM     27  O   UNL d   1      52.373  29.725  53.432  0.00  0.00    -0.300 OA
ATOM     28  C   UNL d   1      53.055  29.915  53.026  0.00  0.00     0.142 A 
ATOM     29  C   UNL d   1      53.173  30.696  52.782  0.00  0.00     0.107 A 
ENDBRANCH  23  24
ENDBRANCH   2  23
TORSDOF 6
ENDMDL
MODEL 4
REMARK VINA RESULT:      -6.8      1.662      4.556
REMARK  6 active torsions:
REMARK  status: ('A' for Active; 'I' for Inactive)
REMARK    1  A    between atoms: O_4  and  C_1 
REMARK    2  A    between atoms: C_9  and  C_2 
REMARK    3  A    between atoms: C_5  and  O_4 
REMARK    4  A    between atoms: C_11  and  C_5 
REMARK    5  A    between atoms: N_10  and  C_9 
REMARK    6  A    between atoms: O_19  and  C_17 
ROOT
ATOM      1  C   UNL d   1      52.778  32.415  53.311  0.00  0.00     0.122 A 
ATOM      2  C   UNL d   1      53.554  32.639  53.482  0.00  0.00     0.043 A 
ATOM      3  C   UNL d   1      52.586  31.616  53.241  0.00  0.00     0.105 A 
ATOM      4  C   UNL d   1      53.168  31.042  53.342  0.00  0.00     0.030 A 
ATOM      5  C   UNL d   1      53.937  31.272  53.512  0.00  0.00     0.059 A 
ATOM      6  C   UNL d   1      54.136  32.064  53.583  0.00  0.00     0.015 A 
ATOM      7  N   UNL d   1      51.816  31.399  53.071  0.00  0.00    -0.242 NA
ATOM      8 CL   UNL d   1      54.509  30.672  53.610  0.00  0.00    -0.082 Cl
ATOM      9  C   UNL d   1      52.975  30.255  53.272  0.00  0.00     0.004 A 
ATOM     10  C   UNL d   1      51.624  30.599  53.001  0.00  0.00     0.099 A 
ATOM     11  C   UNL d   1      52.207  30.025  53.102  0.00  0.00     0.021 A 
ENDROOT
BRANCH   1  12
ATOM     12  O   UNL d   1      52.243  32.928  53.217  0.00  0.00    -0.271 OA
BRANCH  12  13
ATOM     13  C   UNL d   1      51.914  33.555  52.563  0.00  0.00     0.300 C 
ATOM     14  O   UNL d   1      52.521  33.680  51.773  0.00  0.00    -0.259 OA
BRANCH  13  15
ATOM     15  C   UNL d   1      51.194  33.943  52.665  0.00  0.00     0.066 A 
ATOM     16  C   UNL d   1      50.658  33.994  52.031  0.00  0.00     0.029 A 
ATOM     17  C   UNL d   1      49.931  34.387  52.138  0.00  0.00     0.094 A 
ATOM     18  C   UNL d   1      49.737  34.728  52.876  0.00  0.00     0.024 A 
ATOM     19  C   UNL d   1      50.275  34.675  53.505  0.00  0.00     0.002 A 
ATOM     20  C   UNL d   1      51.002  34.282  53.398  0.00  0.00     0.005 A 
BRANCH  17  21
ATOM     21  O   UNL d   1      49.454  34.391  51.449  0.00  0.00    -0.328 OA
ATOM     22  C   UNL d   1      48.772  34.794  51.745  0.00  0.00     0.181 C 
ENDBRANCH  17  21
ENDBRANCH  13  15
ENDBRANCH  12  13
ENDBRANCH   1  12
BRANCH   2  23
ATOM     23  C   UNL d   1      53.948  33.451  53.595  0.00  0.00     0.082 C 
BRANCH  23  24
ATOM     24  N   UNL d   1      54.338  33.616  54.298  0.00  0.00    -0.299 N 
ATOM     25  C   UNL d   1      53.918  33.741  54.984  0.00  0.00     0.107 A 
ATOM     26  C   UNL d   1      54.305  33.906  55.687  0.00  0.00     0.142 A 
ATOM     27  O   UNL d   1      55.133  33.945  55.695  0.00  0.00    -0.300 OA
ATOM     28  C   UNL d   1      55.560  33.821  55.010  0.00  0.00     0.142 A 
ATOM     29  C   UNL d   1      55.153  33.656  54.309  0.00  0.00     0.107 A 
ENDBRANCH  23  24
ENDBRANCH   2  23
TORSDOF 6
ENDMDL
