MODEL 1
REMARK VINA RESULT:      25.4      0.000      0.000
REMARK  5 active torsions:
REMARK  status: ('A' for Active; 'I' for Inactive)
REMARK    1  A    between atoms: C_2  and  N_8 
REMARK    2  A    between atoms: C_14  and  C_4 
REMARK    3  A    between atoms: S_13  and  C_5 
REMARK       I    between atoms: N_8  and  C_11 
REMARK    4  A    between atoms: C_11  and  C_17 
REMARK    5  A    between atoms: C_17  and  S_13 
ROOT
ATOM      1  O   UNL d   1      14.039  12.404  -2.712  0.00  0.00    -0.263 OA
ATOM      2  N   UNL d   1      12.805  11.897  -2.694  0.00  0.00    -0.120 NA
ATOM      3  C   UNL d   1      13.355  12.273  -3.167  0.00  0.00     0.205 A 
ATOM      4  C   UNL d   1      13.894  12.102  -1.956  0.00  0.00     0.236 A 
ATOM      5  N   UNL d   1      13.136  11.790  -1.943  0.00  0.00    -0.114 NA
ENDROOT
BRANCH   4   6
ATOM      6  S   UNL d   1      14.423  12.109  -1.307  0.00  0.00    -0.036 SA
BRANCH   6   7
ATOM      7  C   UNL d   1      14.715  12.825  -1.018  0.00  0.00     0.101 C 
BRANCH   7   8
ATOM      8  C   UNL d   1      15.215  12.827  -0.362  0.00  0.00     0.288 C 
ATOM      9  N   UNL d   1      15.485  13.540  -0.046  0.00  0.00    -0.182 NA
ATOM     10  O   UNL d   1      15.452  12.108  -0.014  0.00  0.00    -0.265 OA
BRANCH   9  11
ATOM     11  C   UNL d   1      15.253  14.246  -0.386  0.00  0.00     0.197 A 
ATOM     12  N   UNL d   1      15.473  14.616  -1.101  0.00  0.00    -0.221 NA
ATOM     13  C   UNL d   1      15.056  15.320  -1.147  0.00  0.00     0.090 A 
ATOM     14  C   UNL d   1      15.105  15.873  -1.776  0.00  0.00     0.021 C 
ATOM     15  C   UNL d   1      14.586  15.395  -0.486  0.00  0.00     0.058 A 
ATOM     16  S   UNL d   1      14.708  14.733  -0.016  0.00  0.00    -0.046 SA
ENDBRANCH   9  11
ENDBRANCH   7   8
ENDBRANCH   6   7
ENDBRANCH   4   6
BRANCH   3  17
ATOM     17  C   UNL d   1      13.302  12.506  -3.960  0.00  0.00     0.046 A 
ATOM     18  C   UNL d   1      13.334  11.948  -4.567  0.00  0.00     0.024 A 
ATOM     19  C   UNL d   1      13.281  12.183  -5.353  0.00  0.00     0.099 A 
ATOM     20  N   UNL d   1      13.196  12.989  -5.540  0.00  0.00    -0.242 NA
ATOM     21  C   UNL d   1      13.164  13.544  -4.929  0.00  0.00     0.099 A 
ATOM     22  C   UNL d   1      13.218  13.303  -4.142  0.00  0.00     0.024 A 
ENDBRANCH   3  17
TORSDOF 5
ENDMDL
