MODEL 1
REMARK VINA RESULT:      69.8      0.000      0.000
REMARK  3 active torsions:
REMARK  status: ('A' for Active; 'I' for Inactive)
REMARK    1  A    between atoms: C_10  and  C_2 
REMARK    2  A    between atoms: C_13  and  C_6 
REMARK    3  A    between atoms: O_17  and  C_10 
ROOT
ATOM      1  C   UNL d   1      60.149  49.427  51.739  0.00  0.00     0.081 A 
ATOM      2  C   UNL d   1      58.970  49.425  50.945  0.00  0.00     0.106 A 
ATOM      3  C   UNL d   1      58.519  49.613  51.616  0.00  0.00     0.208 A 
ATOM      4  C   UNL d   1      59.706  49.612  52.402  0.00  0.00     0.108 A 
ATOM      5  C   UNL d   1      60.976  49.332  51.802  0.00  0.00     0.281 A 
ATOM      6  C   UNL d   1      59.785  49.332  51.011  0.00  0.00     0.015 A 
ATOM      7  O   UNL d   1      58.892  49.705  52.340  0.00  0.00    -0.288 OA
ATOM      8  N   UNL d   1      61.349  49.426  52.535  0.00  0.00    -0.208 NA
ATOM      9  C   UNL d   1      60.079  49.706  53.135  0.00  0.00     0.044 A 
ATOM     10  C   UNL d   1      60.892  49.615  53.205  0.00  0.00     0.087 A 
ATOM     11  O   UNL d   1      61.419  49.145  51.131  0.00  0.00    -0.265 OA
ATOM     12  N   UNL d   1      57.704  49.704  51.542  0.00  0.00    -0.121 N 
ATOM     13  C   UNL d   1      61.265  49.707  53.930  0.00  0.00     0.021 C 
ENDROOT
BRANCH   6  14
ATOM     14  C   UNL d   1      60.231  49.145  50.341  0.00  0.00     0.004 A 
ATOM     15  C   UNL d   1      60.560  48.385  50.269  0.00  0.00     0.021 A 
ATOM     16  C   UNL d   1      61.005  48.195  49.602  0.00  0.00     0.099 A 
ATOM     17  N   UNL d   1      61.123  48.761  49.006  0.00  0.00    -0.242 NA
ATOM     18  C   UNL d   1      60.790  49.523  49.085  0.00  0.00     0.099 A 
ATOM     19  C   UNL d   1      60.345  49.708  49.756  0.00  0.00     0.021 A 
ENDBRANCH   6  14
BRANCH   2  20
ATOM     20  C   UNL d   1      58.602  49.330  50.213  0.00  0.00     0.299 C 
ATOM     21  O   UNL d   1      59.051  49.236  49.527  0.00  0.00    -0.259 OA
BRANCH  20  22
ATOM     22  O   UNL d   1      57.768  49.330  50.165  0.00  0.00    -0.296 OA
ATOM     23  C   UNL d   1      57.403  48.957  49.532  0.00  0.00     0.185 C 
ENDBRANCH  20  22
ENDBRANCH   2  20
TORSDOF 3
ENDMDL
