MODEL 1
REMARK VINA RESULT:      69.9      0.000      0.000
REMARK  7 active torsions:
REMARK  status: ('A' for Active; 'I' for Inactive)
REMARK    1  A    between atoms: C_10  and  N_3 
REMARK    2  A    between atoms: C_12  and  C_10 
REMARK    3  A    between atoms: C_16  and  N_11 
REMARK    4  A    between atoms: O_29  and  C_15 
REMARK    5  A    between atoms: C_27  and  C_16 
REMARK    6  A    between atoms: O_30  and  C_17 
REMARK    7  A    between atoms: C_23  and  C_27 
ROOT
ATOM      1  C   UNL d   1      13.729  13.833  -4.108  0.00  0.00     0.191 A 
ATOM      2  C   UNL d   1      13.892  14.130  -3.343  0.00  0.00     0.173 A 
ATOM      3  N   UNL d   1      13.513  12.866  -2.772  0.00  0.00    -0.224 N 
ATOM      4  N   UNL d   1      13.884  14.426  -4.661  0.00  0.00    -0.042 NA
ATOM      5  C   UNL d   1      14.190  15.252  -4.314  0.00  0.00     0.722 A 
ATOM      6  N   UNL d   1      13.458  13.055  -4.221  0.00  0.00    -0.240 N 
ATOM      7  C   UNL d   1      13.350  12.570  -3.538  0.00  0.00     0.343 A 
ATOM      8  C   UNL d   1      13.783  13.648  -2.690  0.00  0.00     0.288 A 
ATOM      9  N   UNL d   1      14.144  14.901  -3.436  0.00  0.00    -0.132 N 
ATOM     10  N   UNL d   1      14.445  16.029  -4.394  0.00  0.00    -0.139 N 
ATOM     11  O   UNL d   1      13.075  11.779  -3.645  0.00  0.00    -0.245 OA
ATOM     12  O   UNL d   1      13.945  13.945  -1.924  0.00  0.00    -0.265 OA
ATOM     13  C   UNL d   1      14.362  15.399  -2.821  0.00  0.00     0.100 A 
ATOM     14  C   UNL d   1      13.295  12.757  -4.987  0.00  0.00     0.105 C 
ATOM     15  C   UNL d   1      14.619  16.190  -2.938  0.00  0.00     0.039 A 
ATOM     16  C   UNL d   1      14.661  16.512  -3.743  0.00  0.00     0.100 A 
ENDROOT
BRANCH  10  17
ATOM     17  C   UNL d   1      14.613  16.649  -4.900  0.00  0.00     0.098 C 
BRANCH  17  18
ATOM     18  C   UNL d   1      14.001  17.061  -5.252  0.00  0.00     0.020 C 
BRANCH  18  19
ATOM     19  C   UNL d   1      14.121  17.826  -5.500  0.00  0.00     0.004 A 
ATOM     20  C   UNL d   1      13.501  18.249  -5.818  0.00  0.00     0.026 A 
ATOM     21  C   UNL d   1      13.616  19.018  -6.069  0.00  0.00     0.116 A 
ATOM     22  C   UNL d   1      14.361  19.361  -5.998  0.00  0.00     0.116 A 
ATOM     23  C   UNL d   1      14.977  18.938  -5.680  0.00  0.00     0.026 A 
ATOM     24  C   UNL d   1      14.858  18.164  -5.429  0.00  0.00     0.002 A 
BRANCH  21  25
ATOM     25  O   UNL d   1      12.994  19.444  -6.388  0.00  0.00    -0.326 OA
ATOM     26  C   UNL d   1      12.893  20.223  -6.198  0.00  0.00     0.181 C 
ENDBRANCH  21  25
BRANCH  22  27
ATOM     27  O   UNL d   1      14.275  20.118  -6.297  0.00  0.00    -0.326 OA
ATOM     28  C   UNL d   1      14.539  20.758  -5.871  0.00  0.00     0.181 C 
ENDBRANCH  22  27
ENDBRANCH  18  19
ENDBRANCH  17  18
ENDBRANCH  10  17
BRANCH   3  29
ATOM     29  C   UNL d   1      13.542  12.752  -1.940  0.00  0.00     0.090 C 
BRANCH  29  30
ATOM     30  C   UNL d   1      14.227  12.429  -1.595  0.00  0.00     0.045 A 
ATOM     31  C   UNL d   1      14.185  12.116  -0.818  0.00  0.00     0.141 A 
ATOM     32  F   UNL d   1      13.465  12.129  -0.397  0.00  0.00    -0.204 F 
ATOM     33  C   UNL d   1      14.871  11.790  -0.466  0.00  0.00     0.030 A 
ATOM     34  C   UNL d   1      15.588  11.779  -0.890  0.00  0.00     0.002 A 
ATOM     35  C   UNL d   1      15.623  12.093  -1.664  0.00  0.00     0.000 A 
ATOM     36  C   UNL d   1      14.938  12.416  -2.011  0.00  0.00     0.004 A 
ENDBRANCH  29  30
ENDBRANCH   3  29
TORSDOF 7
ENDMDL
MODEL 2
REMARK VINA RESULT:      70.8      1.096      2.049
REMARK  7 active torsions:
REMARK  status: ('A' for Active; 'I' for Inactive)
REMARK    1  A    between atoms: C_10  and  N_3 
REMARK    2  A    between atoms: C_12  and  C_10 
REMARK    3  A    between atoms: C_16  and  N_11 
REMARK    4  A    between atoms: O_29  and  C_15 
REMARK    5  A    between atoms: C_27  and  C_16 
REMARK    6  A    between atoms: O_30  and  C_17 
REMARK    7  A    between atoms: C_23  and  C_27 
ROOT
ATOM      1  C   UNL d   1      14.590  15.571  -2.798  0.00  0.00     0.191 A 
ATOM      2  C   UNL d   1      14.312  14.907  -3.226  0.00  0.00     0.173 A 
ATOM      3  N   UNL d   1      14.325  14.125  -2.020  0.00  0.00    -0.224 N 
ATOM      4  N   UNL d   1      14.671  16.206  -3.319  0.00  0.00    -0.042 NA
ATOM      5  C   UNL d   1      14.443  16.039  -4.222  0.00  0.00     0.722 A 
ATOM      6  N   UNL d   1      14.740  15.526  -1.981  0.00  0.00    -0.240 N 
ATOM      7  C   UNL d   1      14.603  14.789  -1.593  0.00  0.00     0.343 A 
ATOM      8  C   UNL d   1      14.184  14.199  -2.836  0.00  0.00     0.288 A 
ATOM      9  N   UNL d   1      14.226  15.144  -4.003  0.00  0.00    -0.132 N 
ATOM     10  N   UNL d   1      14.352  16.265  -5.007  0.00  0.00    -0.139 N 
ATOM     11  O   UNL d   1      14.753  14.737  -0.764  0.00  0.00    -0.245 OA
ATOM     12  O   UNL d   1      13.906  13.535  -3.263  0.00  0.00    -0.265 OA
ATOM     13  C   UNL d   1      13.964  14.661  -4.613  0.00  0.00     0.100 A 
ATOM     14  C   UNL d   1      15.019  16.191  -1.553  0.00  0.00     0.105 C 
ATOM     15  C   UNL d   1      13.883  14.924  -5.405  0.00  0.00     0.039 A 
ATOM     16  C   UNL d   1      14.081  15.745  -5.607  0.00  0.00     0.100 A 
ENDROOT
BRANCH  10  17
ATOM     17  C   UNL d   1      14.415  16.862  -5.562  0.00  0.00     0.098 C 
BRANCH  17  18
ATOM     18  C   UNL d   1      13.748  17.118  -5.958  0.00  0.00     0.020 C 
BRANCH  18  19
ATOM     19  C   UNL d   1      13.629  17.914  -6.075  0.00  0.00     0.004 A 
ATOM     20  C   UNL d   1      14.257  18.430  -6.007  0.00  0.00     0.026 A 
ATOM     21  C   UNL d   1      14.144  19.231  -6.123  0.00  0.00     0.116 A 
ATOM     22  C   UNL d   1      13.393  19.512  -6.310  0.00  0.00     0.116 A 
ATOM     23  C   UNL d   1      12.769  18.996  -6.377  0.00  0.00     0.026 A 
ATOM     24  C   UNL d   1      12.887  18.191  -6.259  0.00  0.00     0.002 A 
BRANCH  21  25
ATOM     25  O   UNL d   1      14.773  19.750  -6.055  0.00  0.00    -0.326 OA
ATOM     26  C   UNL d   1      15.193  19.794  -5.365  0.00  0.00     0.181 C 
ENDBRANCH  21  25
BRANCH  22  27
ATOM     27  O   UNL d   1      13.482  20.321  -6.386  0.00  0.00    -0.326 OA
ATOM     28  C   UNL d   1      12.846  20.815  -6.272  0.00  0.00     0.181 C 
ENDBRANCH  22  27
ENDBRANCH  18  19
ENDBRANCH  17  18
ENDBRANCH  10  17
BRANCH   3  29
ATOM     29  C   UNL d   1      14.088  13.319  -2.036  0.00  0.00     0.090 C 
BRANCH  29  30
ATOM     30  C   UNL d   1      14.207  12.843  -1.364  0.00  0.00     0.045 A 
ATOM     31  C   UNL d   1      14.898  12.372  -1.312  0.00  0.00     0.141 A 
ATOM     32  F   UNL d   1      15.461  12.381  -1.928  0.00  0.00    -0.204 F 
ATOM     33  C   UNL d   1      15.022  11.892  -0.638  0.00  0.00     0.030 A 
ATOM     34  C   UNL d   1      14.458  11.886  -0.025  0.00  0.00     0.002 A 
ATOM     35  C   UNL d   1      13.771  12.357  -0.082  0.00  0.00     0.000 A 
ATOM     36  C   UNL d   1      13.651  12.834  -0.755  0.00  0.00     0.004 A 
ENDBRANCH  29  30
ENDBRANCH   3  29
TORSDOF 7
ENDMDL
