MODEL 1
REMARK VINA RESULT:      42.2      0.000      0.000
REMARK  3 active torsions:
REMARK  status: ('A' for Active; 'I' for Inactive)
REMARK    1  A    between atoms: C_11  and  C_6 
REMARK    2  A    between atoms: O_20  and  C_11 
REMARK    3  A    between atoms: C_22  and  O_20 
ROOT
ATOM      1  C   UNL d   1      14.335  13.651  -2.083  0.00  0.00     0.155 A 
ATOM      2  C   UNL d   1      14.168  14.178  -2.695  0.00  0.00     0.091 A 
ATOM      3  N   UNL d   1      14.695  13.920  -1.394  0.00  0.00    -0.210 NA
ATOM      4  N   UNL d   1      14.723  15.243  -1.929  0.00  0.00    -0.258 N 
ATOM      5  N   UNL d   1      14.141  12.854  -2.160  0.00  0.00    -0.272 N 
ATOM      6  C   UNL d   1      13.610  13.105  -3.466  0.00  0.00     0.100 A 
ATOM      7  C   UNL d   1      14.886  14.710  -1.320  0.00  0.00     0.152 A 
ATOM      8  C   UNL d   1      14.362  14.974  -2.619  0.00  0.00     0.269 A 
ATOM      9  C   UNL d   1      13.777  12.578  -2.854  0.00  0.00     0.176 A 
ATOM     10  C   UNL d   1      13.807  13.911  -3.388  0.00  0.00     0.016 A 
ATOM     11  C   UNL d   1      15.249  14.986  -0.627  0.00  0.00     0.035 A 
ATOM     12  C   UNL d   1      14.916  16.040  -1.852  0.00  0.00     0.084 A 
ATOM     13  N   UNL d   1      13.582  11.779  -2.933  0.00  0.00    -0.128 N 
ATOM     14  O   UNL d   1      14.195  15.501  -3.231  0.00  0.00    -0.266 OA
ATOM     15  C   UNL d   1      15.273  16.302  -1.167  0.00  0.00     0.019 A 
ATOM     16  C   UNL d   1      15.440  15.775  -0.555  0.00  0.00     0.005 A 
ATOM     17  C   UNL d   1      14.307  12.327  -1.548  0.00  0.00     0.102 C 
ATOM     18  C   UNL d   1      15.416  14.459  -0.015  0.00  0.00     0.003 C 
ENDROOT
BRANCH   6  19
ATOM     19  C   UNL d   1      13.248  12.833  -4.158  0.00  0.00     0.303 C 
ATOM     20  O   UNL d   1      12.769  13.340  -4.598  0.00  0.00    -0.259 OA
BRANCH  19  21
ATOM     21  O   UNL d   1      13.367  12.057  -4.406  0.00  0.00    -0.271 OA
BRANCH  21  22
ATOM     22  C   UNL d   1      12.982  11.779  -5.079  0.00  0.00     0.126 C 
ATOM     23  C   UNL d   1      13.292  11.942  -5.825  0.00  0.00     0.029 C 
ENDBRANCH  21  22
ENDBRANCH  19  21
ENDBRANCH   6  19
TORSDOF 3
ENDMDL
