MODEL 1
REMARK VINA RESULT:      28.7      0.000      0.000
REMARK  3 active torsions:
REMARK  status: ('A' for Active; 'I' for Inactive)
REMARK    1  A    between atoms: O_7  and  C_1 
REMARK    2  A    between atoms: C_12  and  O_7 
REMARK    3  A    between atoms: O_20  and  C_14 
ROOT
ATOM      1  C   UNL d   1      13.964  12.201  -1.703  0.00  0.00     0.163 A 
ATOM      2  C   UNL d   1      14.401  12.069  -2.375  0.00  0.00     0.222 A 
ATOM      3  C   UNL d   1      14.021  12.016  -3.098  0.00  0.00     0.064 A 
ATOM      4  C   UNL d   1      13.194  12.099  -3.131  0.00  0.00     0.106 A 
ATOM      5  C   UNL d   1      13.182  12.278  -1.734  0.00  0.00     0.150 A 
ATOM      6  O   UNL d   1      12.777  12.231  -2.439  0.00  0.00    -0.303 OA
ATOM      7  C   UNL d   1      14.439  11.884  -3.796  0.00  0.00     0.009 A 
ATOM      8  C   UNL d   1      12.814  12.045  -3.860  0.00  0.00     0.067 A 
ATOM      9  O   UNL d   1      15.230  11.987  -2.342  0.00  0.00    -0.284 OA
ATOM     10  C   UNL d   1      13.256  11.911  -4.546  0.00  0.00     0.198 A 
ATOM     11  C   UNL d   1      14.038  11.834  -4.516  0.00  0.00     0.042 A 
ATOM     12  O   UNL d   1      12.883  11.855  -5.295  0.00  0.00    -0.286 OA
ENDROOT
BRANCH   1  13
ATOM     13  O   UNL d   1      14.363  12.258  -0.928  0.00  0.00    -0.302 OA
BRANCH  13  14
ATOM     14  C   UNL d   1      14.710  12.961  -0.697  0.00  0.00     0.100 A 
ATOM     15  C   UNL d   1      14.276  13.539  -0.266  0.00  0.00     0.027 A 
ATOM     16  C   UNL d   1      14.630  14.240  -0.039  0.00  0.00     0.026 A 
ATOM     17  C   UNL d   1      15.442  14.391  -0.237  0.00  0.00     0.094 A 
ATOM     18  C   UNL d   1      15.875  13.813  -0.669  0.00  0.00     0.026 A 
ATOM     19  C   UNL d   1      15.500  13.105  -0.892  0.00  0.00     0.027 A 
BRANCH  17  20
ATOM     20  O   UNL d   1      15.837  15.097  -0.023  0.00  0.00    -0.328 OA
ATOM     21  C   UNL d   1      15.548  15.888  -0.015  0.00  0.00     0.181 C 
ENDBRANCH  17  20
ENDBRANCH  13  14
ENDBRANCH   1  13
TORSDOF 3
ENDMDL
