MODEL 1
REMARK VINA RESULT:      -4.5      0.000      0.000
REMARK  5 active torsions:
REMARK  status: ('A' for Active; 'I' for Inactive)
REMARK    1  A    between atoms: N_2  and  C_1 
REMARK       I    between atoms: N_4  and  C_5 
REMARK    2  A    between atoms: C_5  and  C_9 
REMARK    3  A    between atoms: C_18  and  N_6 
REMARK    4  A    between atoms: C_10  and  C_8 
REMARK    5  A    between atoms: C_9  and  C_10 
ROOT
ATOM      1  N   UNL d   1      57.591   0.060  31.697  0.00  0.00    -0.269 N 
ATOM      2  C   UNL d   1      58.175  -0.043  31.100  0.00  0.00     0.265 C 
ATOM      3  N   UNL d   1      56.477   0.290  32.887  0.00  0.00    -0.301 N 
ATOM      4  C   UNL d   1      56.852  -0.305  31.647  0.00  0.00     0.102 A 
ATOM      5  C   UNL d   1      57.771   0.543  32.346  0.00  0.00     0.102 A 
ATOM      6  C   UNL d   1      56.297  -0.194  32.235  0.00  0.00     0.100 A 
ATOM      7  C   UNL d   1      57.213   0.664  32.952  0.00  0.00     0.100 A 
ATOM      8  O   UNL d   1      58.911   0.331  31.166  0.00  0.00    -0.267 OA
ENDROOT
BRANCH   2   9
ATOM      9  C   UNL d   1      58.004  -0.523  30.448  0.00  0.00     0.062 C 
BRANCH   9  10
ATOM     10  C   UNL d   1      58.485  -0.518  29.773  0.00  0.00     0.011 C 
BRANCH  10  11
ATOM     11  C   UNL d   1      58.707  -1.217  29.387  0.00  0.00     0.031 A 
ATOM     12  S   UNL d   1      58.573  -2.014  29.584  0.00  0.00    -0.064 SA
ATOM     13  C   UNL d   1      58.927  -2.468  28.989  0.00  0.00     0.156 A 
ATOM     14  C   UNL d   1      59.261  -1.974  28.456  0.00  0.00     0.031 A 
ATOM     15  C   UNL d   1      59.138  -1.196  28.681  0.00  0.00     0.009 A 
BRANCH  13  16
ATOM     16  N   UNL d   1      58.946  -3.314  28.931  0.00  0.00    -0.107 N 
ATOM     17  O   UNL d   1      59.668  -3.699  28.989  0.00  0.00    -0.531 OA
ATOM     18  O   UNL d   1      58.237  -3.723  28.819  0.00  0.00    -0.531 OA
ENDBRANCH  13  16
ENDBRANCH  10  11
ENDBRANCH   9  10
ENDBRANCH   2   9
BRANCH   3  19
ATOM     19  C   UNL d   1      55.918   0.403  33.482  0.00  0.00     0.064 A 
ATOM     20  C   UNL d   1      55.122   0.354  33.309  0.00  0.00     0.018 A 
ATOM     21  C   UNL d   1      54.552   0.470  33.915  0.00  0.00     0.002 A 
ATOM     22  C   UNL d   1      54.803   0.631  34.672  0.00  0.00     0.000 A 
ATOM     23  C   UNL d   1      55.607   0.682  34.850  0.00  0.00     0.002 A 
ATOM     24  C   UNL d   1      56.163   0.567  34.252  0.00  0.00     0.018 A 
ENDBRANCH   3  19
TORSDOF 5
ENDMDL
MODEL 2
REMARK VINA RESULT:      -2.3      8.777     10.428
REMARK  5 active torsions:
REMARK  status: ('A' for Active; 'I' for Inactive)
REMARK    1  A    between atoms: N_2  and  C_1 
REMARK       I    between atoms: N_4  and  C_5 
REMARK    2  A    between atoms: C_5  and  C_9 
REMARK    3  A    between atoms: C_18  and  N_6 
REMARK    4  A    between atoms: C_10  and  C_8 
REMARK    5  A    between atoms: C_9  and  C_10 
ROOT
ATOM      1  N   UNL d   1      59.839  -9.629  33.009  0.00  0.00    -0.269 N 
ATOM      2  C   UNL d   1      59.686  -9.602  33.836  0.00  0.00     0.265 C 
ATOM      3  N   UNL d   1      60.095  -9.691  31.385  0.00  0.00    -0.301 N 
ATOM      4  C   UNL d   1      60.599  -9.515  32.707  0.00  0.00     0.102 A 
ATOM      5  C   UNL d   1      59.206  -9.774  32.496  0.00  0.00     0.102 A 
ATOM      6  C   UNL d   1      60.730  -9.545  31.901  0.00  0.00     0.100 A 
ATOM      7  C   UNL d   1      59.327  -9.807  31.673  0.00  0.00     0.100 A 
ATOM      8  O   UNL d   1      58.918  -9.718  34.124  0.00  0.00    -0.267 OA
ENDROOT
BRANCH   2   9
ATOM      9  C   UNL d   1      60.313  -9.457  34.358  0.00  0.00     0.062 C 
BRANCH   9  10
ATOM     10  C   UNL d   1      60.177  -9.313  35.163  0.00  0.00     0.011 C 
BRANCH  10  11
ATOM     11  C   UNL d   1      60.388  -8.597  35.521  0.00  0.00     0.031 A 
ATOM     12  S   UNL d   1      60.081  -7.829  35.429  0.00  0.00    -0.064 SA
ATOM     13  C   UNL d   1      60.516  -7.337  35.933  0.00  0.00     0.156 A 
ATOM     14  C   UNL d   1      61.061  -7.780  36.314  0.00  0.00     0.031 A 
ATOM     15  C   UNL d   1      61.002  -8.562  36.076  0.00  0.00     0.009 A 
BRANCH  13  16
ATOM     16  N   UNL d   1      60.419  -6.502  36.045  0.00  0.00    -0.107 N 
ATOM     17  O   UNL d   1      61.079  -6.017  36.003  0.00  0.00    -0.531 OA
ATOM     18  O   UNL d   1      59.662  -6.203  36.193  0.00  0.00    -0.531 OA
ENDBRANCH  13  16
ENDBRANCH  10  11
ENDBRANCH   9  10
ENDBRANCH   2   9
BRANCH   3  19
ATOM     19  C   UNL d   1      60.225  -9.721  30.571  0.00  0.00     0.064 A 
ATOM     20  C   UNL d   1      60.986  -9.706  30.279  0.00  0.00     0.018 A 
ATOM     21  C   UNL d   1      61.119  -9.737  29.449  0.00  0.00     0.002 A 
ATOM     22  C   UNL d   1      60.481  -9.782  28.946  0.00  0.00     0.000 A 
ATOM     23  C   UNL d   1      59.710  -9.797  29.238  0.00  0.00     0.002 A 
ATOM     24  C   UNL d   1      59.585  -9.767  30.053  0.00  0.00     0.018 A 
ENDBRANCH   3  19
TORSDOF 5
ENDMDL
