MODEL 1
REMARK VINA RESULT:      -4.7      0.000      0.000
REMARK  1 active torsions:
REMARK  status: ('A' for Active; 'I' for Inactive)
REMARK       I    between atoms: N_2  and  C_1 
REMARK    1  A    between atoms: C_5  and  N_2 
ROOT
ATOM      1  C   UNL d   1     -41.294-122.685 -54.005  0.00  0.00     0.100 A 
ATOM      2  C   UNL d   1     -41.205-123.298 -52.472  0.00  0.00     0.058 A 
ATOM      3 CL   UNL d   1     -41.161-123.601 -51.709  0.00  0.00    -0.082 Cl
ATOM      4  C   UNL d   1     -41.318-123.505 -53.881  0.00  0.00     0.021 A 
ATOM      5  C   UNL d   1     -41.226-122.174 -53.361  0.00  0.00     0.021 A 
ATOM      6  C   UNL d   1     -41.273-123.808 -53.117  0.00  0.00     0.013 A 
ATOM      7  C   UNL d   1     -41.182-122.483 -52.593  0.00  0.00     0.013 A 
ENDROOT
BRANCH   1   8
ATOM      8  N   UNL d   1     -41.339-122.384 -54.773  0.00  0.00    -0.056 NA
ATOM      9  C   UNL d   1     -42.039-122.049 -55.048  0.00  0.00     0.787 C 
ATOM     10  N   UNL d   1     -42.087-121.748 -55.812  0.00  0.00     0.064 N 
ATOM     11  N   UNL d   1     -42.695-122.016 -54.549  0.00  0.00     0.064 N 
ENDBRANCH   1   8
TORSDOF 1
ENDMDL
MODEL 2
REMARK VINA RESULT:      -4.6      2.005      2.843
REMARK  1 active torsions:
REMARK  status: ('A' for Active; 'I' for Inactive)
REMARK       I    between atoms: N_2  and  C_1 
REMARK    1  A    between atoms: C_5  and  N_2 
ROOT
ATOM      1  C   UNL d   1     -41.698-122.777 -53.896  0.00  0.00     0.100 A 
ATOM      2  C   UNL d   1     -41.994-121.971 -55.309  0.00  0.00     0.058 A 
ATOM      3 CL   UNL d   1     -42.140-121.571 -56.013  0.00  0.00    -0.082 Cl
ATOM      4  C   UNL d   1     -42.386-122.320 -53.980  0.00  0.00     0.021 A 
ATOM      5  C   UNL d   1     -41.161-122.830 -54.520  0.00  0.00     0.021 A 
ATOM      6  C   UNL d   1     -42.531-121.919 -54.685  0.00  0.00     0.013 A 
ATOM      7  C   UNL d   1     -41.312-122.424 -55.228  0.00  0.00     0.013 A 
ENDROOT
BRANCH   1   8
ATOM      8  N   UNL d   1     -41.555-123.178 -53.188  0.00  0.00    -0.056 NA
ATOM      9  C   UNL d   1     -41.268-122.772 -52.532  0.00  0.00     0.787 C 
ATOM     10  N   UNL d   1     -41.124-123.168 -51.825  0.00  0.00     0.064 N 
ATOM     11  N   UNL d   1     -41.125-121.961 -52.588  0.00  0.00     0.064 N 
ENDBRANCH   1   8
TORSDOF 1
ENDMDL
MODEL 3
REMARK VINA RESULT:      -3.7      2.958      3.687
REMARK  1 active torsions:
REMARK  status: ('A' for Active; 'I' for Inactive)
REMARK       I    between atoms: N_2  and  C_1 
REMARK    1  A    between atoms: C_5  and  N_2 
ROOT
ATOM      1  C   UNL d   1     -41.140-122.904 -50.892  0.00  0.00     0.100 A 
ATOM      2  C   UNL d   1     -41.128-122.755 -52.539  0.00  0.00     0.058 A 
ATOM      3 CL   UNL d   1     -41.123-122.679 -53.358  0.00  0.00    -0.082 Cl
ATOM      4  C   UNL d   1     -41.133-123.581 -51.373  0.00  0.00     0.021 A 
ATOM      5  C   UNL d   1     -41.141-122.155 -51.238  0.00  0.00     0.021 A 
ATOM      6  C   UNL d   1     -41.127-123.504 -52.194  0.00  0.00     0.013 A 
ATOM      7  C   UNL d   1     -41.135-122.083 -52.064  0.00  0.00     0.013 A 
ENDROOT
BRANCH   1   8
ATOM      8  N   UNL d   1     -41.145-122.984 -50.070  0.00  0.00    -0.056 NA
ATOM      9  C   UNL d   1     -41.856-122.962 -49.656  0.00  0.00     0.787 C 
ATOM     10  N   UNL d   1     -41.865-123.041 -48.837  0.00  0.00     0.064 N 
ATOM     11  N   UNL d   1     -42.563-122.858 -50.069  0.00  0.00     0.064 N 
ENDBRANCH   1   8
TORSDOF 1
ENDMDL
MODEL 4
REMARK VINA RESULT:      -3.7      3.211      3.872
REMARK  1 active torsions:
REMARK  status: ('A' for Active; 'I' for Inactive)
REMARK       I    between atoms: N_2  and  C_1 
REMARK    1  A    between atoms: C_5  and  N_2 
ROOT
ATOM      1  C   UNL d   1     -41.989-122.998 -50.346  0.00  0.00     0.100 A 
ATOM      2  C   UNL d   1     -42.297-123.052 -48.723  0.00  0.00     0.058 A 
ATOM      3 CL   UNL d   1     -42.449-123.080 -47.915  0.00  0.00    -0.082 Cl
ATOM      4  C   UNL d   1     -42.684-122.661 -50.041  0.00  0.00     0.021 A 
ATOM      5  C   UNL d   1     -41.451-123.361 -49.837  0.00  0.00     0.021 A 
ATOM      6  C   UNL d   1     -42.835-122.689 -49.232  0.00  0.00     0.013 A 
ATOM      7  C   UNL d   1     -41.608-123.387 -49.023  0.00  0.00     0.013 A 
ENDROOT
BRANCH   1   8
ATOM      8  N   UNL d   1     -41.840-122.969 -51.158  0.00  0.00    -0.056 NA
ATOM      9  C   UNL d   1     -41.408-122.346 -51.478  0.00  0.00     0.787 C 
ATOM     10  N   UNL d   1     -41.257-122.313 -52.286  0.00  0.00     0.064 N 
ATOM     11  N   UNL d   1     -41.125-121.752 -50.981  0.00  0.00     0.064 N 
ENDBRANCH   1   8
TORSDOF 1
ENDMDL
MODEL 5
REMARK VINA RESULT:      -3.6      3.236      4.086
REMARK  1 active torsions:
REMARK  status: ('A' for Active; 'I' for Inactive)
REMARK       I    between atoms: N_2  and  C_1 
REMARK    1  A    between atoms: C_5  and  N_2 
ROOT
ATOM      1  C   UNL d   1     -41.508-122.955 -50.400  0.00  0.00     0.100 A 
ATOM      2  C   UNL d   1     -41.251-122.788 -52.025  0.00  0.00     0.058 A 
ATOM      3 CL   UNL d   1     -41.123-122.706 -52.833  0.00  0.00    -0.082 Cl
ATOM      4  C   UNL d   1     -41.558-122.207 -50.756  0.00  0.00     0.021 A 
ATOM      5  C   UNL d   1     -41.330-123.617 -50.859  0.00  0.00     0.021 A 
ATOM      6  C   UNL d   1     -41.429-122.126 -51.566  0.00  0.00     0.013 A 
ATOM      7  C   UNL d   1     -41.201-123.531 -51.674  0.00  0.00     0.013 A 
ENDROOT
BRANCH   1   8
ATOM      8  N   UNL d   1     -41.638-123.033 -49.588  0.00  0.00    -0.056 NA
ATOM      9  C   UNL d   1     -42.404-123.032 -49.288  0.00  0.00     0.787 C 
ATOM     10  N   UNL d   1     -42.537-123.109 -48.480  0.00  0.00     0.064 N 
ATOM     11  N   UNL d   1     -43.042-122.951 -49.806  0.00  0.00     0.064 N 
ENDBRANCH   1   8
TORSDOF 1
ENDMDL
