MODEL 1
REMARK VINA RESULT:       0.8      0.000      0.000
REMARK  1 active torsions:
REMARK  status: ('A' for Active; 'I' for Inactive)
REMARK    1  A    between atoms: C_6  and  C_1 
ROOT
ATOM      1  C   UNL d   1      45.264 -12.586  43.595  0.00  0.00     0.168 A 
ATOM      2  C   UNL d   1      45.352 -13.299  43.999  0.00  0.00     0.045 A 
ATOM      3  N   UNL d   1      45.876 -12.081  43.819  0.00  0.00    -0.142 NA
ATOM      4  N   UNL d   1      46.349 -12.484  44.367  0.00  0.00    -0.148 NA
ATOM      5  C   UNL d   1      46.017 -13.246  44.477  0.00  0.00     0.105 A 
ATOM      6  C   UNL d   1      44.910 -13.997  43.997  0.00  0.00     0.003 A 
ATOM      7  C   UNL d   1      46.255 -13.876  44.955  0.00  0.00     0.021 A 
ATOM      8  C   UNL d   1      45.137 -14.632  44.469  0.00  0.00     0.000 A 
ATOM      9  C   UNL d   1      45.811 -14.571  44.949  0.00  0.00     0.002 A 
ATOM     10  C   UNL d   1      44.696 -15.331  44.467  0.00  0.00     0.000 C 
ENDROOT
BRANCH   1  11
ATOM     11  C   UNL d   1      44.665 -12.408  43.059  0.00  0.00     0.231 C 
ATOM     12  O   UNL d   1      44.803 -12.465  42.244  0.00  0.00    -0.643 OA
ATOM     13  O   UNL d   1      43.922 -12.170  43.332  0.00  0.00    -0.643 OA
ENDBRANCH   1  11
TORSDOF 1
ENDMDL
MODEL 2
REMARK VINA RESULT:       2.5      5.678      6.261
REMARK  1 active torsions:
REMARK  status: ('A' for Active; 'I' for Inactive)
REMARK    1  A    between atoms: C_6  and  C_1 
ROOT
ATOM      1  C   UNL d   1      46.556 -19.001  42.057  0.00  0.00     0.168 A 
ATOM      2  C   UNL d   1      46.541 -19.169  42.864  0.00  0.00     0.045 A 
ATOM      3  N   UNL d   1      46.537 -19.713  41.641  0.00  0.00    -0.142 NA
ATOM      4  N   UNL d   1      46.510 -20.328  42.194  0.00  0.00    -0.148 NA
ATOM      5  C   UNL d   1      46.513 -19.984  42.958  0.00  0.00     0.105 A 
ATOM      6  C   UNL d   1      46.549 -18.685  43.533  0.00  0.00     0.003 A 
ATOM      7  C   UNL d   1      46.493 -20.330  43.708  0.00  0.00     0.021 A 
ATOM      8  C   UNL d   1      46.530 -19.018  44.285  0.00  0.00     0.000 A 
ATOM      9  C   UNL d   1      46.502 -19.842  44.373  0.00  0.00     0.002 A 
ATOM     10  C   UNL d   1      46.538 -18.533  44.955  0.00  0.00     0.000 C 
ENDROOT
BRANCH   1  11
ATOM     11  C   UNL d   1      46.584 -18.249  41.723  0.00  0.00     0.231 C 
ATOM     12  O   UNL d   1      46.646 -17.579  42.206  0.00  0.00    -0.643 OA
ATOM     13  O   UNL d   1      46.552 -18.160  40.902  0.00  0.00    -0.643 OA
ENDBRANCH   1  11
TORSDOF 1
ENDMDL
