MODEL 1
REMARK VINA RESULT:      82.7      0.000      0.000
REMARK  9 active torsions:
REMARK  status: ('A' for Active; 'I' for Inactive)
REMARK    1  A    between atoms: N_3  and  C_1 
REMARK    2  A    between atoms: C_20  and  N_2 
REMARK       I    between atoms: C_7  and  N_3 
REMARK    3  A    between atoms: C_10  and  C_7 
REMARK    4  A    between atoms: C_9  and  C_10 
REMARK    5  A    between atoms: C_15  and  C_9 
REMARK       I    between atoms: C_12  and  N_13 
REMARK    6  A    between atoms: N_13  and  C_14 
REMARK    7  A    between atoms: C_26  and  C_20 
REMARK    8  A    between atoms: O_22  and  C_26 
REMARK    9  A    between atoms: C_27  and  O_22 
ROOT
ATOM      1  C   UNL d   1     -57.499 -99.696 -44.289  0.00  0.00     0.182 A 
ATOM      2  N   UNL d   1     -58.136 -99.200 -44.138  0.00  0.00    -0.283 N 
ATOM      3  S   UNL d   1     -57.572 -99.974 -45.061  0.00  0.00    -0.048 SA
ATOM      4  C   UNL d   1     -58.259 -99.647 -45.388  0.00  0.00     0.050 A 
ATOM      5  C   UNL d   1     -58.609 -99.166 -44.815  0.00  0.00     0.072 A 
ATOM      6  C   UNL d   1     -58.608 -99.724 -46.130  0.00  0.00     0.027 A 
ATOM      7  C   UNL d   1     -59.308 -98.764 -44.984  0.00  0.00     0.020 A 
ATOM      8  C   UNL d   1     -59.307 -99.323 -46.300  0.00  0.00     0.085 A 
ATOM      9  C   UNL d   1     -59.657 -98.842 -45.726  0.00  0.00     0.021 A 
ENDROOT
BRANCH   1  10
ATOM     10  N   UNL d   1     -56.897 -99.879 -43.756  0.00  0.00    -0.184 NA
ATOM     11  C   UNL d   1     -56.135 -99.595 -43.891  0.00  0.00     0.281 C 
ATOM     12  O   UNL d   1     -55.983 -99.133 -44.555  0.00  0.00    -0.265 OA
BRANCH  11  13
ATOM     13  C   UNL d   1     -55.526 -99.774 -43.362  0.00  0.00     0.063 C 
BRANCH  13  14
ATOM     14  C   UNL d   1     -54.815-100.073 -43.638  0.00  0.00     0.006 C 
BRANCH  14  15
ATOM     15  C   UNL d   1     -54.785-100.539 -44.310  0.00  0.00     0.011 A 
ATOM     16  C   UNL d   1     -54.744-100.184 -45.059  0.00  0.00     0.058 A 
ATOM     17 CL   UNL d   1     -54.734 -99.351 -45.120  0.00  0.00    -0.082 Cl
ATOM     18  C   UNL d   1     -54.713-100.660 -45.747  0.00  0.00     0.011 A 
ATOM     19  C   UNL d   1     -54.722-101.473 -45.694  0.00  0.00     0.001 A 
ATOM     20  C   UNL d   1     -54.762-101.831 -44.948  0.00  0.00     0.000 A 
ATOM     21  C   UNL d   1     -54.793-101.362 -44.265  0.00  0.00     0.001 A 
ENDBRANCH  14  15
ENDBRANCH  13  14
ENDBRANCH  11  13
ENDBRANCH   1  10
BRANCH   2  22
ATOM     22  C   UNL d   1     -58.286 -98.799 -43.431  0.00  0.00     0.109 C 
BRANCH  22  23
ATOM     23  C   UNL d   1     -58.996 -98.912 -43.028  0.00  0.00     0.142 C 
BRANCH  23  24
ATOM     24  O   UNL d   1     -59.081 -99.544 -42.515  0.00  0.00    -0.302 OA
BRANCH  24  25
ATOM     25  C   UNL d   1     -59.824 -99.877 -42.359  0.00  0.00     0.123 C 
ATOM     26  C   UNL d   1     -59.956-100.319 -41.673  0.00  0.00     0.029 C 
ENDBRANCH  24  25
ENDBRANCH  23  24
ENDBRANCH  22  23
ENDBRANCH   2  22
BRANCH   8  27
ATOM     27  N   UNL d   1     -59.663 -99.400 -47.052  0.00  0.00    -0.208 NA
ATOM     28  C   UNL d   1     -59.598-100.105 -47.460  0.00  0.00     0.279 C 
ATOM     29  O   UNL d   1     -59.950-100.179 -48.202  0.00  0.00    -0.265 OA
ATOM     30  C   UNL d   1     -59.185-100.745 -47.140  0.00  0.00     0.068 C 
ENDBRANCH   8  27
TORSDOF 9
ENDMDL
