MODEL 1
REMARK VINA RESULT:      -0.6      0.000      0.000
REMARK  2 active torsions:
REMARK  status: ('A' for Active; 'I' for Inactive)
REMARK    1  A    between atoms: N_9  and  C_3 
REMARK    2  A    between atoms: C_11  and  C_4 
ROOT
ATOM      1  N   UNL d   1      58.566   0.032  30.593  0.00  0.00    -0.196 N 
ATOM      2  C   UNL d   1      58.082   0.072  31.291  0.00  0.00     0.167 A 
ATOM      3  C   UNL d   1      59.352   0.206  30.655  0.00  0.00     0.152 A 
ATOM      4  C   UNL d   1      57.290  -0.100  31.247  0.00  0.00     0.057 A 
ATOM      5  N   UNL d   1      57.423  -0.354  29.838  0.00  0.00    -0.161 NA
ATOM      6  N   UNL d   1      58.415   0.283  32.006  0.00  0.00    -0.227 NA
ATOM      7  C   UNL d   1      59.699   0.420  31.371  0.00  0.00     0.057 A 
ATOM      8  C   UNL d   1      56.954  -0.315  30.515  0.00  0.00     0.124 A 
ATOM      9  C   UNL d   1      59.222   0.459  32.059  0.00  0.00     0.086 A 
ATOM     10  C   UNL d   1      59.573   0.682  32.812  0.00  0.00     0.021 C 
ENDROOT
BRANCH   4  11
ATOM     11  C   UNL d   1      56.820  -0.061  31.925  0.00  0.00     0.005 A 
ATOM     12  C   UNL d   1      56.719  -0.726  32.385  0.00  0.00     0.001 A 
ATOM     13  C   UNL d   1      56.257  -0.688  33.052  0.00  0.00     0.011 A 
ATOM     14  C   UNL d   1      55.889   0.015  33.267  0.00  0.00     0.058 A 
ATOM     15  C   UNL d   1      55.991   0.679  32.806  0.00  0.00     0.011 A 
ATOM     16 CL   UNL d   1      55.397   0.056  33.978  0.00  0.00    -0.082 Cl
ATOM     17  C   UNL d   1      56.461   0.641  32.129  0.00  0.00     0.001 A 
ENDBRANCH   4  11
BRANCH   3  18
ATOM     18  N   UNL d   1      59.845   0.167  29.951  0.00  0.00    -0.289 N 
ATOM     19  C   UNL d   1      60.502  -0.383  29.912  0.00  0.00     0.082 A 
ATOM     20  C   UNL d   1      60.992  -0.425  29.217  0.00  0.00     0.019 A 
ATOM     21  C   UNL d   1      60.830   0.090  28.543  0.00  0.00     0.003 A 
ATOM     22  C   UNL d   1      60.169   0.639  28.590  0.00  0.00     0.019 A 
ATOM     23  C   UNL d   1      59.679   0.681  29.284  0.00  0.00     0.082 A 
ENDBRANCH   3  18
TORSDOF 2
ENDMDL
MODEL 2
REMARK VINA RESULT:       0.2      1.869      4.375
REMARK  2 active torsions:
REMARK  status: ('A' for Active; 'I' for Inactive)
REMARK    1  A    between atoms: N_9  and  C_3 
REMARK    2  A    between atoms: C_11  and  C_4 
ROOT
ATOM      1  N   UNL d   1      57.421  -0.158  31.256  0.00  0.00    -0.196 N 
ATOM      2  C   UNL d   1      58.165  -0.062  30.854  0.00  0.00     0.167 A 
ATOM      3  C   UNL d   1      57.378   0.025  32.042  0.00  0.00     0.152 A 
ATOM      4  C   UNL d   1      58.226  -0.240  30.065  0.00  0.00     0.057 A 
ATOM      5  N   UNL d   1      56.836  -0.611  30.041  0.00  0.00    -0.161 NA
ATOM      6  N   UNL d   1      58.817   0.211  31.263  0.00  0.00    -0.227 NA
ATOM      7  C   UNL d   1      58.030   0.300  32.464  0.00  0.00     0.057 A 
ATOM      8  C   UNL d   1      57.557  -0.518  29.650  0.00  0.00     0.124 A 
ATOM      9  C   UNL d   1      58.762   0.395  32.068  0.00  0.00     0.086 A 
ATOM     10  C   UNL d   1      59.449   0.682  32.499  0.00  0.00     0.021 C 
ENDROOT
BRANCH   4  11
ATOM     11  C   UNL d   1      58.947  -0.147  29.675  0.00  0.00     0.005 A 
ATOM     12  C   UNL d   1      59.163   0.586  29.391  0.00  0.00     0.001 A 
ATOM     13  C   UNL d   1      59.873   0.678  29.007  0.00  0.00     0.011 A 
ATOM     14  C   UNL d   1      60.377   0.038  28.901  0.00  0.00     0.058 A 
ATOM     15  C   UNL d   1      60.160  -0.696  29.185  0.00  0.00     0.011 A 
ATOM     16 CL   UNL d   1      61.133   0.135  28.492  0.00  0.00    -0.082 Cl
ATOM     17  C   UNL d   1      59.439  -0.789  29.575  0.00  0.00     0.001 A 
ENDBRANCH   4  11
BRANCH   3  18
ATOM     18  N   UNL d   1      56.628  -0.071  32.452  0.00  0.00    -0.289 N 
ATOM     19  C   UNL d   1      56.188   0.616  32.716  0.00  0.00     0.082 A 
ATOM     20  C   UNL d   1      55.446   0.525  33.122  0.00  0.00     0.019 A 
ATOM     21  C   UNL d   1      55.129  -0.263  33.272  0.00  0.00     0.003 A 
ATOM     22  C   UNL d   1      55.576  -0.948  33.004  0.00  0.00     0.019 A 
ATOM     23  C   UNL d   1      56.318  -0.857  32.598  0.00  0.00     0.082 A 
ENDBRANCH   3  18
TORSDOF 2
ENDMDL
MODEL 3
REMARK VINA RESULT:       1.5      2.220      4.787
REMARK  2 active torsions:
REMARK  status: ('A' for Active; 'I' for Inactive)
REMARK    1  A    between atoms: N_9  and  C_3 
REMARK    2  A    between atoms: C_11  and  C_4 
ROOT
ATOM      1  N   UNL d   1      56.386   0.303  33.411  0.00  0.00    -0.196 N 
ATOM      2  C   UNL d   1      56.915   0.240  32.748  0.00  0.00     0.167 A 
ATOM      3  C   UNL d   1      56.693   0.481  34.137  0.00  0.00     0.152 A 
ATOM      4  C   UNL d   1      56.624   0.062  32.011  0.00  0.00     0.057 A 
ATOM      5  N   UNL d   1      55.293   0.002  32.552  0.00  0.00    -0.161 NA
ATOM      6  N   UNL d   1      57.716   0.360  32.852  0.00  0.00    -0.227 NA
ATOM      7  C   UNL d   1      57.500   0.603  34.253  0.00  0.00     0.057 A 
ATOM      8  C   UNL d   1      55.805  -0.059  31.909  0.00  0.00     0.124 A 
ATOM      9  C   UNL d   1      58.021   0.542  33.600  0.00  0.00     0.086 A 
ATOM     10  C   UNL d   1      58.864   0.667  33.711  0.00  0.00     0.021 C 
ENDROOT
BRANCH   4  11
ATOM     11  C   UNL d   1      57.137   0.001  31.368  0.00  0.00     0.005 A 
ATOM     12  C   UNL d   1      57.364   0.673  30.966  0.00  0.00     0.001 A 
ATOM     13  C   UNL d   1      57.869   0.613  30.333  0.00  0.00     0.011 A 
ATOM     14  C   UNL d   1      58.153  -0.119  30.091  0.00  0.00     0.058 A 
ATOM     15  C   UNL d   1      57.925  -0.791  30.494  0.00  0.00     0.011 A 
ATOM     16 CL   UNL d   1      58.691  -0.183  29.417  0.00  0.00    -0.082 Cl
ATOM     17  C   UNL d   1      57.413  -0.730  31.137  0.00  0.00     0.001 A 
ENDBRANCH   4  11
BRANCH   3  18
ATOM     18  N   UNL d   1      56.162   0.545  34.810  0.00  0.00    -0.289 N 
ATOM     19  C   UNL d   1      56.475   0.565  35.608  0.00  0.00     0.082 A 
ATOM     20  C   UNL d   1      55.952   0.628  36.277  0.00  0.00     0.019 A 
ATOM     21  C   UNL d   1      55.099   0.674  36.156  0.00  0.00     0.003 A 
ATOM     22  C   UNL d   1      54.792   0.654  35.352  0.00  0.00     0.019 A 
ATOM     23  C   UNL d   1      55.315   0.590  34.683  0.00  0.00     0.082 A 
ENDBRANCH   3  18
TORSDOF 2
ENDMDL
