MODEL 1
REMARK VINA RESULT:      -3.4      0.000      0.000
REMARK  3 active torsions:
REMARK  status: ('A' for Active; 'I' for Inactive)
REMARK    1  A    between atoms: N_5  and  C_2 
REMARK    2  A    between atoms: C_9  and  C_3 
REMARK       I    between atoms: C_7  and  N_5 
REMARK    3  A    between atoms: C_8  and  C_7 
ROOT
ATOM      1  N   UNL d   1      32.946  22.365 -19.457  0.00  0.00    -0.200 NA
ATOM      2  C   UNL d   1      33.092  22.486 -20.252  0.00  0.00     0.216 A 
ATOM      3  C   UNL d   1      32.826  23.100 -19.100  0.00  0.00     0.172 A 
ATOM      4  N   UNL d   1      32.901  23.677 -19.686  0.00  0.00    -0.187 NA
ATOM      5  S   UNL d   1      33.066  23.300 -20.406  0.00  0.00     0.054 SA
ENDROOT
BRANCH   2   6
ATOM      6  N   UNL d   1      33.241  21.899 -20.811  0.00  0.00    -0.181 NA
ATOM      7  C   UNL d   1      32.615  21.489 -21.144  0.00  0.00     0.281 C 
ATOM      8  O   UNL d   1      31.840  21.662 -20.923  0.00  0.00    -0.265 OA
BRANCH   7   9
ATOM      9  C   UNL d   1      32.764  20.902 -21.704  0.00  0.00     0.058 A 
ATOM     10  C   UNL d   1      32.945  21.109 -22.480  0.00  0.00     0.006 A 
ATOM     11  C   UNL d   1      33.093  20.521 -23.040  0.00  0.00     0.012 A 
ATOM     12  C   UNL d   1      33.061  19.727 -22.824  0.00  0.00     0.058 A 
ATOM     13  C   UNL d   1      32.881  19.521 -22.047  0.00  0.00     0.012 A 
ATOM     14 CL   UNL d   1      33.210  19.139 -23.383  0.00  0.00    -0.082 Cl
ATOM     15  C   UNL d   1      32.732  20.109 -21.488  0.00  0.00     0.006 A 
ENDBRANCH   7   9
ENDBRANCH   2   6
BRANCH   3  16
ATOM     16  C   UNL d   1      32.664  23.237 -18.310  0.00  0.00     0.036 A 
ATOM     17  C   UNL d   1      33.226  23.048 -17.737  0.00  0.00     0.003 A 
ATOM     18  C   UNL d   1      33.060  23.187 -16.933  0.00  0.00     0.000 A 
ATOM     19  C   UNL d   1      32.331  23.516 -16.708  0.00  0.00     0.000 A 
ATOM     20  C   UNL d   1      31.771  23.702 -17.291  0.00  0.00     0.000 A 
ATOM     21  C   UNL d   1      31.935  23.565 -18.086  0.00  0.00     0.003 A 
ENDBRANCH   3  16
TORSDOF 3
ENDMDL
MODEL 2
REMARK VINA RESULT:      -3.2      2.387      5.450
REMARK  3 active torsions:
REMARK  status: ('A' for Active; 'I' for Inactive)
REMARK    1  A    between atoms: N_5  and  C_2 
REMARK    2  A    between atoms: C_9  and  C_3 
REMARK       I    between atoms: C_7  and  N_5 
REMARK    3  A    between atoms: C_8  and  C_7 
ROOT
ATOM      1  N   UNL d   1      32.981  19.332 -22.188  0.00  0.00    -0.200 NA
ATOM      2  C   UNL d   1      33.153  20.130 -22.237  0.00  0.00     0.216 A 
ATOM      3  C   UNL d   1      32.943  19.028 -22.955  0.00  0.00     0.172 A 
ATOM      4  N   UNL d   1      33.094  19.647 -23.478  0.00  0.00    -0.187 NA
ATOM      5  S   UNL d   1      33.226  20.337 -23.036  0.00  0.00     0.054 SA
ENDROOT
BRANCH   2   6
ATOM      6  N   UNL d   1      33.241  20.646 -21.601  0.00  0.00    -0.181 NA
ATOM      7  C   UNL d   1      32.620  21.135 -21.387  0.00  0.00     0.281 C 
ATOM      8  O   UNL d   1      31.910  21.113 -21.806  0.00  0.00    -0.265 OA
BRANCH   7   9
ATOM      9  C   UNL d   1      32.707  21.652 -20.750  0.00  0.00     0.058 A 
ATOM     10  C   UNL d   1      32.356  22.396 -20.772  0.00  0.00     0.006 A 
ATOM     11  C   UNL d   1      32.444  22.913 -20.134  0.00  0.00     0.012 A 
ATOM     12  C   UNL d   1      32.883  22.685 -19.475  0.00  0.00     0.058 A 
ATOM     13  C   UNL d   1      33.234  21.940 -19.455  0.00  0.00     0.012 A 
ATOM     14 CL   UNL d   1      32.971  23.202 -18.838  0.00  0.00    -0.082 Cl
ATOM     15  C   UNL d   1      33.146  21.424 -20.092  0.00  0.00     0.006 A 
ENDBRANCH   7   9
ENDBRANCH   2   6
BRANCH   3  16
ATOM     16  C   UNL d   1      32.784  18.252 -23.162  0.00  0.00     0.036 A 
ATOM     17  C   UNL d   1      33.240  17.642 -22.847  0.00  0.00     0.003 A 
ATOM     18  C   UNL d   1      33.078  16.853 -23.058  0.00  0.00     0.000 A 
ATOM     19  C   UNL d   1      32.459  16.681 -23.586  0.00  0.00     0.000 A 
ATOM     20  C   UNL d   1      32.006  17.300 -23.898  0.00  0.00     0.000 A 
ATOM     21  C   UNL d   1      32.166  18.081 -23.689  0.00  0.00     0.003 A 
ENDBRANCH   3  16
TORSDOF 3
ENDMDL
MODEL 3
REMARK VINA RESULT:      -2.1      1.612      2.052
REMARK  3 active torsions:
REMARK  status: ('A' for Active; 'I' for Inactive)
REMARK    1  A    between atoms: N_5  and  C_2 
REMARK    2  A    between atoms: C_9  and  C_3 
REMARK       I    between atoms: C_7  and  N_5 
REMARK    3  A    between atoms: C_8  and  C_7 
ROOT
ATOM      1  N   UNL d   1      33.051  22.963 -19.214  0.00  0.00    -0.200 NA
ATOM      2  C   UNL d   1      33.176  22.476 -19.858  0.00  0.00     0.216 A 
ATOM      3  C   UNL d   1      33.026  22.494 -18.534  0.00  0.00     0.172 A 
ATOM      4  N   UNL d   1      33.137  21.711 -18.768  0.00  0.00    -0.187 NA
ATOM      5  S   UNL d   1      33.231  21.694 -19.592  0.00  0.00     0.054 SA
ENDROOT
BRANCH   2   6
ATOM      6  N   UNL d   1      33.238  22.719 -20.643  0.00  0.00    -0.181 NA
ATOM      7  C   UNL d   1      32.696  22.448 -21.195  0.00  0.00     0.281 C 
ATOM      8  O   UNL d   1      32.092  21.935 -20.967  0.00  0.00    -0.265 OA
BRANCH   7   9
ATOM      9  C   UNL d   1      32.757  22.691 -21.981  0.00  0.00     0.058 A 
ATOM     10  C   UNL d   1      32.501  23.441 -22.201  0.00  0.00     0.006 A 
ATOM     11  C   UNL d   1      32.562  23.684 -22.987  0.00  0.00     0.012 A 
ATOM     12  C   UNL d   1      32.881  23.177 -23.553  0.00  0.00     0.058 A 
ATOM     13  C   UNL d   1      33.137  22.426 -23.331  0.00  0.00     0.012 A 
ATOM     14 CL   UNL d   1      32.942  23.419 -24.339  0.00  0.00    -0.082 Cl
ATOM     15  C   UNL d   1      33.075  22.183 -22.545  0.00  0.00     0.006 A 
ENDBRANCH   7   9
ENDBRANCH   2   6
BRANCH   3  16
ATOM     16  C   UNL d   1      32.912  22.755 -17.767  0.00  0.00     0.036 A 
ATOM     17  C   UNL d   1      32.471  23.437 -17.627  0.00  0.00     0.003 A 
ATOM     18  C   UNL d   1      32.355  23.702 -16.846  0.00  0.00     0.000 A 
ATOM     19  C   UNL d   1      32.683  23.280 -16.210  0.00  0.00     0.000 A 
ATOM     20  C   UNL d   1      33.126  22.596 -16.360  0.00  0.00     0.000 A 
ATOM     21  C   UNL d   1      33.241  22.333 -17.132  0.00  0.00     0.003 A 
ENDBRANCH   3  16
TORSDOF 3
ENDMDL
MODEL 4
REMARK VINA RESULT:      -2.1      1.945      4.954
REMARK  3 active torsions:
REMARK  status: ('A' for Active; 'I' for Inactive)
REMARK    1  A    between atoms: N_5  and  C_2 
REMARK    2  A    between atoms: C_9  and  C_3 
REMARK       I    between atoms: C_7  and  N_5 
REMARK    3  A    between atoms: C_8  and  C_7 
ROOT
ATOM      1  N   UNL d   1      33.201  21.231 -21.012  0.00  0.00    -0.200 NA
ATOM      2  C   UNL d   1      33.228  22.013 -20.776  0.00  0.00     0.216 A 
ATOM      3  C   UNL d   1      33.197  21.209 -21.838  0.00  0.00     0.172 A 
ATOM      4  N   UNL d   1      33.222  21.988 -22.108  0.00  0.00    -0.187 NA
ATOM      5  S   UNL d   1      33.241  22.493 -21.450  0.00  0.00     0.054 SA
ENDROOT
BRANCH   2   6
ATOM      6  N   UNL d   1      33.240  22.282 -19.997  0.00  0.00    -0.181 NA
ATOM      7  C   UNL d   1      32.567  22.623 -19.676  0.00  0.00     0.281 C 
ATOM      8  O   UNL d   1      31.882  22.696 -20.128  0.00  0.00    -0.265 OA
BRANCH   7   9
ATOM      9  C   UNL d   1      32.579  22.893 -18.896  0.00  0.00     0.058 A 
ATOM     10  C   UNL d   1      31.960  23.354 -18.610  0.00  0.00     0.006 A 
ATOM     11  C   UNL d   1      31.972  23.624 -17.831  0.00  0.00     0.012 A 
ATOM     12  C   UNL d   1      32.604  23.432 -17.337  0.00  0.00     0.058 A 
ATOM     13  C   UNL d   1      33.222  22.972 -17.624  0.00  0.00     0.012 A 
ATOM     14 CL   UNL d   1      32.616  23.702 -16.558  0.00  0.00    -0.082 Cl
ATOM     15  C   UNL d   1      33.210  22.702 -18.404  0.00  0.00     0.006 A 
ENDBRANCH   7   9
ENDBRANCH   2   6
BRANCH   3  16
ATOM     16  C   UNL d   1      33.173  20.539 -22.307  0.00  0.00     0.036 A 
ATOM     17  C   UNL d   1      33.195  19.793 -21.957  0.00  0.00     0.003 A 
ATOM     18  C   UNL d   1      33.170  19.111 -22.435  0.00  0.00     0.000 A 
ATOM     19  C   UNL d   1      33.124  19.183 -23.261  0.00  0.00     0.000 A 
ATOM     20  C   UNL d   1      33.103  19.937 -23.605  0.00  0.00     0.000 A 
ATOM     21  C   UNL d   1      33.127  20.611 -23.133  0.00  0.00     0.003 A 
ENDBRANCH   3  16
TORSDOF 3
ENDMDL
MODEL 5
REMARK VINA RESULT:      -1.7      2.863      5.973
REMARK  3 active torsions:
REMARK  status: ('A' for Active; 'I' for Inactive)
REMARK    1  A    between atoms: N_5  and  C_2 
REMARK    2  A    between atoms: C_9  and  C_3 
REMARK       I    between atoms: C_7  and  N_5 
REMARK    3  A    between atoms: C_8  and  C_7 
ROOT
ATOM      1  N   UNL d   1      32.132  18.959 -23.023  0.00  0.00    -0.200 NA
ATOM      2  C   UNL d   1      32.729  19.503 -22.895  0.00  0.00     0.216 A 
ATOM      3  C   UNL d   1      32.256  18.605 -23.759  0.00  0.00     0.172 A 
ATOM      4  N   UNL d   1      32.937  18.938 -24.084  0.00  0.00    -0.187 NA
ATOM      5  S   UNL d   1      33.236  19.499 -23.550  0.00  0.00     0.054 SA
ENDROOT
BRANCH   2   6
ATOM      6  N   UNL d   1      32.815  19.979 -22.228  0.00  0.00    -0.181 NA
ATOM      7  C   UNL d   1      32.721  20.790 -22.295  0.00  0.00     0.281 C 
ATOM      8  O   UNL d   1      32.542  21.130 -23.024  0.00  0.00    -0.265 OA
BRANCH   7   9
ATOM      9  C   UNL d   1      32.807  21.267 -21.627  0.00  0.00     0.058 A 
ATOM     10  C   UNL d   1      32.587  20.982 -20.886  0.00  0.00     0.006 A 
ATOM     11  C   UNL d   1      32.673  21.459 -20.218  0.00  0.00     0.012 A 
ATOM     12  C   UNL d   1      32.979  22.220 -20.291  0.00  0.00     0.058 A 
ATOM     13  C   UNL d   1      33.199  22.504 -21.032  0.00  0.00     0.012 A 
ATOM     14 CL   UNL d   1      33.065  22.697 -19.623  0.00  0.00    -0.082 Cl
ATOM     15  C   UNL d   1      33.113  22.027 -21.700  0.00  0.00     0.006 A 
ENDBRANCH   7   9
ENDBRANCH   2   6
BRANCH   3  16
ATOM     16  C   UNL d   1      31.791  18.028 -24.106  0.00  0.00     0.036 A 
ATOM     17  C   UNL d   1      31.289  18.227 -24.729  0.00  0.00     0.003 A 
ATOM     18  C   UNL d   1      30.816  17.640 -25.082  0.00  0.00     0.000 A 
ATOM     19  C   UNL d   1      30.849  16.856 -24.808  0.00  0.00     0.000 A 
ATOM     20  C   UNL d   1      31.357  16.665 -24.181  0.00  0.00     0.000 A 
ATOM     21  C   UNL d   1      31.825  17.246 -23.831  0.00  0.00     0.003 A 
ENDBRANCH   3  16
TORSDOF 3
ENDMDL
