MODEL 1
REMARK VINA RESULT:      41.4      0.000      0.000
REMARK  5 active torsions:
REMARK  status: ('A' for Active; 'I' for Inactive)
REMARK    1  A    between atoms: O_5  and  C_1 
REMARK    2  A    between atoms: C_10  and  C_2 
REMARK    3  A    between atoms: C_3  and  O_5 
REMARK    4  A    between atoms: C_6  and  C_3 
REMARK    5  A    between atoms: N_11  and  C_10 
ROOT
ATOM      1  C   UNL d   1      13.827  13.307  -3.289  0.00  0.00     0.122 A 
ATOM      2  C   UNL d   1      13.859  14.129  -3.235  0.00  0.00     0.043 A 
ATOM      3  C   UNL d   1      13.474  12.951  -3.944  0.00  0.00     0.105 A 
ATOM      4  C   UNL d   1      13.153  13.417  -4.544  0.00  0.00     0.030 A 
ATOM      5  C   UNL d   1      13.190  14.234  -4.483  0.00  0.00     0.059 A 
ATOM      6  C   UNL d   1      13.539  14.595  -3.835  0.00  0.00     0.015 A 
ATOM      7  N   UNL d   1      13.443  12.135  -3.994  0.00  0.00    -0.242 NA
ATOM      8 CL   UNL d   1      12.859  14.685  -5.103  0.00  0.00    -0.082 Cl
ATOM      9  C   UNL d   1      12.806  13.062  -5.187  0.00  0.00     0.004 A 
ATOM     10  C   UNL d   1      13.090  11.780  -4.649  0.00  0.00     0.099 A 
ATOM     11  C   UNL d   1      12.770  12.245  -5.249  0.00  0.00     0.021 A 
ENDROOT
BRANCH   1  12
ATOM     12  O   UNL d   1      14.114  12.876  -2.751  0.00  0.00    -0.271 OA
BRANCH  12  13
ATOM     13  C   UNL d   1      13.846  12.232  -2.085  0.00  0.00     0.302 C 
ATOM     14  O   UNL d   1      12.971  11.779  -2.281  0.00  0.00    -0.259 OA
BRANCH  13  15
ATOM     15  C   UNL d   1      14.310  12.083  -1.421  0.00  0.00     0.091 A 
ATOM     16  C   UNL d   1      13.949  11.951  -0.684  0.00  0.00     0.145 A 
ATOM     17  F   UNL d   1      13.083  11.957  -0.552  0.00  0.00    -0.204 F 
ATOM     18  C   UNL d   1      14.422  11.801  -0.014  0.00  0.00     0.030 A 
ATOM     19  C   UNL d   1      15.255  11.782  -0.079  0.00  0.00     0.002 A 
ATOM     20  C   UNL d   1      15.612  11.915  -0.816  0.00  0.00     0.000 A 
ATOM     21  C   UNL d   1      15.138  12.065  -1.485  0.00  0.00     0.008 A 
ENDBRANCH  13  15
ENDBRANCH  12  13
ENDBRANCH   1  12
BRANCH   2  22
ATOM     22  C   UNL d   1      14.200  14.691  -2.605  0.00  0.00     0.082 C 
BRANCH  22  23
ATOM     23  N   UNL d   1      14.483  15.427  -2.831  0.00  0.00    -0.299 N 
ATOM     24  C   UNL d   1      14.734  15.957  -2.262  0.00  0.00     0.107 A 
ATOM     25  C   UNL d   1      15.021  16.702  -2.475  0.00  0.00     0.142 A 
ATOM     26  O   UNL d   1      15.050  16.904  -3.265  0.00  0.00    -0.300 OA
ATOM     27  C   UNL d   1      14.795  16.369  -3.845  0.00  0.00     0.142 A 
ATOM     28  C   UNL d   1      14.514  15.635  -3.617  0.00  0.00     0.107 A 
ENDBRANCH  22  23
ENDBRANCH   2  22
TORSDOF 5
ENDMDL
