MODEL 1
REMARK VINA RESULT:      -5.1      0.000      0.000
REMARK  4 active torsions:
REMARK  status: ('A' for Active; 'I' for Inactive)
REMARK    1  A    between atoms: C_7  and  C_2 
REMARK    2  A    between atoms: O_8  and  C_7 
REMARK    3  A    between atoms: C_9  and  O_8 
REMARK    4  A    between atoms: O_11  and  C_10 
ROOT
ATOM      1  C   UNL d   1      57.170   0.250  31.357  0.00  0.00     0.161 C 
ENDROOT
BRANCH   1   2
ATOM      2  C   UNL d   1      57.853   0.349  30.911  0.00  0.00     0.188 A 
ATOM      3  N   UNL d   1      57.717   0.191  30.098  0.00  0.00    -0.224 NA
ATOM      4  C   UNL d   1      58.436   0.306  29.697  0.00  0.00     0.101 A 
ATOM      5  C   UNL d   1      59.011   0.532  30.249  0.00  0.00     0.101 A 
ATOM      6  C   UNL d   1      58.626   0.231  28.901  0.00  0.00     0.021 A 
ATOM      7  C   UNL d   1      59.783   0.682  29.989  0.00  0.00     0.021 A 
ATOM      8  N   UNL d   1      58.653   0.559  30.996  0.00  0.00    -0.224 NA
ATOM      9  C   UNL d   1      59.974   0.607  29.193  0.00  0.00     0.002 A 
ATOM     10  C   UNL d   1      59.393   0.381  28.648  0.00  0.00     0.002 A 
ENDBRANCH   1   2
BRANCH   1  11
ATOM     11  O   UNL d   1      57.218   0.139  32.163  0.00  0.00    -0.302 OA
BRANCH  11  12
ATOM     12  C   UNL d   1      56.559  -0.118  32.589  0.00  0.00     0.102 A 
ATOM     13  C   UNL d   1      56.176   0.403  33.095  0.00  0.00     0.049 A 
ATOM     14  C   UNL d   1      55.516   0.145  33.521  0.00  0.00     0.096 A 
ATOM     15  C   UNL d   1      55.250  -0.632  33.434  0.00  0.00     0.024 A 
ATOM     16  C   UNL d   1      55.643  -1.153  32.922  0.00  0.00     0.004 A 
ATOM     17  C   UNL d   1      56.298  -0.883  32.504  0.00  0.00     0.025 A 
BRANCH  14  18
ATOM     18  O   UNL d   1      55.126   0.662  34.030  0.00  0.00    -0.328 OA
ATOM     19  C   UNL d   1      55.333   0.682  34.831  0.00  0.00     0.181 C 
ENDBRANCH  14  18
ENDBRANCH  11  12
ENDBRANCH   1  11
TORSDOF 4
ENDMDL
MODEL 2
REMARK VINA RESULT:      -5.0      1.675      4.914
REMARK  4 active torsions:
REMARK  status: ('A' for Active; 'I' for Inactive)
REMARK    1  A    between atoms: C_7  and  C_2 
REMARK    2  A    between atoms: O_8  and  C_7 
REMARK    3  A    between atoms: C_9  and  O_8 
REMARK    4  A    between atoms: O_11  and  C_10 
ROOT
ATOM      1  C   UNL d   1      57.730  -0.659  30.873  0.00  0.00     0.161 C 
ENDROOT
BRANCH   1   2
ATOM      2  C   UNL d   1      57.188  -0.410  31.439  0.00  0.00     0.188 A 
ATOM      3  N   UNL d   1      56.838  -1.060  31.839  0.00  0.00    -0.224 NA
ATOM      4  C   UNL d   1      56.303  -0.753  32.396  0.00  0.00     0.101 A 
ATOM      5  C   UNL d   1      56.318   0.074  32.345  0.00  0.00     0.101 A 
ATOM      6  C   UNL d   1      55.811  -1.131  32.935  0.00  0.00     0.021 A 
ATOM      7  C   UNL d   1      55.829   0.518  32.846  0.00  0.00     0.021 A 
ATOM      8  N   UNL d   1      56.862   0.285  31.757  0.00  0.00    -0.224 NA
ATOM      9  C   UNL d   1      55.338   0.140  33.385  0.00  0.00     0.002 A 
ATOM     10  C   UNL d   1      55.328  -0.687  33.430  0.00  0.00     0.002 A 
ENDBRANCH   1   2
BRANCH   1  11
ATOM     11  O   UNL d   1      57.816  -0.244  30.177  0.00  0.00    -0.302 OA
BRANCH  11  12
ATOM     12  C   UNL d   1      58.461  -0.389  29.682  0.00  0.00     0.102 A 
ATOM     13  C   UNL d   1      58.537  -1.122  29.321  0.00  0.00     0.049 A 
ATOM     14  C   UNL d   1      59.184  -1.266  28.826  0.00  0.00     0.096 A 
ATOM     15  C   UNL d   1      59.745  -0.673  28.700  0.00  0.00     0.024 A 
ATOM     16  C   UNL d   1      59.661   0.065  29.069  0.00  0.00     0.004 A 
ATOM     17  C   UNL d   1      59.013   0.195  29.559  0.00  0.00     0.025 A 
BRANCH  14  18
ATOM     18  O   UNL d   1      59.267  -1.999  28.460  0.00  0.00    -0.328 OA
ATOM     19  C   UNL d   1      59.883  -2.503  28.689  0.00  0.00     0.181 C 
ENDBRANCH  14  18
ENDBRANCH  11  12
ENDBRANCH   1  11
TORSDOF 4
ENDMDL
