MODEL 1
REMARK VINA RESULT:      25.4      0.000      0.000
REMARK  5 active torsions:
REMARK  status: ('A' for Active; 'I' for Inactive)
REMARK    1  A    between atoms: C_2  and  C_1 
REMARK    2  A    between atoms: C_6  and  C_2 
REMARK    3  A    between atoms: C_3  and  O_5 
REMARK    4  A    between atoms: C_11  and  C_3 
REMARK    5  A    between atoms: O_5  and  C_6 
ROOT
ATOM      1  O   UNL d   1     -56.044-102.879 -37.097  0.00  0.00    -0.268 OA
ENDROOT
BRANCH   1   2
ATOM      2  C   UNL d   1     -55.512-102.870 -37.734  0.00  0.00     0.300 C 
ATOM      3  O   UNL d   1     -54.713-102.867 -37.581  0.00  0.00    -0.259 OA
BRANCH   2   4
ATOM      4  C   UNL d   1     -55.784-102.864 -38.506  0.00  0.00     0.064 A 
ATOM      5  C   UNL d   1     -56.586-102.878 -38.664  0.00  0.00     0.005 A 
ATOM      6  C   UNL d   1     -56.854-102.872 -39.435  0.00  0.00     0.000 A 
ATOM      7  C   UNL d   1     -56.325-102.851 -40.057  0.00  0.00     0.000 A 
ATOM      8  C   UNL d   1     -55.515-102.837 -39.903  0.00  0.00     0.000 A 
ATOM      9  C   UNL d   1     -55.239-102.843 -39.127  0.00  0.00     0.005 A 
ENDBRANCH   2   4
ENDBRANCH   1   2
BRANCH   1  10
ATOM     10  C   UNL d   1     -55.746-102.852 -36.315  0.00  0.00     0.168 C 
BRANCH  10  11
ATOM     11  C   UNL d   1     -56.069-102.351 -35.753  0.00  0.00     0.226 C 
ATOM     12  O   UNL d   1     -56.740-102.555 -35.317  0.00  0.00    -0.284 OA
BRANCH  11  13
ATOM     13  C   UNL d   1     -55.681-101.589 -35.630  0.00  0.00     0.070 A 
ATOM     14  S   UNL d   1     -54.849-101.417 -35.749  0.00  0.00    -0.083 SA
ATOM     15  C   UNL d   1     -54.712-100.584 -35.557  0.00  0.00     0.035 A 
ATOM     16  C   UNL d   1     -55.467-100.238 -35.316  0.00  0.00     0.008 A 
ATOM     17  C   UNL d   1     -56.068-100.856 -35.359  0.00  0.00     0.010 A 
ENDBRANCH  11  13
ENDBRANCH  10  11
ENDBRANCH   1  10
TORSDOF 5
ENDMDL
