MODEL 1
REMARK VINA RESULT:      -2.0      0.000      0.000
REMARK  5 active torsions:
REMARK  status: ('A' for Active; 'I' for Inactive)
REMARK    1  A    between atoms: C_6  and  C_1 
REMARK    2  A    between atoms: C_11  and  N_3 
REMARK    3  A    between atoms: C_20  and  C_11 
REMARK    4  A    between atoms: C_13  and  O_19 
REMARK    5  A    between atoms: O_19  and  C_20 
ROOT
ATOM      1  C   UNL d   1      31.337  16.532 -24.315  0.00  0.00     0.171 A 
ATOM      2  N   UNL d   1      30.591  16.176 -24.286  0.00  0.00    -0.225 NA
ATOM      3  N   UNL d   1      31.230  17.346 -24.443  0.00  0.00    -0.286 N 
ATOM      4  C   UNL d   1      30.417  17.493 -24.493  0.00  0.00     0.083 A 
ATOM      5  C   UNL d   1      30.021  16.770 -24.396  0.00  0.00     0.099 A 
ATOM      6  C   UNL d   1      29.973  18.190 -24.614  0.00  0.00     0.019 A 
ATOM      7  C   UNL d   1      29.190  16.744 -24.419  0.00  0.00     0.021 A 
ATOM      8  C   UNL d   1      29.150  18.160 -24.637  0.00  0.00     0.002 A 
ATOM      9  C   UNL d   1      28.758  17.435 -24.539  0.00  0.00     0.002 A 
ENDROOT
BRANCH   3  10
ATOM     10  C   UNL d   1      31.931  17.779 -24.486  0.00  0.00     0.108 C 
BRANCH  10  11
ATOM     11  C   UNL d   1      32.027  18.452 -24.020  0.00  0.00     0.142 C 
BRANCH  11  12
ATOM     12  O   UNL d   1      32.785  18.707 -23.819  0.00  0.00    -0.304 OA
BRANCH  12  13
ATOM     13  C   UNL d   1      32.885  19.264 -23.220  0.00  0.00     0.100 A 
ATOM     14  C   UNL d   1      32.727  20.059 -23.378  0.00  0.00     0.026 A 
ATOM     15  C   UNL d   1      32.825  20.621 -22.781  0.00  0.00     0.013 A 
ATOM     16  C   UNL d   1      33.083  20.382 -22.030  0.00  0.00     0.058 A 
ATOM     17  C   UNL d   1      33.239  19.586 -21.880  0.00  0.00     0.013 A 
ATOM     18 CL   UNL d   1      33.181  20.941 -21.434  0.00  0.00    -0.082 Cl
ATOM     19  C   UNL d   1      33.139  19.028 -22.479  0.00  0.00     0.026 A 
ENDBRANCH  12  13
ENDBRANCH  11  12
ENDBRANCH  10  11
ENDBRANCH   3  10
BRANCH   1  20
ATOM     20  C   UNL d   1      32.062  16.146 -24.232  0.00  0.00     0.134 A 
ATOM     21  O   UNL d   1      32.597  15.963 -24.678  0.00  0.00    -0.302 OA
ATOM     22  C   UNL d   1      33.175  15.618 -24.427  0.00  0.00     0.123 A 
ATOM     23  C   UNL d   1      33.223  15.453 -23.724  0.00  0.00     0.029 A 
ATOM     24  C   UNL d   1      32.689  15.636 -23.282  0.00  0.00     0.030 A 
ENDBRANCH   1  20
TORSDOF 5
ENDMDL
MODEL 2
REMARK VINA RESULT:      -1.8      2.791      5.611
REMARK  5 active torsions:
REMARK  status: ('A' for Active; 'I' for Inactive)
REMARK    1  A    between atoms: C_6  and  C_1 
REMARK    2  A    between atoms: C_11  and  N_3 
REMARK    3  A    between atoms: C_20  and  C_11 
REMARK    4  A    between atoms: C_13  and  O_19 
REMARK    5  A    between atoms: O_19  and  C_20 
ROOT
ATOM      1  C   UNL d   1      32.777  22.661 -22.773  0.00  0.00     0.171 A 
ATOM      2  N   UNL d   1      32.557  23.121 -22.122  0.00  0.00    -0.225 NA
ATOM      3  N   UNL d   1      32.979  21.903 -22.498  0.00  0.00    -0.286 N 
ATOM      4  C   UNL d   1      32.884  21.895 -21.676  0.00  0.00     0.083 A 
ATOM      5  C   UNL d   1      32.623  22.648 -21.443  0.00  0.00     0.099 A 
ATOM      6  C   UNL d   1      32.997  21.304 -21.097  0.00  0.00     0.019 A 
ATOM      7  C   UNL d   1      32.477  22.808 -20.640  0.00  0.00     0.021 A 
ATOM      8  C   UNL d   1      32.852  21.467 -20.302  0.00  0.00     0.002 A 
ATOM      9  C   UNL d   1      32.592  22.221 -20.073  0.00  0.00     0.002 A 
ENDROOT
BRANCH   3  10
ATOM     10  C   UNL d   1      33.212  21.377 -23.089  0.00  0.00     0.108 C 
BRANCH  10  11
ATOM     11  C   UNL d   1      33.093  20.568 -22.989  0.00  0.00     0.142 C 
BRANCH  11  12
ATOM     12  O   UNL d   1      33.115  20.065 -23.643  0.00  0.00    -0.304 OA
BRANCH  12  13
ATOM     13  C   UNL d   1      32.904  19.273 -23.560  0.00  0.00     0.100 A 
ATOM     14  C   UNL d   1      33.241  18.828 -22.952  0.00  0.00     0.026 A 
ATOM     15  C   UNL d   1      33.033  18.034 -22.864  0.00  0.00     0.013 A 
ATOM     16  C   UNL d   1      32.487  17.692 -23.387  0.00  0.00     0.058 A 
ATOM     17  C   UNL d   1      32.155  18.143 -23.991  0.00  0.00     0.013 A 
ATOM     18 CL   UNL d   1      32.278  16.900 -23.301  0.00  0.00    -0.082 Cl
ATOM     19  C   UNL d   1      32.366  18.936 -24.075  0.00  0.00     0.026 A 
ENDBRANCH  12  13
ENDBRANCH  11  12
ENDBRANCH  10  11
ENDBRANCH   3  10
BRANCH   1  20
ATOM     20  C   UNL d   1      32.794  22.910 -23.560  0.00  0.00     0.134 A 
ATOM     21  O   UNL d   1      33.241  23.309 -23.960  0.00  0.00    -0.302 OA
ATOM     22  C   UNL d   1      33.096  23.429 -24.653  0.00  0.00     0.123 A 
ATOM     23  C   UNL d   1      32.499  23.150 -24.954  0.00  0.00     0.029 A 
ATOM     24  C   UNL d   1      32.056  22.753 -24.553  0.00  0.00     0.030 A 
ENDBRANCH   1  20
TORSDOF 5
ENDMDL
MODEL 3
REMARK VINA RESULT:      -0.7      1.044      2.636
REMARK  5 active torsions:
REMARK  status: ('A' for Active; 'I' for Inactive)
REMARK    1  A    between atoms: C_6  and  C_1 
REMARK    2  A    between atoms: C_11  and  N_3 
REMARK    3  A    between atoms: C_20  and  C_11 
REMARK    4  A    between atoms: C_13  and  O_19 
REMARK    5  A    between atoms: O_19  and  C_20 
ROOT
ATOM      1  C   UNL d   1      30.640  17.033 -24.519  0.00  0.00     0.171 A 
ATOM      2  N   UNL d   1      30.752  16.260 -24.791  0.00  0.00    -0.225 NA
ATOM      3  N   UNL d   1      31.388  17.373 -24.391  0.00  0.00    -0.286 N 
ATOM      4  C   UNL d   1      31.962  16.809 -24.583  0.00  0.00     0.083 A 
ATOM      5  C   UNL d   1      31.570  16.121 -24.831  0.00  0.00     0.099 A 
ATOM      6  C   UNL d   1      32.797  16.822 -24.569  0.00  0.00     0.019 A 
ATOM      7  C   UNL d   1      32.008  15.453 -25.061  0.00  0.00     0.021 A 
ATOM      8  C   UNL d   1      33.227  16.158 -24.798  0.00  0.00     0.002 A 
ATOM      9  C   UNL d   1      32.831  15.471 -25.045  0.00  0.00     0.002 A 
ENDROOT
BRANCH   3  10
ATOM     10  C   UNL d   1      31.365  18.151 -24.116  0.00  0.00     0.108 C 
BRANCH  10  11
ATOM     11  C   UNL d   1      31.968  18.433 -23.631  0.00  0.00     0.142 C 
BRANCH  11  12
ATOM     12  O   UNL d   1      32.092  19.245 -23.559  0.00  0.00    -0.304 OA
BRANCH  12  13
ATOM     13  C   UNL d   1      32.381  19.555 -22.853  0.00  0.00     0.100 A 
ATOM     14  C   UNL d   1      32.151  20.314 -22.621  0.00  0.00     0.026 A 
ATOM     15  C   UNL d   1      32.437  20.629 -21.914  0.00  0.00     0.013 A 
ATOM     16  C   UNL d   1      32.953  20.181 -21.443  0.00  0.00     0.058 A 
ATOM     17  C   UNL d   1      33.178  19.425 -21.681  0.00  0.00     0.013 A 
ATOM     18 CL   UNL d   1      33.239  20.494 -20.738  0.00  0.00    -0.082 Cl
ATOM     19  C   UNL d   1      32.889  19.114 -22.388  0.00  0.00     0.026 A 
ENDBRANCH  12  13
ENDBRANCH  11  12
ENDBRANCH  10  11
ENDBRANCH   3  10
BRANCH   1  20
ATOM     20  C   UNL d   1      29.912  17.404 -24.397  0.00  0.00     0.134 A 
ATOM     21  O   UNL d   1      29.449  17.451 -23.848  0.00  0.00    -0.302 OA
ATOM     22  C   UNL d   1      28.842  17.829 -23.917  0.00  0.00     0.123 A 
ATOM     23  C   UNL d   1      28.692  18.165 -24.541  0.00  0.00     0.029 A 
ATOM     24  C   UNL d   1      29.155  18.116 -25.087  0.00  0.00     0.030 A 
ENDBRANCH   1  20
TORSDOF 5
ENDMDL
