MODEL 1
REMARK VINA RESULT:       7.7      0.000      0.000
REMARK  2 active torsions:
REMARK  status: ('A' for Active; 'I' for Inactive)
REMARK    1  A    between atoms: N_4  and  C_1 
REMARK    2  A    between atoms: C_6  and  C_2 
ROOT
ATOM      1  C   UNL d   1      46.320 -19.400  43.076  0.00  0.00     0.149 A 
ATOM      2  C   UNL d   1      46.292 -18.592  42.878  0.00  0.00     0.056 A 
ATOM      3  N   UNL d   1      46.436 -19.972  42.505  0.00  0.00    -0.228 NA
ATOM      4  C   UNL d   1      46.384 -18.371  42.095  0.00  0.00     0.006 A 
ATOM      5  C   UNL d   1      46.528 -19.755  41.722  0.00  0.00     0.083 A 
ATOM      6  C   UNL d   1      46.502 -18.954  41.512  0.00  0.00     0.019 A 
ATOM      7  C   UNL d   1      46.360 -17.571  41.877  0.00  0.00     0.000 C 
ATOM      8  C   UNL d   1      46.645 -20.329  41.140  0.00  0.00     0.021 C 
ENDROOT
BRANCH   1   9
ATOM      9  N   UNL d   1      46.227 -19.623  43.867  0.00  0.00    -0.289 N 
ATOM     10  C   UNL d   1      46.647 -20.141  44.146  0.00  0.00     0.082 A 
ATOM     11  C   UNL d   1      46.560 -20.329  44.833  0.00  0.00     0.021 A 
ATOM     12  C   UNL d   1      45.652 -19.493  44.949  0.00  0.00     0.021 A 
ATOM     13  C   UNL d   1      45.737 -19.305  44.266  0.00  0.00     0.082 A 
ENDBRANCH   1   9
BRANCH   2  14
ATOM     14  C   UNL d   1      46.176 -18.026  43.456  0.00  0.00     0.125 C 
ATOM     15  N   UNL d   1      46.354 -17.240  43.303  0.00  0.00    -0.146 N 
ENDBRANCH   2  14
TORSDOF 2
ENDMDL
MODEL 2
REMARK VINA RESULT:       9.7      0.838      2.963
REMARK  2 active torsions:
REMARK  status: ('A' for Active; 'I' for Inactive)
REMARK    1  A    between atoms: N_4  and  C_1 
REMARK    2  A    between atoms: C_6  and  C_2 
ROOT
ATOM      1  C   UNL d   1      46.422 -18.847  43.094  0.00  0.00     0.149 A 
ATOM      2  C   UNL d   1      46.209 -19.573  43.442  0.00  0.00     0.056 A 
ATOM      3  N   UNL d   1      46.545 -18.180  43.550  0.00  0.00    -0.228 NA
ATOM      4  C   UNL d   1      46.121 -19.614  44.254  0.00  0.00     0.006 A 
ATOM      5  C   UNL d   1      46.458 -18.218  44.362  0.00  0.00     0.083 A 
ATOM      6  C   UNL d   1      46.246 -18.935  44.719  0.00  0.00     0.019 A 
ATOM      7  C   UNL d   1      45.908 -20.328  44.619  0.00  0.00     0.000 C 
ATOM      8  C   UNL d   1      46.581 -17.547  44.827  0.00  0.00     0.021 C 
ENDROOT
BRANCH   1   9
ATOM      9  N   UNL d   1      46.511 -18.805  42.273  0.00  0.00    -0.289 N 
ATOM     10  C   UNL d   1      46.563 -19.413  41.886  0.00  0.00     0.082 A 
ATOM     11  C   UNL d   1      46.640 -19.368  41.173  0.00  0.00     0.021 A 
ATOM     12  C   UNL d   1      46.613 -18.130  41.247  0.00  0.00     0.021 A 
ATOM     13  C   UNL d   1      46.536 -18.174  41.956  0.00  0.00     0.082 A 
ENDBRANCH   1   9
BRANCH   2  14
ATOM     14  C   UNL d   1      46.088 -20.235  42.979  0.00  0.00     0.125 C 
ATOM     15  N   UNL d   1      45.381 -20.328  42.571  0.00  0.00    -0.146 N 
ENDBRANCH   2  14
TORSDOF 2
ENDMDL
