MODEL 1
REMARK VINA RESULT:       3.2      0.000      0.000
REMARK  6 active torsions:
REMARK  status: ('A' for Active; 'I' for Inactive)
REMARK    1  A    between atoms: C_7  and  C_1 
REMARK    2  A    between atoms: C_9  and  N_2 
REMARK    3  A    between atoms: C_15  and  C_7 
REMARK    4  A    between atoms: C_8  and  C_9 
REMARK       I    between atoms: N_14  and  C_8 
REMARK    5  A    between atoms: C_20  and  N_14 
REMARK    6  A    between atoms: C_34  and  C_33 
ROOT
ATOM      1  C   UNL d   1      30.425  17.958 -24.377  0.00  0.00     0.095 A 
ATOM      2  N   UNL d   1      31.718  18.509 -24.100  0.00  0.00    -0.300 N 
ATOM      3  C   UNL d   1      30.772  17.179 -24.363  0.00  0.00     0.202 A 
ATOM      4  C   UNL d   1      30.894  18.616 -24.246  0.00  0.00     0.087 A 
ATOM      5  C   UNL d   1      31.590  17.097 -24.216  0.00  0.00     0.056 A 
ATOM      6  C   UNL d   1      32.068  17.749 -24.085  0.00  0.00     0.067 A 
ATOM      7  C   UNL d   1      32.874  17.645 -23.942  0.00  0.00     0.018 A 
ATOM      8  C   UNL d   1      31.943  16.335 -24.201  0.00  0.00     0.016 A 
ATOM      9  O   UNL d   1      30.309  16.527 -24.492  0.00  0.00    -0.286 OA
ATOM     10  C   UNL d   1      32.752  16.239 -24.057  0.00  0.00     0.058 A 
ATOM     11  C   UNL d   1      33.218  16.895 -23.927  0.00  0.00     0.013 A 
ATOM     12 CL   UNL d   1      33.093  15.481 -24.043  0.00  0.00    -0.082 Cl
ENDROOT
BRANCH   2  13
ATOM     13  C   UNL d   1      32.184  19.164 -23.970  0.00  0.00     0.144 C 
BRANCH  13  14
ATOM     14  C   UNL d   1      32.132  19.573 -23.255  0.00  0.00     0.297 C 
ATOM     15  N   UNL d   1      32.768  20.014 -22.987  0.00  0.00    -0.207 NA
ATOM     16  O   UNL d   1      31.441  19.535 -22.814  0.00  0.00    -0.264 OA
BRANCH  15  17
ATOM     17  C   UNL d   1      32.717  20.422 -22.273  0.00  0.00     0.087 A 
ATOM     18  C   UNL d   1      33.024  20.088 -21.598  0.00  0.00     0.045 A 
ATOM     19  C   UNL d   1      32.974  20.493 -20.883  0.00  0.00     0.121 A 
ATOM     20  O   UNL d   1      33.237  20.286 -20.117  0.00  0.00    -0.299 OA
ATOM     21  C   UNL d   1      32.612  21.236 -20.856  0.00  0.00     0.119 A 
ATOM     22  C   UNL d   1      33.035  20.913 -19.603  0.00  0.00     0.304 A 
ATOM     23  O   UNL d   1      32.648  21.503 -20.060  0.00  0.00    -0.300 OA
ATOM     24  C   UNL d   1      32.304  21.570 -21.536  0.00  0.00     0.028 A 
ATOM     25  C   UNL d   1      32.356  21.162 -22.251  0.00  0.00     0.021 A 
ENDBRANCH  15  17
ENDBRANCH  13  14
ENDBRANCH   2  13
BRANCH   1  26
ATOM     26  C   UNL d   1      29.620  18.050 -24.520  0.00  0.00     0.200 C 
ATOM     27  O   UNL d   1      29.367  18.580 -25.090  0.00  0.00    -0.286 OA
BRANCH  26  28
ATOM     28  C   UNL d   1      29.068  17.613 -24.094  0.00  0.00     0.039 A 
ATOM     29  C   UNL d   1      28.931  16.810 -24.270  0.00  0.00     0.003 A 
ATOM     30  C   UNL d   1      28.373  16.362 -23.842  0.00  0.00     0.000 A 
ATOM     31  C   UNL d   1      27.952  16.718 -23.236  0.00  0.00     0.000 A 
ATOM     32  C   UNL d   1      28.100  17.529 -23.069  0.00  0.00     0.000 A 
ATOM     33  C   UNL d   1      28.655  17.978 -23.494  0.00  0.00     0.003 A 
BRANCH  31  34
ATOM     34  C   UNL d   1      27.396  16.274 -22.809  0.00  0.00     0.000 C 
ATOM     35  C   UNL d   1      27.504  15.470 -22.746  0.00  0.00     0.000 C 
ENDBRANCH  31  34
ENDBRANCH  26  28
ENDBRANCH   1  26
TORSDOF 6
ENDMDL
