MODEL 1
REMARK VINA RESULT:      -2.8      0.000      0.000
REMARK  3 active torsions:
REMARK  status: ('A' for Active; 'I' for Inactive)
REMARK    1  A    between atoms: N_10  and  C_3 
REMARK    2  A    between atoms: C_11  and  C_5 
REMARK    3  A    between atoms: C_15  and  N_10 
ROOT
ATOM      1  N   UNL d   1      31.008  17.751 -24.316  0.00  0.00    -0.184 N 
ATOM      2  C   UNL d   1      30.442  17.138 -24.196  0.00  0.00     0.168 A 
ATOM      3  C   UNL d   1      31.798  17.631 -24.089  0.00  0.00     0.217 A 
ATOM      4  N   UNL d   1      29.993  18.577 -24.881  0.00  0.00    -0.162 NA
ATOM      5  C   UNL d   1      29.671  17.254 -24.418  0.00  0.00     0.055 A 
ATOM      6  N   UNL d   1      30.686  16.427 -23.853  0.00  0.00    -0.227 NA
ATOM      7  C   UNL d   1      32.023  16.924 -23.751  0.00  0.00     0.066 A 
ATOM      8  C   UNL d   1      29.435  17.974 -24.763  0.00  0.00     0.104 A 
ATOM      9  C   UNL d   1      31.463  16.306 -23.628  0.00  0.00     0.087 A 
ATOM     10  C   UNL d   1      32.739  16.649 -23.478  0.00  0.00     0.006 A 
ATOM     11  C   UNL d   1      28.652  18.083 -24.985  0.00  0.00     0.023 C 
ATOM     12  C   UNL d   1      31.849  15.667 -23.282  0.00  0.00     0.019 A 
ATOM     13  C   UNL d   1      32.649  15.885 -23.189  0.00  0.00     0.002 A 
ENDROOT
BRANCH   5  14
ATOM     14  C   UNL d   1      29.117  16.654 -24.301  0.00  0.00     0.004 A 
ATOM     15  C   UNL d   1      28.663  16.637 -23.612  0.00  0.00     0.000 A 
ATOM     16  C   UNL d   1      28.111  16.041 -23.491  0.00  0.00     0.000 A 
ATOM     17  C   UNL d   1      28.008  15.453 -24.065  0.00  0.00     0.000 A 
ATOM     18  C   UNL d   1      28.452  15.462 -24.749  0.00  0.00     0.000 A 
ATOM     19  C   UNL d   1      29.012  16.069 -24.868  0.00  0.00     0.000 A 
ENDBRANCH   5  14
BRANCH   3  20
ATOM     20  N   UNL d   1      32.372  18.248 -24.208  0.00  0.00    -0.383 NA
BRANCH  20  21
ATOM     21  C   UNL d   1      32.939  18.861 -24.323  0.00  0.00     0.134 C 
ATOM     22  C   UNL d   1      33.241  19.006 -25.097  0.00  0.00     0.035 C 
ATOM     23  C   UNL d   1      33.200  19.327 -23.659  0.00  0.00     0.035 C 
ENDBRANCH  20  21
ENDBRANCH   3  20
TORSDOF 3
ENDMDL
