MODEL 1
REMARK VINA RESULT:      59.1      0.000      0.000
REMARK  8 active torsions:
REMARK  status: ('A' for Active; 'I' for Inactive)
REMARK    1  A    between atoms: N_3  and  S_1 
REMARK    2  A    between atoms: C_5  and  S_1 
REMARK    3  A    between atoms: N_2  and  C_7 
REMARK    4  A    between atoms: C_6  and  N_3 
REMARK    5  A    between atoms: C_18  and  N_4 
REMARK    6  A    between atoms: C_7  and  C_6 
REMARK    7  A    between atoms: C_12  and  C_7 
REMARK    8  A    between atoms: O_23  and  C_17 
ROOT
ATOM      1  C   UNL d   1      46.349 -18.238  42.875  0.00  0.00     0.086 C 
ENDROOT
BRANCH   1   2
ATOM      2  N   UNL d   1      46.230 -17.490  43.222  0.00  0.00    -0.300 N 
ATOM      3  C   UNL d   1      45.897 -17.439  43.972  0.00  0.00     0.100 A 
ATOM      4  C   UNL d   1      45.777 -16.701  44.320  0.00  0.00     0.100 A 
ATOM      5  N   UNL d   1      45.990 -16.016  43.916  0.00  0.00    -0.301 N 
ATOM      6  C   UNL d   1      46.324 -16.070  43.163  0.00  0.00     0.100 A 
ATOM      7  C   UNL d   1      46.443 -16.806  42.818  0.00  0.00     0.100 A 
BRANCH   5   8
ATOM      8  C   UNL d   1      45.871 -15.281  44.260  0.00  0.00     0.064 A 
ATOM      9  C   UNL d   1      46.513 -14.855  44.560  0.00  0.00     0.018 A 
ATOM     10  C   UNL d   1      46.393 -14.118  44.905  0.00  0.00     0.002 A 
ATOM     11  C   UNL d   1      45.630 -13.800  44.952  0.00  0.00     0.000 A 
ATOM     12  C   UNL d   1      44.988 -14.227  44.651  0.00  0.00     0.002 A 
ATOM     13  C   UNL d   1      45.107 -14.963  44.307  0.00  0.00     0.018 A 
ENDBRANCH   5   8
ENDBRANCH   1   2
BRANCH   1  14
ATOM     14  C   UNL d   1      46.621 -18.289  42.097  0.00  0.00     0.130 C 
BRANCH  14  15
ATOM     15  N   UNL d   1      46.080 -18.276  41.467  0.00  0.00    -0.155 NA
BRANCH  15  16
ATOM     16  S   UNL d   1      46.111 -18.855  40.885  0.00  0.00     0.285 S 
ATOM     17  O   UNL d   1      46.647 -19.368  41.415  0.00  0.00    -0.198 OA
ATOM     18  O   UNL d   1      46.129 -19.381  40.333  0.00  0.00    -0.198 OA
BRANCH  16  19
ATOM     19  C   UNL d   1      45.626 -18.393  40.400  0.00  0.00     0.105 A 
ATOM     20  C   UNL d   1      45.938 -18.040  39.727  0.00  0.00     0.015 A 
ATOM     21  C   UNL d   1      45.457 -17.577  39.238  0.00  0.00     0.023 A 
ATOM     22  C   UNL d   1      45.772 -17.222  38.562  0.00  0.00     0.002 C 
ATOM     23  C   UNL d   1      44.654 -17.469  39.431  0.00  0.00     0.094 A 
ATOM     24  C   UNL d   1      44.343 -17.827  40.110  0.00  0.00     0.025 A 
ATOM     25  C   UNL d   1      44.824 -18.286  40.592  0.00  0.00     0.015 A 
BRANCH  23  26
ATOM     26  O   UNL d   1      44.169 -17.008  38.946  0.00  0.00    -0.328 OA
ATOM     27  C   UNL d   1      44.504 -16.516  38.365  0.00  0.00     0.181 C 
ENDBRANCH  23  26
ENDBRANCH  16  19
ENDBRANCH  15  16
ENDBRANCH  14  15
ENDBRANCH   1  14
BRANCH   1  28
ATOM     28  C   UNL d   1      46.198 -18.924  43.303  0.00  0.00     0.037 A 
ATOM     29  C   UNL d   1      45.604 -18.928  43.875  0.00  0.00     0.100 A 
ATOM     30  N   UNL d   1      45.451 -19.618  44.306  0.00  0.00    -0.242 NA
ATOM     31  C   UNL d   1      45.894 -20.299  44.163  0.00  0.00     0.099 A 
ATOM     32  C   UNL d   1      46.485 -20.292  43.594  0.00  0.00     0.021 A 
ATOM     33  C   UNL d   1      46.637 -19.602  43.162  0.00  0.00     0.005 A 
ENDBRANCH   1  28
TORSDOF 8
ENDMDL
MODEL 2
REMARK VINA RESULT:      59.3      1.761      4.452
REMARK  8 active torsions:
REMARK  status: ('A' for Active; 'I' for Inactive)
REMARK    1  A    between atoms: N_3  and  S_1 
REMARK    2  A    between atoms: C_5  and  S_1 
REMARK    3  A    between atoms: N_2  and  C_7 
REMARK    4  A    between atoms: C_6  and  N_3 
REMARK    5  A    between atoms: C_18  and  N_4 
REMARK    6  A    between atoms: C_7  and  C_6 
REMARK    7  A    between atoms: C_12  and  C_7 
REMARK    8  A    between atoms: O_23  and  C_17 
ROOT
ATOM      1  C   UNL d   1      46.240 -18.096  42.631  0.00  0.00     0.086 C 
ENDROOT
BRANCH   1   2
ATOM      2  N   UNL d   1      45.992 -17.934  41.853  0.00  0.00    -0.300 N 
ATOM      3  C   UNL d   1      45.190 -17.942  41.673  0.00  0.00     0.100 A 
ATOM      4  C   UNL d   1      44.939 -17.782  40.903  0.00  0.00     0.100 A 
ATOM      5  N   UNL d   1      45.492 -17.615  40.317  0.00  0.00    -0.301 N 
ATOM      6  C   UNL d   1      46.297 -17.607  40.500  0.00  0.00     0.100 A 
ATOM      7  C   UNL d   1      46.545 -17.767  41.267  0.00  0.00     0.100 A 
BRANCH   5   8
ATOM      8  C   UNL d   1      45.245 -17.455  39.551  0.00  0.00     0.064 A 
ATOM      9  C   UNL d   1      44.844 -16.752  39.382  0.00  0.00     0.018 A 
ATOM     10  C   UNL d   1      44.597 -16.593  38.615  0.00  0.00     0.002 A 
ATOM     11  C   UNL d   1      44.748 -17.137  38.008  0.00  0.00     0.000 A 
ATOM     12  C   UNL d   1      45.148 -17.840  38.177  0.00  0.00     0.002 A 
ATOM     13  C   UNL d   1      45.396 -17.999  38.944  0.00  0.00     0.018 A 
ENDBRANCH   5   8
ENDBRANCH   1   2
BRANCH   1  14
ATOM     14  C   UNL d   1      46.615 -17.508  43.072  0.00  0.00     0.130 C 
BRANCH  14  15
ATOM     15  N   UNL d   1      46.168 -16.895  43.411  0.00  0.00    -0.155 NA
BRANCH  15  16
ATOM     16  S   UNL d   1      46.232 -16.733  44.214  0.00  0.00     0.285 S 
ATOM     17  O   UNL d   1      46.569 -17.567  44.361  0.00  0.00    -0.198 OA
ATOM     18  O   UNL d   1      46.284 -16.565  44.955  0.00  0.00    -0.198 OA
BRANCH  16  19
ATOM     19  C   UNL d   1      45.927 -15.975  44.085  0.00  0.00     0.105 A 
ATOM     20  C   UNL d   1      45.331 -15.686  44.572  0.00  0.00     0.015 A 
ATOM     21  C   UNL d   1      45.022 -14.928  44.447  0.00  0.00     0.023 A 
ATOM     22  C   UNL d   1      44.423 -14.639  44.937  0.00  0.00     0.002 C 
ATOM     23  C   UNL d   1      45.317 -14.459  43.826  0.00  0.00     0.094 A 
ATOM     24  C   UNL d   1      45.917 -14.754  43.337  0.00  0.00     0.025 A 
ATOM     25  C   UNL d   1      46.221 -15.506  43.464  0.00  0.00     0.015 A 
BRANCH  23  26
ATOM     26  O   UNL d   1      45.011 -13.702  43.697  0.00  0.00    -0.328 OA
ATOM     27  C   UNL d   1      45.483 -13.115  43.344  0.00  0.00     0.181 C 
ENDBRANCH  23  26
ENDBRANCH  16  19
ENDBRANCH  15  16
ENDBRANCH  14  15
ENDBRANCH   1  14
BRANCH   1  28
ATOM     28  C   UNL d   1      46.114 -18.839  42.961  0.00  0.00     0.037 A 
ATOM     29  C   UNL d   1      45.450 -19.278  42.743  0.00  0.00     0.100 A 
ATOM     30  N   UNL d   1      45.323 -20.026  43.075  0.00  0.00    -0.242 NA
ATOM     31  C   UNL d   1      45.860 -20.330  43.622  0.00  0.00     0.099 A 
ATOM     32  C   UNL d   1      46.520 -19.891  43.837  0.00  0.00     0.021 A 
ATOM     33  C   UNL d   1      46.647 -19.143  43.505  0.00  0.00     0.005 A 
ENDBRANCH   1  28
TORSDOF 8
ENDMDL
