MODEL 1
REMARK VINA RESULT:      92.8      0.000      0.000
REMARK  2 active torsions:
REMARK  status: ('A' for Active; 'I' for Inactive)
REMARK    1  A    between atoms: C_5  and  C_1 
REMARK    2  A    between atoms: C_10  and  N_4 
ROOT
ATOM      1  N   UNL d   1      59.633  48.645  50.727  0.00  0.00    -0.273 N 
ATOM      2  C   UNL d   1      60.757  47.964  50.448  0.00  0.00     0.057 A 
ATOM      3  C   UNL d   1      60.268  49.026  51.104  0.00  0.00     0.265 A 
ATOM      4  C   UNL d   1      59.936  47.997  50.327  0.00  0.00     0.086 A 
ATOM      5  C   UNL d   1      60.956  48.607  50.933  0.00  0.00     0.066 A 
ATOM      6  O   UNL d   1      60.209  49.707  51.570  0.00  0.00    -0.267 OA
ENDROOT
BRANCH   2   7
ATOM      7  C   UNL d   1      61.231  47.383  50.125  0.00  0.00     0.149 A 
ATOM      8  N   UNL d   1      61.856  47.450  49.637  0.00  0.00    -0.227 NA
ATOM      9  C   UNL d   1      62.146  46.693  49.469  0.00  0.00     0.099 A 
ATOM     10  C   UNL d   1      62.769  46.441  49.006  0.00  0.00     0.021 A 
ATOM     11  C   UNL d   1      61.679  46.159  49.870  0.00  0.00     0.083 A 
ATOM     12  C   UNL d   1      62.921  45.626  48.950  0.00  0.00     0.002 A 
ATOM     13  C   UNL d   1      62.454  45.092  49.352  0.00  0.00     0.002 A 
ATOM     14  C   UNL d   1      61.821  45.357  49.821  0.00  0.00     0.019 A 
ATOM     15  N   UNL d   1      61.106  46.592  50.281  0.00  0.00    -0.288 N 
ATOM     16  C   UNL d   1      60.504  46.278  50.770  0.00  0.00     0.101 C 
ENDBRANCH   2   7
BRANCH   1  17
ATOM     17  C   UNL d   1      58.868  48.904  50.774  0.00  0.00     0.067 A 
ATOM     18  C   UNL d   1      58.436  49.022  50.091  0.00  0.00     0.018 A 
ATOM     19  C   UNL d   1      57.650  49.287  50.123  0.00  0.00     0.001 A 
ATOM     20  C   UNL d   1      57.235  49.399  49.437  0.00  0.00     0.000 C 
ATOM     21  C   UNL d   1      57.300  49.435  50.867  0.00  0.00     0.000 A 
ATOM     22  C   UNL d   1      57.732  49.318  51.550  0.00  0.00     0.002 A 
ATOM     23  C   UNL d   1      56.496  49.707  50.913  0.00  0.00     0.000 C 
ATOM     24  C   UNL d   1      58.519  49.052  51.507  0.00  0.00     0.018 A 
ENDBRANCH   1  17
TORSDOF 2
ENDMDL
