MODEL 1
REMARK VINA RESULT:      -3.2      0.000      0.000
REMARK  3 active torsions:
REMARK  status: ('A' for Active; 'I' for Inactive)
REMARK    1  A    between atoms: S_3  and  N_1 
REMARK    2  A    between atoms: C_8  and  C_4 
REMARK    3  A    between atoms: C_7  and  C_5 
ROOT
ATOM      1  N   UNL d   1      31.687  16.069 -23.919  0.00  0.00    -0.155 N 
ATOM      2  N   UNL d   1      30.993  15.605 -23.940  0.00  0.00    -0.155 NA
ATOM      3  C   UNL d   1      31.465  16.847 -23.887  0.00  0.00     0.096 A 
ATOM      4  C   UNL d   1      30.356  16.123 -23.921  0.00  0.00     0.110 A 
ATOM      5  C   UNL d   1      30.649  16.913 -23.887  0.00  0.00     0.041 A 
ENDROOT
BRANCH   3   6
ATOM      6  C   UNL d   1      31.986  17.486 -23.858  0.00  0.00     0.018 A 
ATOM      7  C   UNL d   1      31.993  18.039 -24.459  0.00  0.00     0.002 A 
ATOM      8  C   UNL d   1      31.476  17.956 -25.096  0.00  0.00     0.000 C 
ATOM      9  C   UNL d   1      32.513  18.678 -24.431  0.00  0.00     0.000 A 
ATOM     10  C   UNL d   1      33.027  18.765 -23.802  0.00  0.00     0.000 A 
ATOM     11  C   UNL d   1      33.025  18.206 -23.189  0.00  0.00     0.000 A 
ATOM     12  C   UNL d   1      32.505  17.567 -23.217  0.00  0.00     0.002 A 
ENDBRANCH   3   6
BRANCH   1  13
ATOM     13  S   UNL d   1      32.438  15.771 -23.929  0.00  0.00     0.266 S 
ATOM     14  O   UNL d   1      32.439  15.812 -24.740  0.00  0.00    -0.203 OA
ATOM     15  O   UNL d   1      32.455  15.722 -23.088  0.00  0.00    -0.203 OA
ATOM     16  C   UNL d   1      33.240  15.453 -23.930  0.00  0.00     0.165 C 
ENDBRANCH   1  13
BRANCH   4  17
ATOM     17  C   UNL d   1      29.557  15.921 -23.932  0.00  0.00     0.049 A 
ATOM     18  S   UNL d   1      29.189  15.557 -24.562  0.00  0.00    -0.085 SA
ATOM     19  C   UNL d   1      28.396  15.453 -24.355  0.00  0.00     0.035 A 
ATOM     20  C   UNL d   1      28.274  15.753 -23.592  0.00  0.00     0.007 A 
ATOM     21  C   UNL d   1      28.984  16.037 -23.342  0.00  0.00     0.009 A 
ENDBRANCH   4  17
TORSDOF 3
ENDMDL
MODEL 2
REMARK VINA RESULT:      -2.7      1.313      3.478
REMARK  3 active torsions:
REMARK  status: ('A' for Active; 'I' for Inactive)
REMARK    1  A    between atoms: S_3  and  N_1 
REMARK    2  A    between atoms: C_8  and  C_4 
REMARK    3  A    between atoms: C_7  and  C_5 
ROOT
ATOM      1  N   UNL d   1      32.663  16.941 -23.745  0.00  0.00    -0.155 N 
ATOM      2  N   UNL d   1      33.144  17.574 -23.490  0.00  0.00    -0.155 NA
ATOM      3  C   UNL d   1      31.891  17.178 -23.692  0.00  0.00     0.096 A 
ATOM      4  C   UNL d   1      32.643  18.191 -23.285  0.00  0.00     0.110 A 
ATOM      5  C   UNL d   1      31.846  17.946 -23.410  0.00  0.00     0.041 A 
ENDROOT
BRANCH   3   6
ATOM      6  C   UNL d   1      31.239  16.715 -23.892  0.00  0.00     0.018 A 
ATOM      7  C   UNL d   1      30.714  16.967 -24.464  0.00  0.00     0.002 A 
ATOM      8  C   UNL d   1      30.837  17.689 -24.842  0.00  0.00     0.000 C 
ATOM      9  C   UNL d   1      30.062  16.503 -24.664  0.00  0.00     0.000 A 
ATOM     10  C   UNL d   1      29.935  15.787 -24.293  0.00  0.00     0.000 A 
ATOM     11  C   UNL d   1      30.465  15.525 -23.711  0.00  0.00     0.000 A 
ATOM     12  C   UNL d   1      31.117  15.989 -23.511  0.00  0.00     0.002 A 
ENDBRANCH   3   6
BRANCH   1  13
ATOM     13  S   UNL d   1      32.942  16.225 -23.997  0.00  0.00     0.266 S 
ATOM     14  O   UNL d   1      32.871  15.937 -23.241  0.00  0.00    -0.203 OA
ATOM     15  O   UNL d   1      33.023  16.508 -24.786  0.00  0.00    -0.203 OA
ATOM     16  C   UNL d   1      33.240  15.466 -24.274  0.00  0.00     0.165 C 
ENDBRANCH   1  13
BRANCH   4  17
ATOM     17  C   UNL d   1      32.864  18.933 -23.001  0.00  0.00     0.049 A 
ATOM     18  S   UNL d   1      33.052  19.565 -23.481  0.00  0.00    -0.085 SA
ATOM     19  C   UNL d   1      33.241  20.199 -22.987  0.00  0.00     0.035 A 
ATOM     20  C   UNL d   1      33.170  19.957 -22.197  0.00  0.00     0.007 A 
ATOM     21  C   UNL d   1      32.940  19.186 -22.214  0.00  0.00     0.009 A 
ENDBRANCH   4  17
TORSDOF 3
ENDMDL
MODEL 3
REMARK VINA RESULT:      -1.0      1.922      3.859
REMARK  3 active torsions:
REMARK  status: ('A' for Active; 'I' for Inactive)
REMARK    1  A    between atoms: S_3  and  N_1 
REMARK    2  A    between atoms: C_8  and  C_4 
REMARK    3  A    between atoms: C_7  and  C_5 
ROOT
ATOM      1  N   UNL d   1      31.809  18.057 -23.968  0.00  0.00    -0.155 N 
ATOM      2  N   UNL d   1      31.803  18.819 -23.626  0.00  0.00    -0.155 NA
ATOM      3  C   UNL d   1      32.526  17.717 -23.807  0.00  0.00     0.096 A 
ATOM      4  C   UNL d   1      32.530  18.923 -23.259  0.00  0.00     0.110 A 
ATOM      5  C   UNL d   1      32.994  18.228 -23.370  0.00  0.00     0.041 A 
ENDROOT
BRANCH   3   6
ATOM      6  C   UNL d   1      32.756  16.963 -24.048  0.00  0.00     0.018 A 
ATOM      7  C   UNL d   1      32.934  16.390 -23.494  0.00  0.00     0.002 A 
ATOM      8  C   UNL d   1      32.883  16.569 -22.691  0.00  0.00     0.000 C 
ATOM      9  C   UNL d   1      33.164  15.635 -23.734  0.00  0.00     0.000 A 
ATOM     10  C   UNL d   1      33.216  15.453 -24.529  0.00  0.00     0.000 A 
ATOM     11  C   UNL d   1      33.037  16.031 -25.096  0.00  0.00     0.000 A 
ATOM     12  C   UNL d   1      32.806  16.785 -24.856  0.00  0.00     0.002 A 
ENDBRANCH   3   6
BRANCH   1  13
ATOM     13  S   UNL d   1      31.194  17.737 -24.384  0.00  0.00     0.266 S 
ATOM     14  O   UNL d   1      31.593  17.881 -25.076  0.00  0.00    -0.203 OA
ATOM     15  O   UNL d   1      30.767  17.580 -23.675  0.00  0.00    -0.203 OA
ATOM     16  C   UNL d   1      30.534  17.393 -24.818  0.00  0.00     0.165 C 
ENDBRANCH   1  13
BRANCH   4  17
ATOM     17  C   UNL d   1      32.782  19.591 -22.846  0.00  0.00     0.049 A 
ATOM     18  S   UNL d   1      33.040  20.276 -23.205  0.00  0.00    -0.085 SA
ATOM     19  C   UNL d   1      33.241  20.806 -22.604  0.00  0.00     0.035 A 
ATOM     20  C   UNL d   1      33.106  20.446 -21.869  0.00  0.00     0.007 A 
ATOM     21  C   UNL d   1      32.827  19.708 -22.025  0.00  0.00     0.009 A 
ENDBRANCH   4  17
TORSDOF 3
ENDMDL
MODEL 4
REMARK VINA RESULT:      -0.8      1.289      3.530
REMARK  3 active torsions:
REMARK  status: ('A' for Active; 'I' for Inactive)
REMARK    1  A    between atoms: S_3  and  N_1 
REMARK    2  A    between atoms: C_8  and  C_4 
REMARK    3  A    between atoms: C_7  and  C_5 
ROOT
ATOM      1  N   UNL d   1      31.789  16.909 -23.830  0.00  0.00    -0.155 N 
ATOM      2  N   UNL d   1      32.380  17.498 -23.819  0.00  0.00    -0.155 NA
ATOM      3  C   UNL d   1      31.180  17.176 -24.291  0.00  0.00     0.096 A 
ATOM      4  C   UNL d   1      32.109  18.120 -24.282  0.00  0.00     0.110 A 
ATOM      5  C   UNL d   1      31.348  17.922 -24.585  0.00  0.00     0.041 A 
ENDROOT
BRANCH   3   6
ATOM      6  C   UNL d   1      30.486  16.758 -24.446  0.00  0.00     0.018 A 
ATOM      7  C   UNL d   1      29.764  17.054 -24.204  0.00  0.00     0.002 A 
ATOM      8  C   UNL d   1      29.731  17.774 -23.804  0.00  0.00     0.000 C 
ATOM      9  C   UNL d   1      29.070  16.636 -24.359  0.00  0.00     0.000 A 
ATOM     10  C   UNL d   1      29.097  15.922 -24.755  0.00  0.00     0.000 A 
ATOM     11  C   UNL d   1      29.827  15.616 -25.003  0.00  0.00     0.000 A 
ATOM     12  C   UNL d   1      30.521  16.034 -24.848  0.00  0.00     0.002 A 
ENDBRANCH   3   6
BRANCH   1  13
ATOM     13  S   UNL d   1      31.839  16.202 -23.441  0.00  0.00     0.266 S 
ATOM     14  O   UNL d   1      32.136  15.857 -24.113  0.00  0.00    -0.203 OA
ATOM     15  O   UNL d   1      31.532  16.543 -22.735  0.00  0.00    -0.203 OA
ATOM     16  C   UNL d   1      31.889  15.453 -23.018  0.00  0.00     0.165 C 
ENDBRANCH   1  13
BRANCH   4  17
ATOM     17  C   UNL d   1      32.503  18.828 -24.436  0.00  0.00     0.049 A 
ATOM     18  S   UNL d   1      32.498  19.469 -23.932  0.00  0.00    -0.085 SA
ATOM     19  C   UNL d   1      32.953  20.061 -24.286  0.00  0.00     0.035 A 
ATOM     20  C   UNL d   1      33.241  19.783 -25.012  0.00  0.00     0.007 A 
ATOM     21  C   UNL d   1      32.963  19.033 -25.096  0.00  0.00     0.009 A 
ENDBRANCH   4  17
TORSDOF 3
ENDMDL
MODEL 5
REMARK VINA RESULT:      -0.7      1.747      3.950
REMARK  3 active torsions:
REMARK  status: ('A' for Active; 'I' for Inactive)
REMARK    1  A    between atoms: S_3  and  N_1 
REMARK    2  A    between atoms: C_8  and  C_4 
REMARK    3  A    between atoms: C_7  and  C_5 
ROOT
ATOM      1  N   UNL d   1      29.973  17.084 -24.254  0.00  0.00    -0.155 N 
ATOM      2  N   UNL d   1      30.794  17.156 -24.390  0.00  0.00    -0.155 NA
ATOM      3  C   UNL d   1      29.832  16.339 -23.970  0.00  0.00     0.096 A 
ATOM      4  C   UNL d   1      31.136  16.439 -24.181  0.00  0.00     0.110 A 
ATOM      5  C   UNL d   1      30.531  15.916 -23.914  0.00  0.00     0.041 A 
ENDROOT
BRANCH   3   6
ATOM      6  C   UNL d   1      29.089  16.044 -23.766  0.00  0.00     0.018 A 
ATOM      7  C   UNL d   1      28.955  15.750 -23.016  0.00  0.00     0.002 A 
ATOM      8  C   UNL d   1      29.566  15.748 -22.462  0.00  0.00     0.000 C 
ATOM      9  C   UNL d   1      28.212  15.455 -22.811  0.00  0.00     0.000 A 
ATOM     10  C   UNL d   1      27.604  15.454 -23.356  0.00  0.00     0.000 A 
ATOM     11  C   UNL d   1      27.734  15.752 -24.119  0.00  0.00     0.000 A 
ATOM     12  C   UNL d   1      28.476  16.047 -24.323  0.00  0.00     0.002 A 
ENDBRANCH   3   6
BRANCH   1  13
ATOM     13  S   UNL d   1      29.433  17.670 -24.389  0.00  0.00     0.266 S 
ATOM     14  O   UNL d   1      29.674  18.043 -23.710  0.00  0.00    -0.203 OA
ATOM     15  O   UNL d   1      29.171  17.296 -25.097  0.00  0.00    -0.203 OA
ATOM     16  C   UNL d   1      28.855  18.291 -24.542  0.00  0.00     0.165 C 
ENDBRANCH   1  13
BRANCH   4  17
ATOM     17  C   UNL d   1      31.936  16.245 -24.220  0.00  0.00     0.049 A 
ATOM     18  S   UNL d   1      32.271  15.820 -24.830  0.00  0.00    -0.085 SA
ATOM     19  C   UNL d   1      33.077  15.745 -24.662  0.00  0.00     0.035 A 
ATOM     20  C   UNL d   1      33.240  16.126 -23.944  0.00  0.00     0.007 A 
ATOM     21  C   UNL d   1      32.542  16.427 -23.682  0.00  0.00     0.009 A 
ENDBRANCH   4  17
TORSDOF 3
ENDMDL
MODEL 6
REMARK VINA RESULT:      -0.6      5.804      7.345
REMARK  3 active torsions:
REMARK  status: ('A' for Active; 'I' for Inactive)
REMARK    1  A    between atoms: S_3  and  N_1 
REMARK    2  A    between atoms: C_8  and  C_4 
REMARK    3  A    between atoms: C_7  and  C_5 
ROOT
ATOM      1  N   UNL d   1      32.673  22.836 -21.288  0.00  0.00    -0.155 N 
ATOM      2  N   UNL d   1      32.691  23.278 -20.580  0.00  0.00    -0.155 NA
ATOM      3  C   UNL d   1      32.899  22.079 -21.115  0.00  0.00     0.096 A 
ATOM      4  C   UNL d   1      32.932  22.768 -19.984  0.00  0.00     0.110 A 
ATOM      5  C   UNL d   1      33.067  22.005 -20.316  0.00  0.00     0.041 A 
ENDROOT
BRANCH   3   6
ATOM      6  C   UNL d   1      32.956  21.465 -21.663  0.00  0.00     0.018 A 
ATOM      7  C   UNL d   1      32.787  20.698 -21.440  0.00  0.00     0.002 A 
ATOM      8  C   UNL d   1      32.559  20.538 -20.664  0.00  0.00     0.000 C 
ATOM      9  C   UNL d   1      32.843  20.083 -21.988  0.00  0.00     0.000 A 
ATOM     10  C   UNL d   1      33.068  20.236 -22.758  0.00  0.00     0.000 A 
ATOM     11  C   UNL d   1      33.241  21.013 -22.990  0.00  0.00     0.000 A 
ATOM     12  C   UNL d   1      33.185  21.628 -22.442  0.00  0.00     0.002 A 
ENDBRANCH   3   6
BRANCH   1  13
ATOM     13  S   UNL d   1      32.462  23.134 -22.010  0.00  0.00     0.266 S 
ATOM     14  O   UNL d   1      33.231  23.366 -22.133  0.00  0.00    -0.203 OA
ATOM     15  O   UNL d   1      31.661  22.901 -21.898  0.00  0.00    -0.203 OA
ATOM     16  C   UNL d   1      32.229  23.449 -22.778  0.00  0.00     0.165 C 
ENDBRANCH   1  13
BRANCH   4  17
ATOM     17  C   UNL d   1      33.032  22.954 -19.187  0.00  0.00     0.049 A 
ATOM     18  S   UNL d   1      33.142  22.397 -18.601  0.00  0.00    -0.085 SA
ATOM     19  C   UNL d   1      33.219  22.806 -17.887  0.00  0.00     0.035 A 
ATOM     20  C   UNL d   1      33.156  23.620 -18.033  0.00  0.00     0.007 A 
ATOM     21  C   UNL d   1      33.043  23.702 -18.825  0.00  0.00     0.009 A 
ENDBRANCH   4  17
TORSDOF 3
ENDMDL
MODEL 7
REMARK VINA RESULT:      -0.4      4.030      5.400
REMARK  3 active torsions:
REMARK  status: ('A' for Active; 'I' for Inactive)
REMARK    1  A    between atoms: S_3  and  N_1 
REMARK    2  A    between atoms: C_8  and  C_4 
REMARK    3  A    between atoms: C_7  and  C_5 
ROOT
ATOM      1  N   UNL d   1      32.667  20.855 -21.532  0.00  0.00    -0.155 N 
ATOM      2  N   UNL d   1      32.656  20.040 -21.710  0.00  0.00    -0.155 NA
ATOM      3  C   UNL d   1      32.936  21.249 -22.186  0.00  0.00     0.096 A 
ATOM      4  C   UNL d   1      32.924  19.958 -22.481  0.00  0.00     0.110 A 
ATOM      5  C   UNL d   1      33.103  20.722 -22.790  0.00  0.00     0.041 A 
ENDROOT
BRANCH   3   6
ATOM      6  C   UNL d   1      33.030  22.067 -22.240  0.00  0.00     0.018 A 
ATOM      7  C   UNL d   1      33.010  22.437 -22.967  0.00  0.00     0.002 A 
ATOM      8  C   UNL d   1      32.894  21.989 -23.650  0.00  0.00     0.000 C 
ATOM      9  C   UNL d   1      33.104  23.254 -23.022  0.00  0.00     0.000 A 
ATOM     10  C   UNL d   1      33.219  23.702 -22.348  0.00  0.00     0.000 A 
ATOM     11  C   UNL d   1      33.241  23.332 -21.606  0.00  0.00     0.000 A 
ATOM     12  C   UNL d   1      33.147  22.515 -21.552  0.00  0.00     0.002 A 
ENDBRANCH   3   6
BRANCH   1  13
ATOM     13  S   UNL d   1      32.444  21.173 -20.823  0.00  0.00     0.266 S 
ATOM     14  O   UNL d   1      33.214  21.138 -20.569  0.00  0.00    -0.203 OA
ATOM     15  O   UNL d   1      31.640  21.217 -21.070  0.00  0.00    -0.203 OA
ATOM     16  C   UNL d   1      32.196  21.512 -20.070  0.00  0.00     0.165 C 
ENDBRANCH   1  13
BRANCH   4  17
ATOM     17  C   UNL d   1      33.009  19.253 -22.901  0.00  0.00     0.049 A 
ATOM     18  S   UNL d   1      33.215  18.542 -22.558  0.00  0.00    -0.085 SA
ATOM     19  C   UNL d   1      33.241  17.979 -23.162  0.00  0.00     0.035 A 
ATOM     20  C   UNL d   1      33.050  18.344 -23.882  0.00  0.00     0.007 A 
ATOM     21  C   UNL d   1      32.910  19.118 -23.715  0.00  0.00     0.009 A 
ENDBRANCH   4  17
TORSDOF 3
ENDMDL
