MODEL 1
REMARK VINA RESULT:      -7.5      0.000      0.000
REMARK  4 active torsions:
REMARK  status: ('A' for Active; 'I' for Inactive)
REMARK    1  A    between atoms: C_8  and  C_1 
REMARK    2  A    between atoms: C_10  and  C_5 
REMARK    3  A    between atoms: N_9  and  C_10 
REMARK    4  A    between atoms: O_19  and  C_14 
ROOT
ATOM      1  C   UNL d   1     -48.740  13.160  22.406  0.00  0.00     0.066 A 
ATOM      2  C   UNL d   1     -48.651  12.360  22.591  0.00  0.00     0.200 A 
ATOM      3  C   UNL d   1     -47.291  12.586  22.964  0.00  0.00     0.108 A 
ATOM      4  C   UNL d   1     -47.939  12.069  22.866  0.00  0.00     0.062 A 
ATOM      5  C   UNL d   1     -46.583  12.286  23.241  0.00  0.00     0.079 A 
ATOM      6  C   UNL d   1     -48.091  13.677  22.504  0.00  0.00     0.126 A 
ATOM      7  O   UNL d   1     -47.371  13.397  22.780  0.00  0.00    -0.305 OA
ATOM      8  C   UNL d   1     -47.853  11.273  23.049  0.00  0.00     0.009 A 
ATOM      9  C   UNL d   1     -46.490  11.496  23.424  0.00  0.00     0.199 A 
ATOM     10  O   UNL d   1     -49.290  11.851  22.495  0.00  0.00    -0.286 OA
ATOM     11  C   UNL d   1     -47.139  10.979  23.327  0.00  0.00     0.042 A 
ATOM     12  O   UNL d   1     -45.787  11.202  23.698  0.00  0.00    -0.286 OA
ENDROOT
BRANCH   1  13
ATOM     13  C   UNL d   1     -49.512  13.473  22.108  0.00  0.00     0.027 A 
ATOM     14  C   UNL d   1     -49.944  14.088  22.568  0.00  0.00     0.094 A 
ATOM     15  C   UNL d   1     -50.732  14.413  22.271  0.00  0.00     0.024 A 
ATOM     16  C   UNL d   1     -51.064  14.099  21.503  0.00  0.00     0.002 A 
ATOM     17  C   UNL d   1     -50.633  13.484  21.043  0.00  0.00     0.000 A 
ATOM     18  C   UNL d   1     -49.854  13.161  21.335  0.00  0.00     0.002 A 
BRANCH  14  19
ATOM     19  O   UNL d   1     -49.612  14.403  23.336  0.00  0.00    -0.328 OA
ATOM     20  C   UNL d   1     -49.855  15.201  23.645  0.00  0.00     0.181 C 
ENDBRANCH  14  19
ENDBRANCH   1  13
BRANCH   5  21
ATOM     21  C   UNL d   1     -45.938  12.800  23.338  0.00  0.00     0.085 C 
BRANCH  21  22
ATOM     22  N   UNL d   1     -45.331  12.806  22.780  0.00  0.00    -0.302 N 
ATOM     23  C   UNL d   1     -45.236  13.453  22.290  0.00  0.00     0.080 A 
ATOM     24  C   UNL d   1     -44.634  13.458  21.737  0.00  0.00     0.019 A 
ATOM     25  C   UNL d   1     -44.123  12.819  21.668  0.00  0.00     0.003 A 
ATOM     26  C   UNL d   1     -44.218  12.171  22.158  0.00  0.00     0.019 A 
ATOM     27  C   UNL d   1     -43.524  12.825  21.117  0.00  0.00     0.000 C 
ATOM     28  C   UNL d   1     -44.814  12.160  22.710  0.00  0.00     0.080 A 
ENDBRANCH  21  22
ENDBRANCH   5  21
TORSDOF 4
ENDMDL
MODEL 2
REMARK VINA RESULT:      -6.7      8.417     10.003
REMARK  4 active torsions:
REMARK  status: ('A' for Active; 'I' for Inactive)
REMARK    1  A    between atoms: C_8  and  C_1 
REMARK    2  A    between atoms: C_10  and  C_5 
REMARK    3  A    between atoms: N_9  and  C_10 
REMARK    4  A    between atoms: O_19  and  C_14 
ROOT
ATOM      1  C   UNL d   1     -39.053  15.324  20.679  0.00  0.00     0.066 A 
ATOM      2  C   UNL d   1     -39.817  15.360  20.368  0.00  0.00     0.200 A 
ATOM      3  C   UNL d   1     -39.286  15.608  19.065  0.00  0.00     0.108 A 
ATOM      4  C   UNL d   1     -39.940  15.500  19.572  0.00  0.00     0.062 A 
ATOM      5  C   UNL d   1     -39.419  15.748  18.271  0.00  0.00     0.079 A 
ATOM      6  C   UNL d   1     -38.399  15.433  20.172  0.00  0.00     0.126 A 
ATOM      7  O   UNL d   1     -38.509  15.574  19.371  0.00  0.00    -0.305 OA
ATOM      8  C   UNL d   1     -40.701  15.535  19.264  0.00  0.00     0.009 A 
ATOM      9  C   UNL d   1     -40.172  15.784  17.958  0.00  0.00     0.199 A 
ATOM     10  O   UNL d   1     -40.461  15.253  20.867  0.00  0.00    -0.286 OA
ATOM     11  C   UNL d   1     -40.827  15.675  18.465  0.00  0.00     0.042 A 
ATOM     12  O   UNL d   1     -40.300  15.922  17.171  0.00  0.00    -0.286 OA
ENDROOT
BRANCH   1  13
ATOM     13  C   UNL d   1     -38.922  15.173  21.542  0.00  0.00     0.027 A 
ATOM     14  C   UNL d   1     -38.643  14.382  21.811  0.00  0.00     0.094 A 
ATOM     15  C   UNL d   1     -38.507  14.218  22.688  0.00  0.00     0.024 A 
ATOM     16  C   UNL d   1     -38.661  14.874  23.276  0.00  0.00     0.002 A 
ATOM     17  C   UNL d   1     -38.940  15.665  23.007  0.00  0.00     0.000 A 
ATOM     18  C   UNL d   1     -39.075  15.828  22.140  0.00  0.00     0.002 A 
BRANCH  14  19
ATOM     19  O   UNL d   1     -38.489  13.726  21.222  0.00  0.00    -0.328 OA
ATOM     20  C   UNL d   1     -37.951  13.047  21.427  0.00  0.00     0.181 C 
ENDBRANCH  14  19
ENDBRANCH   1  13
BRANCH   5  21
ATOM     21  C   UNL d   1     -38.768  15.855  17.766  0.00  0.00     0.085 C 
BRANCH  21  22
ATOM     22  N   UNL d   1     -38.559  15.262  17.234  0.00  0.00    -0.302 N 
ATOM     23  C   UNL d   1     -38.630  15.394  16.430  0.00  0.00     0.080 A 
ATOM     24  C   UNL d   1     -38.423  14.804  15.903  0.00  0.00     0.019 A 
ATOM     25  C   UNL d   1     -38.145  14.080  16.172  0.00  0.00     0.003 A 
ATOM     26  C   UNL d   1     -38.074  13.948  16.976  0.00  0.00     0.019 A 
ATOM     27  C   UNL d   1     -37.940  13.494  15.646  0.00  0.00     0.000 C 
ATOM     28  C   UNL d   1     -38.278  14.529  17.505  0.00  0.00     0.080 A 
ENDBRANCH  21  22
ENDBRANCH   5  21
TORSDOF 4
ENDMDL
MODEL 3
REMARK VINA RESULT:      -6.2      7.348      9.934
REMARK  4 active torsions:
REMARK  status: ('A' for Active; 'I' for Inactive)
REMARK    1  A    between atoms: C_8  and  C_1 
REMARK    2  A    between atoms: C_10  and  C_5 
REMARK    3  A    between atoms: N_9  and  C_10 
REMARK    4  A    between atoms: O_19  and  C_14 
ROOT
ATOM      1  C   UNL d   1     -38.714  14.413  20.325  0.00  0.00     0.066 A 
ATOM      2  C   UNL d   1     -38.395  13.901  19.762  0.00  0.00     0.200 A 
ATOM      3  C   UNL d   1     -38.687  14.841  18.726  0.00  0.00     0.108 A 
ATOM      4  C   UNL d   1     -38.378  14.105  18.971  0.00  0.00     0.062 A 
ATOM      5  C   UNL d   1     -38.665  15.036  17.933  0.00  0.00     0.079 A 
ATOM      6  C   UNL d   1     -39.022  15.150  20.081  0.00  0.00     0.126 A 
ATOM      7  O   UNL d   1     -39.011  15.366  19.289  0.00  0.00    -0.305 OA
ATOM      8  C   UNL d   1     -38.061  13.593  18.411  0.00  0.00     0.009 A 
ATOM      9  C   UNL d   1     -38.351  14.533  17.372  0.00  0.00     0.199 A 
ATOM     10  O   UNL d   1     -38.091  13.176  20.002  0.00  0.00    -0.286 OA
ATOM     11  C   UNL d   1     -38.043  13.796  17.616  0.00  0.00     0.042 A 
ATOM     12  O   UNL d   1     -38.332  14.729  16.587  0.00  0.00    -0.286 OA
ENDROOT
BRANCH   1  13
ATOM     13  C   UNL d   1     -38.731  14.190  21.182  0.00  0.00     0.027 A 
ATOM     14  C   UNL d   1     -39.498  13.999  21.570  0.00  0.00     0.094 A 
ATOM     15  C   UNL d   1     -39.526  13.771  22.443  0.00  0.00     0.024 A 
ATOM     16  C   UNL d   1     -38.760  13.743  22.904  0.00  0.00     0.002 A 
ATOM     17  C   UNL d   1     -37.992  13.934  22.516  0.00  0.00     0.000 A 
ATOM     18  C   UNL d   1     -37.964  14.160  21.653  0.00  0.00     0.002 A 
BRANCH  14  19
ATOM     19  O   UNL d   1     -40.264  14.027  21.109  0.00  0.00    -0.328 OA
ATOM     20  C   UNL d   1     -41.021  13.723  21.464  0.00  0.00     0.181 C 
ENDBRANCH  14  19
ENDBRANCH   1  13
BRANCH   5  21
ATOM     21  C   UNL d   1     -38.972  15.769  17.690  0.00  0.00     0.085 C 
BRANCH  21  22
ATOM     22  N   UNL d   1     -39.725  15.807  17.358  0.00  0.00    -0.302 N 
ATOM     23  C   UNL d   1     -40.381  15.858  17.845  0.00  0.00     0.080 A 
ATOM     24  C   UNL d   1     -41.128  15.896  17.515  0.00  0.00     0.019 A 
ATOM     25  C   UNL d   1     -41.228  15.884  16.700  0.00  0.00     0.003 A 
ATOM     26  C   UNL d   1     -40.572  15.833  16.214  0.00  0.00     0.019 A 
ATOM     27  C   UNL d   1     -41.972  15.922  16.373  0.00  0.00     0.000 C 
ATOM     28  C   UNL d   1     -39.827  15.795  16.534  0.00  0.00     0.080 A 
ENDBRANCH  21  22
ENDBRANCH   5  21
TORSDOF 4
ENDMDL
MODEL 4
REMARK VINA RESULT:      -5.5      1.374      1.960
REMARK  4 active torsions:
REMARK  status: ('A' for Active; 'I' for Inactive)
REMARK    1  A    between atoms: C_8  and  C_1 
REMARK    2  A    between atoms: C_10  and  C_5 
REMARK    3  A    between atoms: N_9  and  C_10 
REMARK    4  A    between atoms: O_19  and  C_14 
ROOT
ATOM      1  C   UNL d   1     -48.416  12.787  22.939  0.00  0.00     0.066 A 
ATOM      2  C   UNL d   1     -48.053  12.944  22.214  0.00  0.00     0.200 A 
ATOM      3  C   UNL d   1     -46.770  12.694  22.790  0.00  0.00     0.108 A 
ATOM      4  C   UNL d   1     -47.241  12.900  22.133  0.00  0.00     0.062 A 
ATOM      5  C   UNL d   1     -45.959  12.652  22.699  0.00  0.00     0.079 A 
ATOM      6  C   UNL d   1     -47.944  12.581  23.596  0.00  0.00     0.126 A 
ATOM      7  O   UNL d   1     -47.128  12.533  23.527  0.00  0.00    -0.305 OA
ATOM      8  C   UNL d   1     -46.882  13.057  21.410  0.00  0.00     0.009 A 
ATOM      9  C   UNL d   1     -45.595  12.806  21.984  0.00  0.00     0.199 A 
ATOM     10  O   UNL d   1     -48.517  13.147  21.567  0.00  0.00    -0.286 OA
ATOM     11  C   UNL d   1     -46.066  13.013  21.326  0.00  0.00     0.042 A 
ATOM     12  O   UNL d   1     -44.792  12.764  21.898  0.00  0.00    -0.286 OA
ENDROOT
BRANCH   1  13
ATOM     13  C   UNL d   1     -49.296  12.835  23.024  0.00  0.00     0.027 A 
ATOM     14  C   UNL d   1     -49.668  13.581  23.308  0.00  0.00     0.094 A 
ATOM     15  C   UNL d   1     -50.565  13.640  23.399  0.00  0.00     0.024 A 
ATOM     16  C   UNL d   1     -51.064  12.927  23.195  0.00  0.00     0.002 A 
ATOM     17  C   UNL d   1     -50.692  12.181  22.912  0.00  0.00     0.000 A 
ATOM     18  C   UNL d   1     -49.806  12.121  22.822  0.00  0.00     0.002 A 
BRANCH  14  19
ATOM     19  O   UNL d   1     -49.169  14.295  23.512  0.00  0.00    -0.328 OA
ATOM     20  C   UNL d   1     -49.547  15.079  23.693  0.00  0.00     0.181 C 
ENDBRANCH  14  19
ENDBRANCH   1  13
BRANCH   5  21
ATOM     21  C   UNL d   1     -45.490  12.447  23.353  0.00  0.00     0.085 C 
BRANCH  21  22
ATOM     22  N   UNL d   1     -45.129  11.707  23.382  0.00  0.00    -0.302 N 
ATOM     23  C   UNL d   1     -44.358  11.621  23.121  0.00  0.00     0.080 A 
ATOM     24  C   UNL d   1     -44.001  10.886  23.150  0.00  0.00     0.019 A 
ATOM     25  C   UNL d   1     -44.406  10.233  23.437  0.00  0.00     0.003 A 
ATOM     26  C   UNL d   1     -45.177  10.319  23.698  0.00  0.00     0.019 A 
ATOM     27  C   UNL d   1     -44.049   9.502  23.465  0.00  0.00     0.000 C 
ATOM     28  C   UNL d   1     -45.538  11.045  23.673  0.00  0.00     0.080 A 
ENDBRANCH  21  22
ENDBRANCH   5  21
TORSDOF 4
ENDMDL
MODEL 5
REMARK VINA RESULT:      -5.2      8.754      9.516
REMARK  4 active torsions:
REMARK  status: ('A' for Active; 'I' for Inactive)
REMARK    1  A    between atoms: C_8  and  C_1 
REMARK    2  A    between atoms: C_10  and  C_5 
REMARK    3  A    between atoms: N_9  and  C_10 
REMARK    4  A    between atoms: O_19  and  C_14 
ROOT
ATOM      1  C   UNL d   1     -39.722  15.066  18.318  0.00  0.00     0.066 A 
ATOM      2  C   UNL d   1     -39.708  14.267  18.524  0.00  0.00     0.200 A 
ATOM      3  C   UNL d   1     -38.827  14.553  19.613  0.00  0.00     0.108 A 
ATOM      4  C   UNL d   1     -39.269  14.005  19.162  0.00  0.00     0.062 A 
ATOM      5  C   UNL d   1     -38.391  14.282  20.248  0.00  0.00     0.079 A 
ATOM      6  C   UNL d   1     -39.281  15.613  18.769  0.00  0.00     0.126 A 
ATOM      7  O   UNL d   1     -38.836  15.363  19.411  0.00  0.00    -0.305 OA
ATOM      8  C   UNL d   1     -39.256  13.209  19.366  0.00  0.00     0.009 A 
ATOM      9  C   UNL d   1     -38.374  13.492  20.457  0.00  0.00     0.199 A 
ATOM     10  O   UNL d   1     -40.143  13.728  18.081  0.00  0.00    -0.286 OA
ATOM     11  C   UNL d   1     -38.815  12.945  20.006  0.00  0.00     0.042 A 
ATOM     12  O   UNL d   1     -37.941  13.228  21.087  0.00  0.00    -0.286 OA
ENDROOT
BRANCH   1  13
ATOM     13  C   UNL d   1     -40.199  15.346  17.627  0.00  0.00     0.027 A 
ATOM     14  C   UNL d   1     -39.802  15.510  16.858  0.00  0.00     0.094 A 
ATOM     15  C   UNL d   1     -40.280  15.797  16.147  0.00  0.00     0.024 A 
ATOM     16  C   UNL d   1     -41.162  15.910  16.241  0.00  0.00     0.002 A 
ATOM     17  C   UNL d   1     -41.559  15.747  17.010  0.00  0.00     0.000 A 
ATOM     18  C   UNL d   1     -41.088  15.463  17.713  0.00  0.00     0.002 A 
BRANCH  14  19
ATOM     19  O   UNL d   1     -38.920  15.397  16.764  0.00  0.00    -0.328 OA
ATOM     20  C   UNL d   1     -38.519  15.557  15.986  0.00  0.00     0.181 C 
ENDBRANCH  14  19
ENDBRANCH   1  13
BRANCH   5  21
ATOM     21  C   UNL d   1     -37.952  14.826  20.697  0.00  0.00     0.085 C 
BRANCH  21  22
ATOM     22  N   UNL d   1     -38.223  15.057  21.440  0.00  0.00    -0.302 N 
ATOM     23  C   UNL d   1     -38.746  15.683  21.505  0.00  0.00     0.080 A 
ATOM     24  C   UNL d   1     -39.014  15.911  22.243  0.00  0.00     0.019 A 
ATOM     25  C   UNL d   1     -38.764  15.520  22.919  0.00  0.00     0.003 A 
ATOM     26  C   UNL d   1     -38.241  14.894  22.854  0.00  0.00     0.019 A 
ATOM     27  C   UNL d   1     -39.032  15.748  23.653  0.00  0.00     0.000 C 
ATOM     28  C   UNL d   1     -37.970  14.662  22.125  0.00  0.00     0.080 A 
ENDBRANCH  21  22
ENDBRANCH   5  21
TORSDOF 4
ENDMDL
