MODEL 1
REMARK VINA RESULT:      -9.7      0.000      0.000
REMARK  4 active torsions:
REMARK  status: ('A' for Active; 'I' for Inactive)
REMARK    1  A    between atoms: C_10  and  C_3 
REMARK    2  A    between atoms: C_12  and  N_6 
REMARK    3  A    between atoms: O_15  and  C_10 
REMARK    4  A    between atoms: C_18  and  O_15 
ROOT
ATOM      1  C   UNL d   1      53.443  33.635  54.396  0.00  0.00     0.086 A 
ATOM      2  C   UNL d   1      53.739  32.881  54.242  0.00  0.00     0.038 A 
ATOM      3  C   UNL d   1      53.374  32.396  53.685  0.00  0.00     0.165 A 
ATOM      4  C   UNL d   1      52.774  33.903  53.989  0.00  0.00     0.282 A 
ATOM      5  N   UNL d   1      52.712  32.665  53.284  0.00  0.00    -0.157 NA
ATOM      6  N   UNL d   1      52.412  33.419  53.436  0.00  0.00    -0.194 N 
ATOM      7  C   UNL d   1      53.921  33.983  54.972  0.00  0.00     0.137 A 
ATOM      8  C   UNL d   1      54.398  32.759  54.718  0.00  0.00     0.039 A 
ATOM      9  S   UNL d   1      54.513  33.447  55.176  0.00  0.00    -0.066 SA
ATOM     10  O   UNL d   1      52.475  34.656  54.141  0.00  0.00    -0.265 OA
ATOM     11  N   UNL d   1      53.822  34.741  55.291  0.00  0.00    -0.141 N 
ENDROOT
BRANCH   6  12
ATOM     12  C   UNL d   1      51.744  33.686  53.029  0.00  0.00     0.086 A 
ATOM     13  C   UNL d   1      50.995  33.583  53.353  0.00  0.00     0.019 A 
ATOM     14  C   UNL d   1      50.331  33.850  52.947  0.00  0.00     0.002 A 
ATOM     15  C   UNL d   1      50.416  34.221  52.214  0.00  0.00     0.000 A 
ATOM     16  C   UNL d   1      51.170  34.323  51.889  0.00  0.00     0.002 A 
ATOM     17  C   UNL d   1      51.834  34.056  52.297  0.00  0.00     0.019 A 
ENDBRANCH   6  12
BRANCH   3  18
ATOM     18  C   UNL d   1      53.673  31.642  53.534  0.00  0.00     0.320 C 
ATOM     19  O   UNL d   1      54.375  31.555  53.112  0.00  0.00    -0.257 OA
BRANCH  18  20
ATOM     20  O   UNL d   1      53.268  30.975  53.806  0.00  0.00    -0.270 OA
BRANCH  20  21
ATOM     21  C   UNL d   1      53.431  30.234  53.487  0.00  0.00     0.126 C 
ATOM     22  C   UNL d   1      53.070  29.564  53.800  0.00  0.00     0.029 C 
ENDBRANCH  20  21
ENDBRANCH  18  20
ENDBRANCH   3  18
TORSDOF 4
ENDMDL
MODEL 2
REMARK VINA RESULT:      -9.2      1.412      2.533
REMARK  4 active torsions:
REMARK  status: ('A' for Active; 'I' for Inactive)
REMARK    1  A    between atoms: C_10  and  C_3 
REMARK    2  A    between atoms: C_12  and  N_6 
REMARK    3  A    between atoms: O_15  and  C_10 
REMARK    4  A    between atoms: C_18  and  O_15 
ROOT
ATOM      1  C   UNL d   1      52.866  31.446  53.253  0.00  0.00     0.086 A 
ATOM      2  C   UNL d   1      53.588  31.728  53.537  0.00  0.00     0.038 A 
ATOM      3  C   UNL d   1      53.714  32.537  53.625  0.00  0.00     0.165 A 
ATOM      4  C   UNL d   1      52.268  31.982  53.056  0.00  0.00     0.282 A 
ATOM      5  N   UNL d   1      53.117  33.064  53.428  0.00  0.00    -0.157 NA
ATOM      6  N   UNL d   1      52.395  32.786  53.144  0.00  0.00    -0.194 N 
ATOM      7  C   UNL d   1      52.908  30.622  53.227  0.00  0.00     0.137 A 
ATOM      8  C   UNL d   1      54.076  31.084  53.688  0.00  0.00     0.039 A 
ATOM      9  S   UNL d   1      53.652  30.391  53.495  0.00  0.00    -0.066 SA
ATOM     10  O   UNL d   1      51.545  31.704  52.771  0.00  0.00    -0.265 OA
ATOM     11  N   UNL d   1      52.304  30.114  52.976  0.00  0.00    -0.141 N 
ENDROOT
BRANCH   6  12
ATOM     12  C   UNL d   1      51.796  33.322  52.946  0.00  0.00     0.086 A 
ATOM     13  C   UNL d   1      51.160  33.435  53.455  0.00  0.00     0.019 A 
ATOM     14  C   UNL d   1      50.565  33.969  53.257  0.00  0.00     0.002 A 
ATOM     15  C   UNL d   1      50.607  34.390  52.549  0.00  0.00     0.000 A 
ATOM     16  C   UNL d   1      51.248  34.275  52.038  0.00  0.00     0.002 A 
ATOM     17  C   UNL d   1      51.842  33.741  52.237  0.00  0.00     0.019 A 
ENDBRANCH   6  12
BRANCH   3  18
ATOM     18  C   UNL d   1      54.437  32.815  53.909  0.00  0.00     0.320 C 
ATOM     19  O   UNL d   1      55.091  32.845  53.411  0.00  0.00    -0.257 OA
BRANCH  18  20
ATOM     20  O   UNL d   1      54.502  33.063  54.696  0.00  0.00    -0.270 OA
BRANCH  20  21
ATOM     21  C   UNL d   1      55.097  33.588  54.914  0.00  0.00     0.126 C 
ATOM     22  C   UNL d   1      55.102  33.911  55.672  0.00  0.00     0.029 C 
ENDBRANCH  20  21
ENDBRANCH  18  20
ENDBRANCH   3  18
TORSDOF 4
ENDMDL
MODEL 3
REMARK VINA RESULT:      -9.1      1.357      2.916
REMARK  4 active torsions:
REMARK  status: ('A' for Active; 'I' for Inactive)
REMARK    1  A    between atoms: C_10  and  C_3 
REMARK    2  A    between atoms: C_12  and  N_6 
REMARK    3  A    between atoms: O_15  and  C_10 
REMARK    4  A    between atoms: C_18  and  O_15 
ROOT
ATOM      1  C   UNL d   1      52.259  33.461  53.412  0.00  0.00     0.086 A 
ATOM      2  C   UNL d   1      52.213  32.694  53.112  0.00  0.00     0.038 A 
ATOM      3  C   UNL d   1      52.816  32.152  53.261  0.00  0.00     0.165 A 
ATOM      4  C   UNL d   1      52.915  33.684  53.865  0.00  0.00     0.282 A 
ATOM      5  N   UNL d   1      53.463  32.378  53.710  0.00  0.00    -0.157 NA
ATOM      6  N   UNL d   1      53.512  33.144  54.012  0.00  0.00    -0.194 N 
ATOM      7  C   UNL d   1      51.582  33.868  53.172  0.00  0.00     0.137 A 
ATOM      8  C   UNL d   1      51.513  32.623  52.688  0.00  0.00     0.039 A 
ATOM      9  S   UNL d   1      51.117  33.357  52.724  0.00  0.00    -0.066 SA
ATOM     10  O   UNL d   1      52.964  34.450  54.166  0.00  0.00    -0.265 OA
ATOM     11  N   UNL d   1      51.403  34.657  53.351  0.00  0.00    -0.141 N 
ENDROOT
BRANCH   6  12
ATOM     12  C   UNL d   1      54.168  33.367  54.465  0.00  0.00     0.086 A 
ATOM     13  C   UNL d   1      54.138  33.318  55.285  0.00  0.00     0.019 A 
ATOM     14  C   UNL d   1      54.791  33.540  55.734  0.00  0.00     0.002 A 
ATOM     15  C   UNL d   1      55.475  33.812  55.361  0.00  0.00     0.000 A 
ATOM     16  C   UNL d   1      55.503  33.861  54.536  0.00  0.00     0.002 A 
ATOM     17  C   UNL d   1      54.850  33.639  54.088  0.00  0.00     0.019 A 
ENDBRANCH   6  12
BRANCH   3  18
ATOM     18  C   UNL d   1      52.766  31.385  52.959  0.00  0.00     0.320 C 
ATOM     19  O   UNL d   1      52.804  31.260  52.146  0.00  0.00    -0.257 OA
BRANCH  18  20
ATOM     20  O   UNL d   1      52.679  30.745  53.474  0.00  0.00    -0.270 OA
BRANCH  20  21
ATOM     21  C   UNL d   1      52.921  29.993  53.242  0.00  0.00     0.126 C 
ATOM     22  C   UNL d   1      52.984  29.391  53.801  0.00  0.00     0.029 C 
ENDBRANCH  20  21
ENDBRANCH  18  20
ENDBRANCH   3  18
TORSDOF 4
ENDMDL
MODEL 4
REMARK VINA RESULT:      -8.6      0.966      3.225
REMARK  4 active torsions:
REMARK  status: ('A' for Active; 'I' for Inactive)
REMARK    1  A    between atoms: C_10  and  C_3 
REMARK    2  A    between atoms: C_12  and  N_6 
REMARK    3  A    between atoms: O_15  and  C_10 
REMARK    4  A    between atoms: C_18  and  O_15 
ROOT
ATOM      1  C   UNL d   1      53.470  33.291  54.363  0.00  0.00     0.086 A 
ATOM      2  C   UNL d   1      52.977  33.806  53.947  0.00  0.00     0.038 A 
ATOM      3  C   UNL d   1      52.498  33.523  53.339  0.00  0.00     0.165 A 
ATOM      4  C   UNL d   1      53.481  32.488  54.166  0.00  0.00     0.282 A 
ATOM      5  N   UNL d   1      52.513  32.726  53.148  0.00  0.00    -0.157 NA
ATOM      6  N   UNL d   1      53.005  32.208  53.562  0.00  0.00    -0.194 N 
ATOM      7  C   UNL d   1      53.876  33.733  54.930  0.00  0.00     0.137 A 
ATOM      8  C   UNL d   1      53.074  34.562  54.253  0.00  0.00     0.039 A 
ATOM      9  S   UNL d   1      53.636  34.519  54.868  0.00  0.00    -0.066 SA
ATOM     10  O   UNL d   1      53.973  31.971  54.580  0.00  0.00    -0.265 OA
ATOM     11  N   UNL d   1      54.430  33.435  55.470  0.00  0.00    -0.141 N 
ENDROOT
BRANCH   6  12
ATOM     12  C   UNL d   1      53.016  31.405  53.365  0.00  0.00     0.086 A 
ATOM     13  C   UNL d   1      53.666  31.086  52.975  0.00  0.00     0.019 A 
ATOM     14  C   UNL d   1      53.676  30.286  52.780  0.00  0.00     0.002 A 
ATOM     15  C   UNL d   1      53.034  29.805  52.976  0.00  0.00     0.000 A 
ATOM     16  C   UNL d   1      52.381  30.128  53.369  0.00  0.00     0.002 A 
ATOM     17  C   UNL d   1      52.373  30.928  53.563  0.00  0.00     0.019 A 
ENDBRANCH   6  12
BRANCH   3  18
ATOM     18  C   UNL d   1      52.006  34.040  52.926  0.00  0.00     0.320 C 
ATOM     19  O   UNL d   1      52.325  34.555  52.369  0.00  0.00    -0.257 OA
BRANCH  18  20
ATOM     20  O   UNL d   1      51.192  34.040  53.072  0.00  0.00    -0.270 OA
BRANCH  20  21
ATOM     21  C   UNL d   1      50.675  34.375  52.526  0.00  0.00     0.126 C 
ATOM     22  C   UNL d   1      49.866  34.383  52.679  0.00  0.00     0.029 C 
ENDBRANCH  20  21
ENDBRANCH  18  20
ENDBRANCH   3  18
TORSDOF 4
ENDMDL
MODEL 5
REMARK VINA RESULT:      -8.6      1.580      3.706
REMARK  4 active torsions:
REMARK  status: ('A' for Active; 'I' for Inactive)
REMARK    1  A    between atoms: C_10  and  C_3 
REMARK    2  A    between atoms: C_12  and  N_6 
REMARK    3  A    between atoms: O_15  and  C_10 
REMARK    4  A    between atoms: C_18  and  O_15 
ROOT
ATOM      1  C   UNL d   1      53.231  31.493  53.494  0.00  0.00     0.086 A 
ATOM      2  C   UNL d   1      52.650  31.914  53.087  0.00  0.00     0.038 A 
ATOM      3  C   UNL d   1      52.617  32.736  53.141  0.00  0.00     0.165 A 
ATOM      4  C   UNL d   1      53.781  31.900  53.958  0.00  0.00     0.282 A 
ATOM      5  N   UNL d   1      53.164  33.135  53.602  0.00  0.00    -0.157 NA
ATOM      6  N   UNL d   1      53.746  32.717  54.011  0.00  0.00    -0.194 N 
ATOM      7  C   UNL d   1      53.123  30.690  53.332  0.00  0.00     0.137 A 
ATOM      8  C   UNL d   1      52.183  31.379  52.673  0.00  0.00     0.039 A 
ATOM      9  S   UNL d   1      52.477  30.613  52.826  0.00  0.00    -0.066 SA
ATOM     10  O   UNL d   1      54.363  31.482  54.367  0.00  0.00    -0.265 OA
ATOM     11  N   UNL d   1      53.585  30.070  53.628  0.00  0.00    -0.141 N 
ENDROOT
BRANCH   6  12
ATOM     12  C   UNL d   1      54.296  33.124  54.476  0.00  0.00     0.086 A 
ATOM     13  C   UNL d   1      54.160  33.226  55.281  0.00  0.00     0.019 A 
ATOM     14  C   UNL d   1      54.709  33.632  55.741  0.00  0.00     0.002 A 
ATOM     15  C   UNL d   1      55.394  33.935  55.396  0.00  0.00     0.000 A 
ATOM     16  C   UNL d   1      55.530  33.831  54.587  0.00  0.00     0.002 A 
ATOM     17  C   UNL d   1      54.980  33.425  54.127  0.00  0.00     0.019 A 
ENDBRANCH   6  12
BRANCH   3  18
ATOM     18  C   UNL d   1      52.035  33.154  52.732  0.00  0.00     0.320 C 
ATOM     19  O   UNL d   1      52.099  33.260  51.918  0.00  0.00    -0.257 OA
BRANCH  18  20
ATOM     20  O   UNL d   1      51.387  33.465  53.141  0.00  0.00    -0.270 OA
BRANCH  20  21
ATOM     21  C   UNL d   1      50.941  34.070  52.807  0.00  0.00     0.126 C 
ATOM     22  C   UNL d   1      50.291  34.373  53.212  0.00  0.00     0.029 C 
ENDBRANCH  20  21
ENDBRANCH  18  20
ENDBRANCH   3  18
TORSDOF 4
ENDMDL
MODEL 6
REMARK VINA RESULT:      -8.0      1.502      3.339
REMARK  4 active torsions:
REMARK  status: ('A' for Active; 'I' for Inactive)
REMARK    1  A    between atoms: C_10  and  C_3 
REMARK    2  A    between atoms: C_12  and  N_6 
REMARK    3  A    between atoms: O_15  and  C_10 
REMARK    4  A    between atoms: C_18  and  O_15 
ROOT
ATOM      1  C   UNL d   1      52.313  33.418  53.030  0.00  0.00     0.086 A 
ATOM      2  C   UNL d   1      52.741  33.785  53.633  0.00  0.00     0.038 A 
ATOM      3  C   UNL d   1      53.229  33.342  54.127  0.00  0.00     0.165 A 
ATOM      4  C   UNL d   1      52.377  32.600  52.924  0.00  0.00     0.282 A 
ATOM      5  N   UNL d   1      53.288  32.532  54.017  0.00  0.00    -0.157 NA
ATOM      6  N   UNL d   1      52.862  32.161  53.416  0.00  0.00    -0.194 N 
ATOM      7  C   UNL d   1      51.881  34.000  52.635  0.00  0.00     0.137 A 
ATOM      8  C   UNL d   1      52.576  34.590  53.613  0.00  0.00     0.039 A 
ATOM      9  S   UNL d   1      52.038  34.726  52.990  0.00  0.00    -0.066 SA
ATOM     10  O   UNL d   1      51.951  32.229  52.323  0.00  0.00    -0.265 OA
ATOM     11  N   UNL d   1      51.375  33.873  51.991  0.00  0.00    -0.141 N 
ENDROOT
BRANCH   6  12
ATOM     12  C   UNL d   1      52.926  31.343  53.310  0.00  0.00     0.086 A 
ATOM     13  C   UNL d   1      52.282  30.856  53.467  0.00  0.00     0.019 A 
ATOM     14  C   UNL d   1      52.347  30.042  53.361  0.00  0.00     0.002 A 
ATOM     15  C   UNL d   1      53.057  29.716  53.097  0.00  0.00     0.000 A 
ATOM     16  C   UNL d   1      53.704  30.207  52.939  0.00  0.00     0.002 A 
ATOM     17  C   UNL d   1      53.638  31.021  53.046  0.00  0.00     0.019 A 
ENDBRANCH   6  12
BRANCH   3  18
ATOM     18  C   UNL d   1      53.655  33.713  54.728  0.00  0.00     0.320 C 
ATOM     19  O   UNL d   1      53.269  33.964  55.411  0.00  0.00    -0.257 OA
BRANCH  18  20
ATOM     20  O   UNL d   1      54.469  33.831  54.644  0.00  0.00    -0.270 OA
BRANCH  20  21
ATOM     21  C   UNL d   1      54.956  33.834  55.307  0.00  0.00     0.126 C 
ATOM     22  C   UNL d   1      55.764  33.969  55.222  0.00  0.00     0.029 C 
ENDBRANCH  20  21
ENDBRANCH  18  20
ENDBRANCH   3  18
TORSDOF 4
ENDMDL
