MODEL 1
REMARK VINA RESULT:      -5.8      0.000      0.000
REMARK  3 active torsions:
REMARK  status: ('A' for Active; 'I' for Inactive)
REMARK    1  A    between atoms: O_10  and  C_9 
REMARK    2  A    between atoms: C_13  and  O_10 
REMARK    3  A    between atoms: C_12  and  C_13 
ROOT
ATOM      1  C   UNL d   1      58.734  -0.769  29.464  0.00  0.00     0.066 A 
ATOM      2  O   UNL d   1      59.694  -0.181  28.741  0.00  0.00    -0.302 OA
ATOM      3  C   UNL d   1      59.138  -1.358  29.047  0.00  0.00     0.222 A 
ATOM      4  C   UNL d   1      59.080  -0.045  29.272  0.00  0.00     0.103 A 
ATOM      5  C   UNL d   1      58.104  -0.790  29.987  0.00  0.00     0.030 A 
ATOM      6  C   UNL d   1      59.729  -0.994  28.602  0.00  0.00     0.165 A 
ATOM      7  O   UNL d   1      58.971  -2.168  29.077  0.00  0.00    -0.284 OA
ATOM      8  C   UNL d   1      58.796   0.648  29.602  0.00  0.00     0.027 A 
ATOM      9  C   UNL d   1      57.819  -0.091  30.319  0.00  0.00     0.100 A 
ATOM     10  C   UNL d   1      58.168   0.631  30.125  0.00  0.00     0.027 A 
ENDROOT
BRANCH   9  11
ATOM     11  O   UNL d   1      57.181  -0.114  30.849  0.00  0.00    -0.305 OA
BRANCH  11  12
ATOM     12  C   UNL d   1      57.314  -0.077  31.661  0.00  0.00     0.122 C 
BRANCH  12  13
ATOM     13  C   UNL d   1      56.672  -0.151  32.180  0.00  0.00     0.025 A 
ATOM     14  C   UNL d   1      56.289   0.531  32.449  0.00  0.00     0.004 A 
ATOM     15  C   UNL d   1      55.652   0.462  32.963  0.00  0.00     0.030 A 
ATOM     16  C   UNL d   1      55.396  -0.291  33.210  0.00  0.00     0.140 A 
ATOM     17  C   UNL d   1      55.781  -0.966  32.939  0.00  0.00     0.030 A 
ATOM     18  F   UNL d   1      54.756  -0.354  33.726  0.00  0.00    -0.204 F 
ATOM     19  C   UNL d   1      56.418  -0.897  32.424  0.00  0.00     0.004 A 
ENDBRANCH  12  13
ENDBRANCH  11  12
ENDBRANCH   9  11
TORSDOF 3
ENDMDL
MODEL 2
REMARK VINA RESULT:      -3.9      2.235      4.806
REMARK  3 active torsions:
REMARK  status: ('A' for Active; 'I' for Inactive)
REMARK    1  A    between atoms: O_10  and  C_9 
REMARK    2  A    between atoms: C_13  and  O_10 
REMARK    3  A    between atoms: C_12  and  C_13 
ROOT
ATOM      1  C   UNL d   1      55.820   0.667  33.521  0.00  0.00     0.066 A 
ATOM      2  O   UNL d   1      55.957   0.649  34.852  0.00  0.00    -0.302 OA
ATOM      3  C   UNL d   1      55.064   0.666  33.857  0.00  0.00     0.222 A 
ATOM      4  C   UNL d   1      56.367   0.656  34.138  0.00  0.00     0.103 A 
ATOM      5  C   UNL d   1      56.084   0.675  32.746  0.00  0.00     0.030 A 
ATOM      6  C   UNL d   1      55.151   0.655  34.677  0.00  0.00     0.165 A 
ATOM      7  O   UNL d   1      54.351   0.674  33.436  0.00  0.00    -0.284 OA
ATOM      8  C   UNL d   1      57.170   0.655  33.976  0.00  0.00     0.027 A 
ATOM      9  C   UNL d   1      56.893   0.673  32.585  0.00  0.00     0.100 A 
ATOM     10  C   UNL d   1      57.437   0.663  33.205  0.00  0.00     0.027 A 
ENDROOT
BRANCH   9  11
ATOM     11  O   UNL d   1      57.159   0.682  31.798  0.00  0.00    -0.305 OA
BRANCH  11  12
ATOM     12  C   UNL d   1      57.182  -0.015  31.361  0.00  0.00     0.122 C 
BRANCH  12  13
ATOM     13  C   UNL d   1      57.617  -0.035  30.655  0.00  0.00     0.025 A 
ATOM     14  C   UNL d   1      57.603   0.623  30.154  0.00  0.00     0.004 A 
ATOM     15  C   UNL d   1      58.032   0.608  29.453  0.00  0.00     0.030 A 
ATOM     16  C   UNL d   1      58.477  -0.066  29.253  0.00  0.00     0.140 A 
ATOM     17  C   UNL d   1      58.487  -0.718  29.756  0.00  0.00     0.030 A 
ATOM     18  F   UNL d   1      58.906  -0.076  28.549  0.00  0.00    -0.204 F 
ATOM     19  C   UNL d   1      58.058  -0.703  30.457  0.00  0.00     0.004 A 
ENDBRANCH  12  13
ENDBRANCH  11  12
ENDBRANCH   9  11
TORSDOF 3
ENDMDL
MODEL 3
REMARK VINA RESULT:      -3.1      9.120     10.076
REMARK  3 active torsions:
REMARK  status: ('A' for Active; 'I' for Inactive)
REMARK    1  A    between atoms: O_10  and  C_9 
REMARK    2  A    between atoms: C_13  and  O_10 
REMARK    3  A    between atoms: C_12  and  C_13 
ROOT
ATOM      1  C   UNL d   1      59.869  -8.208  35.252  0.00  0.00     0.066 A 
ATOM      2  O   UNL d   1      60.815  -8.342  36.188  0.00  0.00    -0.302 OA
ATOM      3  C   UNL d   1      59.965  -7.477  35.625  0.00  0.00     0.222 A 
ATOM      4  C   UNL d   1      60.395  -8.738  35.602  0.00  0.00     0.103 A 
ATOM      5  C   UNL d   1      59.380  -8.465  34.647  0.00  0.00     0.030 A 
ATOM      6  C   UNL d   1      60.549  -7.561  36.201  0.00  0.00     0.165 A 
ATOM      7  O   UNL d   1      59.545  -6.787  35.444  0.00  0.00    -0.284 OA
ATOM      8  C   UNL d   1      60.428  -9.516  35.347  0.00  0.00     0.027 A 
ATOM      9  C   UNL d   1      59.414  -9.248  34.391  0.00  0.00     0.100 A 
ATOM     10  C   UNL d   1      59.942  -9.775  34.744  0.00  0.00     0.027 A 
ENDROOT
BRANCH   9  11
ATOM     11  O   UNL d   1      58.918  -9.506  33.778  0.00  0.00    -0.305 OA
BRANCH  11  12
ATOM     12  C   UNL d   1      59.236  -9.727  33.051  0.00  0.00     0.122 C 
BRANCH  12  13
ATOM     13  C   UNL d   1      58.744  -9.749  32.384  0.00  0.00     0.025 A 
ATOM     14  C   UNL d   1      57.923  -9.758  32.488  0.00  0.00     0.004 A 
ATOM     15  C   UNL d   1      57.431  -9.781  31.830  0.00  0.00     0.030 A 
ATOM     16  C   UNL d   1      57.761  -9.795  31.065  0.00  0.00     0.140 A 
ATOM     17  C   UNL d   1      58.578  -9.786  30.969  0.00  0.00     0.030 A 
ATOM     18  F   UNL d   1      57.263  -9.817  30.409  0.00  0.00    -0.204 F 
ATOM     19  C   UNL d   1      59.070  -9.763  31.627  0.00  0.00     0.004 A 
ENDBRANCH  12  13
ENDBRANCH  11  12
ENDBRANCH   9  11
TORSDOF 3
ENDMDL
