MODEL 1
REMARK VINA RESULT:      25.8      0.000      0.000
REMARK  3 active torsions:
REMARK  status: ('A' for Active; 'I' for Inactive)
REMARK    1  A    between atoms: S_10  and  C_7 
REMARK    2  A    between atoms: C_13  and  S_10 
REMARK    3  A    between atoms: C_12  and  C_13 
ROOT
ATOM      1  N   UNL d   1     -57.758 -98.798 -44.107  0.00  0.00    -0.167 N 
ATOM      2  C   UNL d   1     -57.673 -98.774 -44.922  0.00  0.00     0.220 A 
ATOM      3  C   UNL d   1     -58.514 -98.804 -43.757  0.00  0.00     0.301 A 
ATOM      4  S   UNL d   1     -56.868 -98.774 -45.092  0.00  0.00    -0.019 SA
ATOM      5  N   UNL d   1     -57.013 -98.813 -43.774  0.00  0.00    -0.147 NA
ATOM      6  N   UNL d   1     -58.349 -98.755 -45.401  0.00  0.00    -0.121 NA
ATOM      7  C   UNL d   1     -56.465 -98.798 -44.377  0.00  0.00     0.163 A 
ATOM      8  N   UNL d   1     -59.094 -98.760 -45.068  0.00  0.00    -0.141 NA
ATOM      9  C   UNL d   1     -59.176 -98.784 -44.248  0.00  0.00     0.161 A 
ATOM     10  O   UNL d   1     -58.596 -98.828 -42.942  0.00  0.00    -0.263 OA
ATOM     11  C   UNL d   1     -59.927 -98.790 -43.903  0.00  0.00     0.028 C 
ENDROOT
BRANCH   7  12
ATOM     12  S   UNL d   1     -55.642 -98.807 -44.286  0.00  0.00    -0.059 SA
BRANCH  12  13
ATOM     13  C   UNL d   1     -55.202 -99.416 -44.617  0.00  0.00     0.038 C 
BRANCH  13  14
ATOM     14  C   UNL d   1     -55.039-100.053 -44.122  0.00  0.00     0.017 A 
ATOM     15  C   UNL d   1     -54.951-100.813 -44.439  0.00  0.00     0.058 A 
ATOM     16 CL   UNL d   1     -55.027-100.931 -45.250  0.00  0.00    -0.082 Cl
ATOM     17  C   UNL d   1     -54.790-101.449 -43.956  0.00  0.00     0.011 A 
ATOM     18  C   UNL d   1     -54.712-101.338 -43.135  0.00  0.00     0.001 A 
ATOM     19  C   UNL d   1     -54.797-100.590 -42.814  0.00  0.00     0.000 A 
ATOM     20  C   UNL d   1     -54.960 -99.943 -43.301  0.00  0.00     0.001 A 
ENDBRANCH  13  14
ENDBRANCH  12  13
ENDBRANCH   7  12
TORSDOF 3
ENDMDL
