MODEL 1
REMARK VINA RESULT:      -4.2      0.000      0.000
REMARK  3 active torsions:
REMARK  status: ('A' for Active; 'I' for Inactive)
REMARK    1  A    between atoms: N_11  and  C_4 
REMARK       I    between atoms: C_5  and  N_9 
REMARK       I    between atoms: N_12  and  C_5 
REMARK    2  A    between atoms: C_6  and  C_7 
REMARK    3  A    between atoms: C_14  and  N_12 
ROOT
ATOM      1  C   UNL d   1      58.765   0.126  30.866  0.00  0.00     0.354 C 
ATOM      2  N   UNL d   1      58.154   0.204  31.427  0.00  0.00    -0.253 N 
ATOM      3  N   UNL d   1      56.942   0.352  32.526  0.00  0.00    -0.285 N 
ATOM      4  N   UNL d   1      58.632  -0.280  30.159  0.00  0.00    -0.192 NA
ATOM      5  O   UNL d   1      59.509   0.457  31.019  0.00  0.00    -0.244 OA
ATOM      6  C   UNL d   1      57.414  -0.126  31.274  0.00  0.00     0.104 A 
ATOM      7  C   UNL d   1      58.287   0.610  32.134  0.00  0.00     0.104 A 
ATOM      8  C   UNL d   1      56.807  -0.050  31.828  0.00  0.00     0.101 A 
ATOM      9  C   UNL d   1      57.682   0.682  32.679  0.00  0.00     0.101 A 
ENDROOT
BRANCH   4  10
ATOM     10  C   UNL d   1      59.240  -0.355  29.605  0.00  0.00     0.090 A 
ATOM     11  C   UNL d   1      59.242  -0.991  29.079  0.00  0.00     0.089 A 
ATOM     12  C   UNL d   1      59.848  -1.064  28.528  0.00  0.00     0.005 A 
ATOM     13  C   UNL d   1      60.450  -0.508  28.501  0.00  0.00     0.000 A 
ATOM     14  C   UNL d   1      60.446   0.130  29.032  0.00  0.00     0.002 A 
ATOM     15  C   UNL d   1      59.842   0.201  29.579  0.00  0.00     0.019 A 
BRANCH  11  16
ATOM     16  C   UNL d   1      58.636  -1.551  29.105  0.00  0.00     0.420 C 
ATOM     17  F   UNL d   1      58.031  -2.111  29.132  0.00  0.00    -0.166 F 
ATOM     18  F   UNL d   1      58.179  -1.079  28.613  0.00  0.00    -0.166 F 
ATOM     19  F   UNL d   1      59.097  -2.025  29.599  0.00  0.00    -0.166 F 
ENDBRANCH  11  16
ENDBRANCH   4  10
BRANCH   3  20
ATOM     20  C   UNL d   1      56.335   0.428  33.080  0.00  0.00     0.168 A 
ATOM     21  N   UNL d   1      56.511   0.466  33.885  0.00  0.00    -0.144 NA
ATOM     22  N   UNL d   1      55.906   0.541  34.434  0.00  0.00    -0.187 N 
ATOM     23  C   UNL d   1      55.121   0.578  34.183  0.00  0.00     0.187 A 
ATOM     24  C   UNL d   1      55.905   0.593  35.255  0.00  0.00     0.224 A 
ATOM     25  N   UNL d   1      54.641   0.653  34.849  0.00  0.00    -0.127 NA
ATOM     26  C   UNL d   1      54.942   0.540  33.382  0.00  0.00     0.044 A 
ATOM     27  N   UNL d   1      55.137   0.661  35.512  0.00  0.00    -0.124 NA
ATOM     28  C   UNL d   1      55.550   0.465  32.828  0.00  0.00     0.042 A 
ENDBRANCH   3  20
TORSDOF 3
ENDMDL
