MODEL 1
REMARK VINA RESULT:      -2.5      0.000      0.000
REMARK  4 active torsions:
REMARK  status: ('A' for Active; 'I' for Inactive)
REMARK    1  A    between atoms: N_6  and  C_1 
REMARK    2  A    between atoms: C_7  and  N_2 
REMARK    3  A    between atoms: C_11  and  N_6 
REMARK    4  A    between atoms: C_14  and  C_11 
ROOT
ATOM      1  C   UNL d   1      32.956  22.482 -20.252  0.00  0.00     0.735 A 
ATOM      2  N   UNL d   1      32.823  22.429 -21.065  0.00  0.00    -0.139 N 
ATOM      3  N   UNL d   1      33.143  21.700 -19.980  0.00  0.00    -0.059 NA
ATOM      4  C   UNL d   1      32.917  21.666 -21.301  0.00  0.00     0.100 A 
ATOM      5  C   UNL d   1      33.119  21.206 -20.617  0.00  0.00     0.116 A 
ATOM      6  C   UNL d   1      32.853  21.302 -22.038  0.00  0.00     0.020 A 
ATOM      7  C   UNL d   1      33.238  20.402 -20.753  0.00  0.00     0.021 A 
ATOM      8  C   UNL d   1      32.983  20.513 -22.096  0.00  0.00     0.002 A 
ATOM      9  C   UNL d   1      33.179  20.066 -21.431  0.00  0.00     0.002 A 
ENDROOT
BRANCH   1  10
ATOM     10  N   UNL d   1      32.924  23.144 -19.760  0.00  0.00    -0.056 NA
BRANCH  10  11
ATOM     11  C   UNL d   1      32.831  23.036 -18.970  0.00  0.00     0.163 C 
BRANCH  11  12
ATOM     12  C   UNL d   1      32.960  23.675 -18.463  0.00  0.00     0.255 C 
ATOM     13  O   UNL d   1      32.569  23.696 -17.722  0.00  0.00    -0.281 OA
ENDBRANCH  11  12
ENDBRANCH  10  11
ENDBRANCH   1  10
BRANCH   2  14
ATOM     14  C   UNL d   1      32.641  23.139 -21.383  0.00  0.00     0.082 C 
ATOM     15  C   UNL d   1      31.854  23.398 -21.371  0.00  0.00     0.020 C 
ATOM     16  C   UNL d   1      33.241  23.598 -21.717  0.00  0.00     0.020 C 
ENDBRANCH   2  14
TORSDOF 4
ENDMDL
MODEL 2
REMARK VINA RESULT:      -2.0      6.386      7.497
REMARK  4 active torsions:
REMARK  status: ('A' for Active; 'I' for Inactive)
REMARK    1  A    between atoms: N_6  and  C_1 
REMARK    2  A    between atoms: C_7  and  N_2 
REMARK    3  A    between atoms: C_11  and  N_6 
REMARK    4  A    between atoms: C_14  and  C_11 
ROOT
ATOM      1  C   UNL d   1      30.825  16.079 -23.541  0.00  0.00     0.735 A 
ATOM      2  N   UNL d   1      30.324  16.625 -23.904  0.00  0.00    -0.139 N 
ATOM      3  N   UNL d   1      30.330  15.520 -23.136  0.00  0.00    -0.059 NA
ATOM      4  C   UNL d   1      29.559  16.432 -23.746  0.00  0.00     0.100 A 
ATOM      5  C   UNL d   1      29.563  15.735 -23.261  0.00  0.00     0.116 A 
ATOM      6  C   UNL d   1      28.844  16.778 -23.964  0.00  0.00     0.020 A 
ATOM      7  C   UNL d   1      28.821  15.453 -23.041  0.00  0.00     0.021 A 
ATOM      8  C   UNL d   1      28.158  16.448 -23.713  0.00  0.00     0.002 A 
ATOM      9  C   UNL d   1      28.161  15.770 -23.242  0.00  0.00     0.002 A 
ENDROOT
BRANCH   1  10
ATOM     10  N   UNL d   1      31.650  16.045 -23.543  0.00  0.00    -0.056 NA
BRANCH  10  11
ATOM     11  C   UNL d   1      32.015  15.477 -23.111  0.00  0.00     0.163 C 
BRANCH  11  12
ATOM     12  C   UNL d   1      32.841  15.455 -23.098  0.00  0.00     0.255 C 
ATOM     13  O   UNL d   1      33.240  15.462 -22.361  0.00  0.00    -0.281 OA
ENDBRANCH  11  12
ENDBRANCH  10  11
ENDBRANCH   1  10
BRANCH   2  14
ATOM     14  C   UNL d   1      30.733  17.183 -24.305  0.00  0.00     0.082 C 
ATOM     15  C   UNL d   1      30.957  17.034 -25.089  0.00  0.00     0.020 C 
ATOM     16  C   UNL d   1      30.922  17.893 -23.930  0.00  0.00     0.020 C 
ENDBRANCH   2  14
TORSDOF 4
ENDMDL
MODEL 3
REMARK VINA RESULT:      -1.9      6.216      7.288
REMARK  4 active torsions:
REMARK  status: ('A' for Active; 'I' for Inactive)
REMARK    1  A    between atoms: N_6  and  C_1 
REMARK    2  A    between atoms: C_7  and  N_2 
REMARK    3  A    between atoms: C_11  and  N_6 
REMARK    4  A    between atoms: C_14  and  C_11 
ROOT
ATOM      1  C   UNL d   1      31.014  17.186 -24.452  0.00  0.00     0.735 A 
ATOM      2  N   UNL d   1      30.762  16.476 -24.116  0.00  0.00    -0.139 N 
ATOM      3  N   UNL d   1      30.320  17.656 -24.588  0.00  0.00    -0.059 NA
ATOM      4  C   UNL d   1      29.961  16.487 -24.040  0.00  0.00     0.100 A 
ATOM      5  C   UNL d   1      29.682  17.231 -24.337  0.00  0.00     0.116 A 
ATOM      6  C   UNL d   1      29.426  15.934 -23.744  0.00  0.00     0.020 A 
ATOM      7  C   UNL d   1      28.867  17.343 -24.304  0.00  0.00     0.021 A 
ATOM      8  C   UNL d   1      28.644  16.111 -23.743  0.00  0.00     0.002 A 
ATOM      9  C   UNL d   1      28.372  16.835 -24.032  0.00  0.00     0.002 A 
ENDROOT
BRANCH   1  10
ATOM     10  N   UNL d   1      31.780  17.433 -24.638  0.00  0.00    -0.056 NA
BRANCH  10  11
ATOM     11  C   UNL d   1      31.895  18.189 -24.881  0.00  0.00     0.163 C 
BRANCH  11  12
ATOM     12  C   UNL d   1      32.655  18.427 -25.097  0.00  0.00     0.255 C 
ATOM     13  O   UNL d   1      32.903  19.210 -24.930  0.00  0.00    -0.281 OA
ENDBRANCH  11  12
ENDBRANCH  10  11
ENDBRANCH   1  10
BRANCH   2  14
ATOM     14  C   UNL d   1      31.375  15.985 -23.964  0.00  0.00     0.082 C 
ATOM     15  C   UNL d   1      31.627  15.459 -24.552  0.00  0.00     0.020 C 
ATOM     16  C   UNL d   1      31.741  16.015 -23.225  0.00  0.00     0.020 C 
ENDBRANCH   2  14
TORSDOF 4
ENDMDL
MODEL 4
REMARK VINA RESULT:      -1.5      1.802      3.106
REMARK  4 active torsions:
REMARK  status: ('A' for Active; 'I' for Inactive)
REMARK    1  A    between atoms: N_6  and  C_1 
REMARK    2  A    between atoms: C_7  and  N_2 
REMARK    3  A    between atoms: C_11  and  N_6 
REMARK    4  A    between atoms: C_14  and  C_11 
ROOT
ATOM      1  C   UNL d   1      33.035  21.744 -21.290  0.00  0.00     0.735 A 
ATOM      2  N   UNL d   1      32.838  22.546 -21.280  0.00  0.00    -0.139 N 
ATOM      3  N   UNL d   1      33.227  21.526 -20.493  0.00  0.00    -0.059 NA
ATOM      4  C   UNL d   1      32.899  22.825 -20.528  0.00  0.00     0.100 A 
ATOM      5  C   UNL d   1      33.145  22.181 -20.031  0.00  0.00     0.116 A 
ATOM      6  C   UNL d   1      32.771  23.571 -20.202  0.00  0.00     0.020 A 
ATOM      7  C   UNL d   1      33.238  22.365 -19.234  0.00  0.00     0.021 A 
ATOM      8  C   UNL d   1      32.882  23.677 -19.415  0.00  0.00     0.002 A 
ATOM      9  C   UNL d   1      33.120  23.052 -18.932  0.00  0.00     0.002 A 
ENDROOT
BRANCH   1  10
ATOM     10  N   UNL d   1      33.054  21.220 -21.928  0.00  0.00    -0.056 NA
BRANCH  10  11
ATOM     11  C   UNL d   1      33.149  20.437 -21.783  0.00  0.00     0.163 C 
BRANCH  11  12
ATOM     12  C   UNL d   1      33.240  19.921 -22.421  0.00  0.00     0.255 C 
ATOM     13  O   UNL d   1      33.082  19.105 -22.315  0.00  0.00    -0.281 OA
ENDBRANCH  11  12
ENDBRANCH  10  11
ENDBRANCH   1  10
BRANCH   2  14
ATOM     14  C   UNL d   1      32.645  22.814 -22.007  0.00  0.00     0.082 C 
ATOM     15  C   UNL d   1      33.217  23.211 -22.456  0.00  0.00     0.020 C 
ATOM     16  C   UNL d   1      31.881  22.690 -22.294  0.00  0.00     0.020 C 
ENDBRANCH   2  14
TORSDOF 4
ENDMDL
MODEL 5
REMARK VINA RESULT:      -1.2      4.181      5.675
REMARK  4 active torsions:
REMARK  status: ('A' for Active; 'I' for Inactive)
REMARK    1  A    between atoms: N_6  and  C_1 
REMARK    2  A    between atoms: C_7  and  N_2 
REMARK    3  A    between atoms: C_11  and  N_6 
REMARK    4  A    between atoms: C_14  and  C_11 
ROOT
ATOM      1  C   UNL d   1      32.434  17.907 -23.544  0.00  0.00     0.735 A 
ATOM      2  N   UNL d   1      32.658  18.619 -23.895  0.00  0.00    -0.139 N 
ATOM      3  N   UNL d   1      32.489  18.017 -22.703  0.00  0.00    -0.059 NA
ATOM      4  C   UNL d   1      32.844  19.152 -23.322  0.00  0.00     0.100 A 
ATOM      5  C   UNL d   1      32.737  18.772 -22.570  0.00  0.00     0.116 A 
ATOM      6  C   UNL d   1      33.098  19.936 -23.356  0.00  0.00     0.020 A 
ATOM      7  C   UNL d   1      32.904  19.238 -21.911  0.00  0.00     0.021 A 
ATOM      8  C   UNL d   1      33.241  20.329 -22.671  0.00  0.00     0.002 A 
ATOM      9  C   UNL d   1      33.137  19.960 -21.941  0.00  0.00     0.002 A 
ENDROOT
BRANCH   1  10
ATOM     10  N   UNL d   1      32.197  17.201 -23.900  0.00  0.00    -0.056 NA
BRANCH  10  11
ATOM     11  C   UNL d   1      31.945  16.597 -23.435  0.00  0.00     0.163 C 
BRANCH  11  12
ATOM     12  C   UNL d   1      31.573  15.950 -23.788  0.00  0.00     0.255 C 
ATOM     13  O   UNL d   1      30.792  15.751 -23.559  0.00  0.00    -0.281 OA
ENDBRANCH  11  12
ENDBRANCH  10  11
ENDBRANCH   1  10
BRANCH   2  14
ATOM     14  C   UNL d   1      32.627  18.580 -24.693  0.00  0.00     0.082 C 
ATOM     15  C   UNL d   1      32.044  19.009 -25.096  0.00  0.00     0.020 C 
ATOM     16  C   UNL d   1      33.176  18.113 -25.096  0.00  0.00     0.020 C 
ENDBRANCH   2  14
TORSDOF 4
ENDMDL
MODEL 6
REMARK VINA RESULT:      -0.8      6.466      7.780
REMARK  4 active torsions:
REMARK  status: ('A' for Active; 'I' for Inactive)
REMARK    1  A    between atoms: N_6  and  C_1 
REMARK    2  A    between atoms: C_7  and  N_2 
REMARK    3  A    between atoms: C_11  and  N_6 
REMARK    4  A    between atoms: C_14  and  C_11 
ROOT
ATOM      1  C   UNL d   1      29.888  16.998 -24.443  0.00  0.00     0.735 A 
ATOM      2  N   UNL d   1      29.742  16.226 -24.192  0.00  0.00    -0.139 N 
ATOM      3  N   UNL d   1      29.193  17.453 -24.265  0.00  0.00    -0.059 NA
ATOM      4  C   UNL d   1      29.004  16.184 -23.874  0.00  0.00     0.100 A 
ATOM      5  C   UNL d   1      28.658  16.958 -23.920  0.00  0.00     0.116 A 
ATOM      6  C   UNL d   1      28.578  15.561 -23.543  0.00  0.00     0.020 A 
ATOM      7  C   UNL d   1      27.894  17.023 -23.617  0.00  0.00     0.021 A 
ATOM      8  C   UNL d   1      27.838  15.698 -23.267  0.00  0.00     0.002 A 
ATOM      9  C   UNL d   1      27.501  16.450 -23.312  0.00  0.00     0.002 A 
ENDROOT
BRANCH   1  10
ATOM     10  N   UNL d   1      30.562  17.312 -24.802  0.00  0.00    -0.056 NA
BRANCH  10  11
ATOM     11  C   UNL d   1      30.626  18.108 -24.879  0.00  0.00     0.163 C 
BRANCH  11  12
ATOM     12  C   UNL d   1      31.354  18.430 -25.097  0.00  0.00     0.255 C 
ATOM     13  O   UNL d   1      31.480  19.255 -25.012  0.00  0.00    -0.281 OA
ENDBRANCH  11  12
ENDBRANCH  10  11
ENDBRANCH   1  10
BRANCH   2  14
ATOM     14  C   UNL d   1      30.364  15.744 -24.333  0.00  0.00     0.082 C 
ATOM     15  C   UNL d   1      30.874  15.550 -23.710  0.00  0.00     0.020 C 
ATOM     16  C   UNL d   1      30.484  15.453 -25.096  0.00  0.00     0.020 C 
ENDBRANCH   2  14
TORSDOF 4
ENDMDL
MODEL 7
REMARK VINA RESULT:      -0.2      1.537      3.053
REMARK  4 active torsions:
REMARK  status: ('A' for Active; 'I' for Inactive)
REMARK    1  A    between atoms: N_6  and  C_1 
REMARK    2  A    between atoms: C_7  and  N_2 
REMARK    3  A    between atoms: C_11  and  N_6 
REMARK    4  A    between atoms: C_14  and  C_11 
ROOT
ATOM      1  C   UNL d   1      33.036  22.142 -20.401  0.00  0.00     0.735 A 
ATOM      2  N   UNL d   1      32.820  22.919 -20.228  0.00  0.00    -0.139 N 
ATOM      3  N   UNL d   1      33.241  21.771 -19.665  0.00  0.00    -0.059 NA
ATOM      4  C   UNL d   1      32.881  23.042 -19.435  0.00  0.00     0.100 A 
ATOM      5  C   UNL d   1      33.146  22.317 -19.080  0.00  0.00     0.116 A 
ATOM      6  C   UNL d   1      32.737  23.702 -18.963  0.00  0.00     0.020 A 
ATOM      7  C   UNL d   1      33.241  22.338 -18.262  0.00  0.00     0.021 A 
ATOM      8  C   UNL d   1      32.851  23.649 -18.172  0.00  0.00     0.002 A 
ATOM      9  C   UNL d   1      33.109  22.945 -17.827  0.00  0.00     0.002 A 
ENDROOT
BRANCH   1  10
ATOM     10  N   UNL d   1      33.063  21.759 -21.132  0.00  0.00    -0.056 NA
BRANCH  10  11
ATOM     11  C   UNL d   1      33.169  20.964 -21.149  0.00  0.00     0.163 C 
BRANCH  11  12
ATOM     12  C   UNL d   1      33.157  20.576 -21.878  0.00  0.00     0.255 C 
ATOM     13  O   UNL d   1      32.650  19.917 -21.984  0.00  0.00    -0.281 OA
ENDBRANCH  11  12
ENDBRANCH  10  11
ENDBRANCH   1  10
BRANCH   2  14
ATOM     14  C   UNL d   1      32.615  23.325 -20.885  0.00  0.00     0.082 C 
ATOM     15  C   UNL d   1      31.812  23.417 -21.068  0.00  0.00     0.020 C 
ATOM     16  C   UNL d   1      33.207  23.643 -21.365  0.00  0.00     0.020 C 
ENDBRANCH   2  14
TORSDOF 4
ENDMDL
MODEL 8
REMARK VINA RESULT:      -0.2      1.203      2.304
REMARK  4 active torsions:
REMARK  status: ('A' for Active; 'I' for Inactive)
REMARK    1  A    between atoms: N_6  and  C_1 
REMARK    2  A    between atoms: C_7  and  N_2 
REMARK    3  A    between atoms: C_11  and  N_6 
REMARK    4  A    between atoms: C_14  and  C_11 
ROOT
ATOM      1  C   UNL d   1      32.539  22.472 -21.339  0.00  0.00     0.735 A 
ATOM      2  N   UNL d   1      32.780  21.876 -21.857  0.00  0.00    -0.139 N 
ATOM      3  N   UNL d   1      32.526  23.196 -21.783  0.00  0.00    -0.059 NA
ATOM      4  C   UNL d   1      32.913  22.193 -22.584  0.00  0.00     0.100 A 
ATOM      5  C   UNL d   1      32.752  23.025 -22.538  0.00  0.00     0.116 A 
ATOM      6  C   UNL d   1      33.158  21.859 -23.297  0.00  0.00     0.020 A 
ATOM      7  C   UNL d   1      32.859  23.446 -23.238  0.00  0.00     0.021 A 
ATOM      8  C   UNL d   1      33.241  22.331 -23.940  0.00  0.00     0.002 A 
ATOM      9  C   UNL d   1      33.085  23.140 -23.895  0.00  0.00     0.002 A 
ENDROOT
BRANCH   1  10
ATOM     10  N   UNL d   1      32.341  22.420 -20.540  0.00  0.00    -0.056 NA
BRANCH  10  11
ATOM     11  C   UNL d   1      32.225  23.096 -20.124  0.00  0.00     0.163 C 
BRANCH  11  12
ATOM     12  C   UNL d   1      32.214  23.061 -19.299  0.00  0.00     0.255 C 
ATOM     13  O   UNL d   1      32.619  23.647 -18.858  0.00  0.00    -0.281 OA
ENDBRANCH  11  12
ENDBRANCH  10  11
ENDBRANCH   1  10
BRANCH   2  14
ATOM     14  C   UNL d   1      32.813  21.164 -21.495  0.00  0.00     0.082 C 
ATOM     15  C   UNL d   1      33.241  21.088 -20.789  0.00  0.00     0.020 C 
ATOM     16  C   UNL d   1      32.421  20.521 -21.833  0.00  0.00     0.020 C 
ENDBRANCH   2  14
TORSDOF 4
ENDMDL
