MODEL 1
REMARK VINA RESULT:      -0.6      0.000      0.000
REMARK  7 active torsions:
REMARK  status: ('A' for Active; 'I' for Inactive)
REMARK    1  A    between atoms: C_11  and  C_3 
REMARK    2  A    between atoms: C_10  and  C_4 
REMARK    3  A    between atoms: O_16  and  C_10 
REMARK    4  A    between atoms: N_15  and  C_11 
REMARK    5  A    between atoms: C_21  and  N_15 
REMARK    6  A    between atoms: C_23  and  O_16 
REMARK    7  A    between atoms: C_18  and  C_21 
ROOT
ATOM      1  C   UNL d   1      59.203  -1.952  29.308  0.00  0.00     0.035 A 
ATOM      2  C   UNL d   1      59.968  -1.689  29.148  0.00  0.00     0.100 A 
ATOM      3  C   UNL d   1      58.649  -1.447  29.653  0.00  0.00     0.060 A 
ATOM      4  C   UNL d   1      59.154  -2.743  29.065  0.00  0.00     0.088 A 
ATOM      5  O   UNL d   1      60.381  -2.309  28.811  0.00  0.00    -0.307 OA
ATOM      6  C   UNL d   1      59.881  -2.927  28.770  0.00  0.00     0.105 A 
ATOM      7  C   UNL d   1      58.854  -0.673  29.840  0.00  0.00     0.197 A 
ATOM      8  C   UNL d   1      60.167  -0.916  29.337  0.00  0.00     0.026 A 
ATOM      9  C   UNL d   1      59.613  -0.411  29.682  0.00  0.00     0.041 A 
ATOM     10  O   UNL d   1      58.304  -0.171  30.183  0.00  0.00    -0.286 OA
ATOM     11  C   UNL d   1      60.085  -3.686  28.455  0.00  0.00     0.027 C 
ATOM     12  C   UNL d   1      60.935  -0.649  29.177  0.00  0.00     0.002 A 
ATOM     13  C   UNL d   1      59.821   0.367  29.870  0.00  0.00     0.003 A 
ATOM     14  C   UNL d   1      60.580   0.629  29.711  0.00  0.00     0.000 A 
ATOM     15  C   UNL d   1      61.133   0.124  29.366  0.00  0.00     0.000 A 
ENDROOT
BRANCH   3  16
ATOM     16  C   UNL d   1      57.857  -1.709  29.822  0.00  0.00     0.102 C 
BRANCH  16  17
ATOM     17  N   UNL d   1      57.364  -1.288  30.348  0.00  0.00    -0.241 NA
BRANCH  17  18
ATOM     18  C   UNL d   1      57.089  -1.656  31.021  0.00  0.00     0.118 C 
BRANCH  18  19
ATOM     19  C   UNL d   1      56.728  -1.198  31.625  0.00  0.00     0.101 A 
ATOM     20  N   UNL d   1      56.595  -0.395  31.518  0.00  0.00    -0.242 NA
ATOM     21  C   UNL d   1      56.241   0.055  32.111  0.00  0.00     0.099 A 
ATOM     22  C   UNL d   1      56.016  -0.291  32.817  0.00  0.00     0.021 A 
ATOM     23  C   UNL d   1      56.147  -1.095  32.930  0.00  0.00     0.003 A 
ATOM     24  C   UNL d   1      56.501  -1.546  32.336  0.00  0.00     0.021 A 
ENDBRANCH  18  19
ENDBRANCH  17  18
ENDBRANCH  16  17
ENDBRANCH   3  16
BRANCH   4  25
ATOM     25  C   UNL d   1      58.490  -3.278  29.103  0.00  0.00     0.302 C 
ATOM     26  O   UNL d   1      57.728  -2.976  29.025  0.00  0.00    -0.259 OA
BRANCH  25  27
ATOM     27  O   UNL d   1      58.612  -4.058  29.214  0.00  0.00    -0.271 OA
BRANCH  27  28
ATOM     28  C   UNL d   1      58.178  -4.618  28.793  0.00  0.00     0.126 C 
ATOM     29  C   UNL d   1      58.557  -5.277  28.455  0.00  0.00     0.029 C 
ENDBRANCH  27  28
ENDBRANCH  25  27
ENDBRANCH   4  25
TORSDOF 7
ENDMDL
MODEL 2
REMARK VINA RESULT:      -0.4      1.883      4.819
REMARK  7 active torsions:
REMARK  status: ('A' for Active; 'I' for Inactive)
REMARK    1  A    between atoms: C_11  and  C_3 
REMARK    2  A    between atoms: C_10  and  C_4 
REMARK    3  A    between atoms: O_16  and  C_10 
REMARK    4  A    between atoms: N_15  and  C_11 
REMARK    5  A    between atoms: C_21  and  N_15 
REMARK    6  A    between atoms: C_23  and  O_16 
REMARK    7  A    between atoms: C_18  and  C_21 
ROOT
ATOM      1  C   UNL d   1      58.066   0.357  32.215  0.00  0.00     0.035 A 
ATOM      2  C   UNL d   1      57.743   0.354  32.973  0.00  0.00     0.100 A 
ATOM      3  C   UNL d   1      57.585   0.247  31.554  0.00  0.00     0.060 A 
ATOM      4  C   UNL d   1      58.882   0.482  32.290  0.00  0.00     0.088 A 
ATOM      5  O   UNL d   1      58.352   0.475  33.506  0.00  0.00    -0.307 OA
ATOM      6  C   UNL d   1      59.021   0.549  33.081  0.00  0.00     0.105 A 
ATOM      7  C   UNL d   1      56.775   0.133  31.644  0.00  0.00     0.197 A 
ATOM      8  C   UNL d   1      56.935   0.239  33.057  0.00  0.00     0.026 A 
ATOM      9  C   UNL d   1      56.454   0.129  32.396  0.00  0.00     0.041 A 
ATOM     10  O   UNL d   1      56.297   0.024  30.987  0.00  0.00    -0.286 OA
ATOM     11  C   UNL d   1      59.787   0.681  33.416  0.00  0.00     0.027 C 
ATOM     12  C   UNL d   1      56.608   0.236  33.819  0.00  0.00     0.002 A 
ATOM     13  C   UNL d   1      55.641   0.015  32.490  0.00  0.00     0.003 A 
ATOM     14  C   UNL d   1      55.319   0.011  33.242  0.00  0.00     0.000 A 
ATOM     15  C   UNL d   1      55.801   0.121  33.903  0.00  0.00     0.000 A 
ENDROOT
BRANCH   3  16
ATOM     16  C   UNL d   1      57.908   0.249  30.766  0.00  0.00     0.102 C 
BRANCH  16  17
ATOM     17  N   UNL d   1      57.797  -0.398  30.250  0.00  0.00    -0.241 NA
BRANCH  17  18
ATOM     18  C   UNL d   1      58.173  -0.404  29.527  0.00  0.00     0.118 C 
BRANCH  18  19
ATOM     19  C   UNL d   1      58.478  -1.125  29.226  0.00  0.00     0.101 A 
ATOM     20  N   UNL d   1      58.112  -1.839  29.398  0.00  0.00    -0.242 NA
ATOM     21  C   UNL d   1      58.412  -2.548  29.102  0.00  0.00     0.099 A 
ATOM     22  C   UNL d   1      59.081  -2.552  28.631  0.00  0.00     0.021 A 
ATOM     23  C   UNL d   1      59.452  -1.839  28.456  0.00  0.00     0.003 A 
ATOM     24  C   UNL d   1      59.152  -1.130  28.751  0.00  0.00     0.021 A 
ENDBRANCH  18  19
ENDBRANCH  17  18
ENDBRANCH  16  17
ENDBRANCH   3  16
BRANCH   4  25
ATOM     25  C   UNL d   1      59.478   0.534  31.680  0.00  0.00     0.302 C 
ATOM     26  O   UNL d   1      59.242   0.667  30.903  0.00  0.00    -0.259 OA
BRANCH  25  27
ATOM     27  O   UNL d   1      60.248   0.455  31.867  0.00  0.00    -0.271 OA
BRANCH  27  28
ATOM     28  C   UNL d   1      60.837   0.652  31.327  0.00  0.00     0.126 C 
ATOM     29  C   UNL d   1      61.083   0.103  30.752  0.00  0.00     0.029 C 
ENDBRANCH  27  28
ENDBRANCH  25  27
ENDBRANCH   4  25
TORSDOF 7
ENDMDL
MODEL 3
REMARK VINA RESULT:       1.9      2.654      3.855
REMARK  7 active torsions:
REMARK  status: ('A' for Active; 'I' for Inactive)
REMARK    1  A    between atoms: C_11  and  C_3 
REMARK    2  A    between atoms: C_10  and  C_4 
REMARK    3  A    between atoms: O_16  and  C_10 
REMARK    4  A    between atoms: N_15  and  C_11 
REMARK    5  A    between atoms: C_21  and  N_15 
REMARK    6  A    between atoms: C_23  and  O_16 
REMARK    7  A    between atoms: C_18  and  C_21 
ROOT
ATOM      1  C   UNL d   1      59.031   0.458  31.343  0.00  0.00     0.035 A 
ATOM      2  C   UNL d   1      59.373   0.358  30.599  0.00  0.00     0.100 A 
ATOM      3  C   UNL d   1      58.211   0.481  31.427  0.00  0.00     0.060 A 
ATOM      4  C   UNL d   1      59.646   0.521  31.896  0.00  0.00     0.088 A 
ATOM      5  O   UNL d   1      60.185   0.358  30.695  0.00  0.00    -0.307 OA
ATOM      6  C   UNL d   1      60.328   0.456  31.471  0.00  0.00     0.105 A 
ATOM      7  C   UNL d   1      57.723   0.403  30.770  0.00  0.00     0.197 A 
ATOM      8  C   UNL d   1      58.882   0.281  29.947  0.00  0.00     0.026 A 
ATOM      9  C   UNL d   1      58.062   0.303  30.032  0.00  0.00     0.041 A 
ATOM     10  O   UNL d   1      56.908   0.426  30.854  0.00  0.00    -0.286 OA
ATOM     11  C   UNL d   1      61.102   0.489  31.815  0.00  0.00     0.027 C 
ATOM     12  C   UNL d   1      59.224   0.179  29.199  0.00  0.00     0.002 A 
ATOM     13  C   UNL d   1      57.574   0.225  29.369  0.00  0.00     0.003 A 
ATOM     14  C   UNL d   1      57.912   0.125  28.631  0.00  0.00     0.000 A 
ATOM     15  C   UNL d   1      58.733   0.102  28.546  0.00  0.00     0.000 A 
ENDROOT
BRANCH   3  16
ATOM     16  C   UNL d   1      57.848   0.585  32.191  0.00  0.00     0.102 C 
BRANCH  16  17
ATOM     17  N   UNL d   1      57.184   0.133  32.420  0.00  0.00    -0.241 NA
BRANCH  17  18
ATOM     18  C   UNL d   1      57.065  -0.034  33.210  0.00  0.00     0.118 C 
BRANCH  18  19
ATOM     19  C   UNL d   1      56.301   0.062  33.541  0.00  0.00     0.101 A 
ATOM     20  N   UNL d   1      56.208   0.275  34.327  0.00  0.00    -0.242 NA
ATOM     21  C   UNL d   1      55.456   0.369  34.653  0.00  0.00     0.099 A 
ATOM     22  C   UNL d   1      54.788   0.251  34.196  0.00  0.00     0.021 A 
ATOM     23  C   UNL d   1      54.875   0.037  33.407  0.00  0.00     0.003 A 
ATOM     24  C   UNL d   1      55.627  -0.057  33.081  0.00  0.00     0.021 A 
ENDBRANCH  18  19
ENDBRANCH  17  18
ENDBRANCH  16  17
ENDBRANCH   3  16
BRANCH   4  25
ATOM     25  C   UNL d   1      59.601   0.630  32.741  0.00  0.00     0.302 C 
ATOM     26  O   UNL d   1      58.861   0.682  33.098  0.00  0.00    -0.259 OA
BRANCH  25  27
ATOM     27  O   UNL d   1      60.269   0.681  33.172  0.00  0.00    -0.271 OA
BRANCH  27  28
ATOM     28  C   UNL d   1      60.243   0.674  33.995  0.00  0.00     0.126 C 
ATOM     29  C   UNL d   1      60.934   0.541  34.438  0.00  0.00     0.029 C 
ENDBRANCH  27  28
ENDBRANCH  25  27
ENDBRANCH   4  25
TORSDOF 7
ENDMDL
